MODEL 1
REMARK VINA RESULT:      -6.4      0.000      0.000
REMARK  Name = 
REMARK  9 active torsions:
REMARK  status: ('A' for Active; 'I' for Inactive)
REMARK    1  A    between atoms: C_1  and  O_2
REMARK    2  A    between atoms: O_2  and  C_3
REMARK    3  A    between atoms: C_6  and  C_7
REMARK    4  A    between atoms: C_10  and  C_12
REMARK    5  A    between atoms: C_17  and  C_18
REMARK    6  A    between atoms: C_20  and  C_21
REMARK    7  A    between atoms: N_23  and  C_24
REMARK    8  A    between atoms: C_27  and  O_28
REMARK    9  A    between atoms: O_28  and  C_29
REMARK                            x       y       z     vdW  Elec       q    Type
REMARK                         _______ _______ _______ _____ _____    ______ ____
ROOT
ATOM      1  C   UNL     1      -2.228  12.515  20.118  0.00  0.00    +0.000 C 
ATOM      2  C   UNL     1      -2.662  11.833  21.419  0.00  0.00    +0.000 C 
ATOM      3  N   UNL     1      -3.882  12.558  21.757  0.00  0.00    +0.000 N 
ATOM      4  C   UNL     1      -4.302  12.692  23.077  0.00  0.00    +0.000 C 
ATOM      5  O   UNL     1      -3.714  12.134  24.005  0.00  0.00    +0.000 OA
ATOM      6  C   UNL     1      -4.592  12.891  20.521  0.00  0.00    +0.000 C 
ATOM      7  C   UNL     1      -3.566  12.758  19.381  0.00  0.00    +0.000 C 
ENDROOT
BRANCH   4   8
ATOM      8  C   UNL     1      -5.484  13.567  23.388  0.00  0.00    +0.000 A 
ATOM      9  C   UNL     1      -6.737  12.955  23.561  0.00  0.00    +0.000 A 
ATOM     10  C   UNL     1      -7.849  13.674  23.993  0.00  0.00    +0.000 A 
ATOM     11  C   UNL     1      -7.755  15.049  24.144  0.00  0.00    +0.000 A 
ATOM     12  C   UNL     1      -6.560  15.698  23.835  0.00  0.00    +0.000 A 
ATOM     13  C   UNL     1      -5.414  14.975  23.441  0.00  0.00    +0.000 A 
ATOM     14  C   UNL     1      -4.181  15.756  23.073  0.00  0.00    +0.000 C 
ENDBRANCH   4   8
BRANCH   1  18
ATOM     15  C   UNL     1       1.359  10.728  18.466  0.00  0.00    +0.000 A 
ATOM     16  C   UNL     1       0.178  10.002  18.498  0.00  0.00    +0.000 A 
ATOM     17  C   UNL     1      -0.983  10.573  19.013  0.00  0.00    +0.000 A 
ATOM     18  C   UNL     1      -1.008  11.900  19.459  0.00  0.00    +0.000 A 
ATOM     19  C   UNL     1       0.184  12.661  19.337  0.00  0.00    +0.000 A 
ATOM     20  C   UNL     1       1.360  12.067  18.857  0.00  0.00    +0.000 A 
BRANCH  15  22
ATOM     21  C   UNL     1       2.258   8.656  17.846  0.00  0.00    +0.000 C 
ATOM     22  O   UNL     1       2.451  10.062  17.979  0.00  0.00    +0.000 OA
ENDBRANCH  15  22
BRANCH  19  23
ATOM     23  O   UNL     1       0.091  13.979  19.717  0.00  0.00    +0.000 OA
ATOM     24  C   UNL     1       0.015  14.980  18.710  0.00  0.00    +0.000 C 
ENDBRANCH  19  23
ENDBRANCH   1  18
BRANCH   7  25
ATOM     25  C   UNL     1      -4.106  11.715  18.420  0.00  0.00    +0.000 C 
ATOM     26  O   UNL     1      -4.969  10.911  18.734  0.00  0.00    +0.000 OA
ATOM     27  N   UNL     1      -3.537  11.780  17.160  0.00  0.00    +0.000 N 
ATOM     28  H   UNL     1      -2.841  12.490  16.961  0.00  0.00    +0.000 HD
BRANCH  27  29
ATOM     29  C   UNL     1      -3.914  10.898  16.104  0.00  0.00    +0.000 C 
ATOM     30  C   UNL     1      -3.004  10.703  14.920  0.00  0.00    +0.000 C 
ATOM     31  C   UNL     1      -3.205   9.588  15.904  0.00  0.00    +0.000 C 
ENDBRANCH  27  29
ENDBRANCH   7  25
TORSDOF 6
ENDMDL
MODEL 2
REMARK VINA RESULT:      -6.3      4.657      6.302
REMARK  Name = 
REMARK  9 active torsions:
REMARK  status: ('A' for Active; 'I' for Inactive)
REMARK    1  A    between atoms: C_1  and  O_2
REMARK    2  A    between atoms: O_2  and  C_3
REMARK    3  A    between atoms: C_6  and  C_7
REMARK    4  A    between atoms: C_10  and  C_12
REMARK    5  A    between atoms: C_17  and  C_18
REMARK    6  A    between atoms: C_20  and  C_21
REMARK    7  A    between atoms: N_23  and  C_24
REMARK    8  A    between atoms: C_27  and  O_28
REMARK    9  A    between atoms: O_28  and  C_29
REMARK                            x       y       z     vdW  Elec       q    Type
REMARK                         _______ _______ _______ _____ _____    ______ ____
ROOT
ATOM      1  C   UNL     1       1.404  10.322  19.370  0.00  0.00    +0.000 C 
ATOM      2  C   UNL     1       1.208  11.307  20.528  0.00  0.00    +0.000 C 
ATOM      3  N   UNL     1       1.116  12.586  19.832  0.00  0.00    +0.000 N 
ATOM      4  C   UNL     1       1.498  13.774  20.449  0.00  0.00    +0.000 C 
ATOM      5  O   UNL     1       1.846  13.809  21.630  0.00  0.00    +0.000 OA
ATOM      6  C   UNL     1       0.413  12.386  18.564  0.00  0.00    +0.000 C 
ATOM      7  C   UNL     1       0.468  10.876  18.271  0.00  0.00    +0.000 C 
ENDROOT
BRANCH   4   8
ATOM      8  C   UNL     1       1.520  15.045  19.647  0.00  0.00    +0.000 A 
ATOM      9  C   UNL     1       0.411  15.903  19.730  0.00  0.00    +0.000 A 
ATOM     10  C   UNL     1       0.414  17.163  19.136  0.00  0.00    +0.000 A 
ATOM     11  C   UNL     1       1.487  17.540  18.344  0.00  0.00    +0.000 A 
ATOM     12  C   UNL     1       2.534  16.646  18.127  0.00  0.00    +0.000 A 
ATOM     13  C   UNL     1       2.563  15.385  18.760  0.00  0.00    +0.000 A 
ATOM     14  C   UNL     1       3.703  14.458  18.431  0.00  0.00    +0.000 C 
ENDBRANCH   4   8
BRANCH   1  18
ATOM     15  C   UNL     1       1.744   6.191  20.639  0.00  0.00    +0.000 A 
ATOM     16  C   UNL     1       0.942   7.069  21.354  0.00  0.00    +0.000 A 
ATOM     17  C   UNL     1       0.816   8.394  20.945  0.00  0.00    +0.000 A 
ATOM     18  C   UNL     1       1.441   8.863  19.783  0.00  0.00    +0.000 A 
ATOM     19  C   UNL     1       2.184   7.932  19.011  0.00  0.00    +0.000 A 
ATOM     20  C   UNL     1       2.343   6.610  19.451  0.00  0.00    +0.000 A 
BRANCH  15  22
ATOM     21  C   UNL     1       1.106   3.950  20.405  0.00  0.00    +0.000 C 
ATOM     22  O   UNL     1       1.834   4.924  21.148  0.00  0.00    +0.000 OA
ENDBRANCH  15  22
BRANCH  19  23
ATOM     23  O   UNL     1       2.718   8.420  17.842  0.00  0.00    +0.000 OA
ATOM     24  C   UNL     1       3.732   7.669  17.185  0.00  0.00    +0.000 C 
ENDBRANCH  19  23
ENDBRANCH   1  18
BRANCH   7  25
ATOM     25  C   UNL     1      -0.967  10.390  18.177  0.00  0.00    +0.000 C 
ATOM     26  O   UNL     1      -1.630  10.097  19.159  0.00  0.00    +0.000 OA
ATOM     27  N   UNL     1      -1.445  10.330  16.880  0.00  0.00    +0.000 N 
ATOM     28  H   UNL     1      -0.846  10.611  16.112  0.00  0.00    +0.000 HD
BRANCH  27  29
ATOM     29  C   UNL     1      -2.774   9.914  16.574  0.00  0.00    +0.000 C 
ATOM     30  C   UNL     1      -3.793  10.919  16.106  0.00  0.00    +0.000 C 
ATOM     31  C   UNL     1      -3.265   9.889  15.153  0.00  0.00    +0.000 C 
ENDBRANCH  27  29
ENDBRANCH   7  25
TORSDOF 6
ENDMDL
MODEL 3
REMARK VINA RESULT:      -6.3      2.486      4.613
REMARK  Name = 
REMARK  9 active torsions:
REMARK  status: ('A' for Active; 'I' for Inactive)
REMARK    1  A    between atoms: C_1  and  O_2
REMARK    2  A    between atoms: O_2  and  C_3
REMARK    3  A    between atoms: C_6  and  C_7
REMARK    4  A    between atoms: C_10  and  C_12
REMARK    5  A    between atoms: C_17  and  C_18
REMARK    6  A    between atoms: C_20  and  C_21
REMARK    7  A    between atoms: N_23  and  C_24
REMARK    8  A    between atoms: C_27  and  O_28
REMARK    9  A    between atoms: O_28  and  C_29
REMARK                            x       y       z     vdW  Elec       q    Type
REMARK                         _______ _______ _______ _____ _____    ______ ____
ROOT
ATOM      1  C   UNL     1      -1.328  10.688  19.557  0.00  0.00    +0.000 C 
ATOM      2  C   UNL     1      -2.270  10.861  18.360  0.00  0.00    +0.000 C 
ATOM      3  N   UNL     1      -3.327  11.697  18.918  0.00  0.00    +0.000 N 
ATOM      4  C   UNL     1      -4.626  11.647  18.421  0.00  0.00    +0.000 C 
ATOM      5  O   UNL     1      -4.919  10.964  17.438  0.00  0.00    +0.000 OA
ATOM      6  C   UNL     1      -2.734  12.642  19.865  0.00  0.00    +0.000 C 
ATOM      7  C   UNL     1      -1.348  12.081  20.229  0.00  0.00    +0.000 C 
ENDROOT
BRANCH   4   8
ATOM      8  C   UNL     1      -5.711  12.418  19.119  0.00  0.00    +0.000 A 
ATOM      9  C   UNL     1      -5.966  12.134  20.471  0.00  0.00    +0.000 A 
ATOM     10  C   UNL     1      -6.851  12.901  21.226  0.00  0.00    +0.000 A 
ATOM     11  C   UNL     1      -7.590  13.896  20.607  0.00  0.00    +0.000 A 
ATOM     12  C   UNL     1      -7.462  14.098  19.233  0.00  0.00    +0.000 A 
ATOM     13  C   UNL     1      -6.537  13.359  18.466  0.00  0.00    +0.000 A 
ATOM     14  C   UNL     1      -6.499  13.602  16.981  0.00  0.00    +0.000 C 
ENDBRANCH   4   8
BRANCH   1  18
ATOM     15  C   UNL     1       2.169   8.292  18.650  0.00  0.00    +0.000 A 
ATOM     16  C   UNL     1       1.703   9.213  17.723  0.00  0.00    +0.000 A 
ATOM     17  C   UNL     1       0.589   9.998  18.012  0.00  0.00    +0.000 A 
ATOM     18  C   UNL     1      -0.055   9.922  19.253  0.00  0.00    +0.000 A 
ATOM     19  C   UNL     1       0.485   9.040  20.226  0.00  0.00    +0.000 A 
ATOM     20  C   UNL     1       1.581   8.222  19.913  0.00  0.00    +0.000 A 
BRANCH  15  22
ATOM     21  C   UNL     1       3.194   6.187  18.688  0.00  0.00    +0.000 C 
ATOM     22  O   UNL     1       3.242   7.542  18.252  0.00  0.00    +0.000 OA
ENDBRANCH  15  22
BRANCH  19  23
ATOM     23  O   UNL     1      -0.135   9.054  21.452  0.00  0.00    +0.000 OA
ATOM     24  C   UNL     1       0.581   9.549  22.577  0.00  0.00    +0.000 C 
ENDBRANCH  19  23
ENDBRANCH   1  18
BRANCH   7  25
ATOM     25  C   UNL     1      -0.327  13.131  19.833  0.00  0.00    +0.000 C 
ATOM     26  O   UNL     1       0.873  12.984  20.007  0.00  0.00    +0.000 OA
ATOM     27  N   UNL     1      -0.887  14.252  19.247  0.00  0.00    +0.000 N 
ATOM     28  H   UNL     1      -1.891  14.297  19.112  0.00  0.00    +0.000 HD
BRANCH  27  29
ATOM     29  C   UNL     1      -0.100  15.350  18.789  0.00  0.00    +0.000 C 
ATOM     30  C   UNL     1      -0.728  16.706  18.607  0.00  0.00    +0.000 C 
ATOM     31  C   UNL     1       0.258  16.479  19.714  0.00  0.00    +0.000 C 
ENDBRANCH  27  29
ENDBRANCH   7  25
TORSDOF 6
ENDMDL
MODEL 4
REMARK VINA RESULT:      -6.3      3.145      9.241
REMARK  Name = 
REMARK  9 active torsions:
REMARK  status: ('A' for Active; 'I' for Inactive)
REMARK    1  A    between atoms: C_1  and  O_2
REMARK    2  A    between atoms: O_2  and  C_3
REMARK    3  A    between atoms: C_6  and  C_7
REMARK    4  A    between atoms: C_10  and  C_12
REMARK    5  A    between atoms: C_17  and  C_18
REMARK    6  A    between atoms: C_20  and  C_21
REMARK    7  A    between atoms: N_23  and  C_24
REMARK    8  A    between atoms: C_27  and  O_28
REMARK    9  A    between atoms: O_28  and  C_29
REMARK                            x       y       z     vdW  Elec       q    Type
REMARK                         _______ _______ _______ _____ _____    ______ ____
ROOT
ATOM      1  C   UNL     1       0.386   9.498  19.372  0.00  0.00    +0.000 C 
ATOM      2  C   UNL     1       1.391   8.694  20.204  0.00  0.00    +0.000 C 
ATOM      3  N   UNL     1       2.032   7.861  19.192  0.00  0.00    +0.000 N 
ATOM      4  C   UNL     1       2.572   6.619  19.514  0.00  0.00    +0.000 C 
ATOM      5  O   UNL     1       2.611   6.210  20.675  0.00  0.00    +0.000 OA
ATOM      6  C   UNL     1       2.152   8.630  17.952  0.00  0.00    +0.000 C 
ATOM      7  C   UNL     1       1.165   9.804  18.071  0.00  0.00    +0.000 C 
ENDROOT
BRANCH   4   8
ATOM      8  C   UNL     1       3.093   5.736  18.415  0.00  0.00    +0.000 A 
ATOM      9  C   UNL     1       4.151   6.213  17.624  0.00  0.00    +0.000 A 
ATOM     10  C   UNL     1       4.785   5.403  16.684  0.00  0.00    +0.000 A 
ATOM     11  C   UNL     1       4.290   4.133  16.435  0.00  0.00    +0.000 A 
ATOM     12  C   UNL     1       3.148   3.693  17.103  0.00  0.00    +0.000 A 
ATOM     13  C   UNL     1       2.525   4.486  18.090  0.00  0.00    +0.000 A 
ATOM     14  C   UNL     1       1.267   3.959  18.726  0.00  0.00    +0.000 C 
ENDBRANCH   4   8
BRANCH   1  18
ATOM     15  C   UNL     1      -2.006  12.322  21.630  0.00  0.00    +0.000 A 
ATOM     16  C   UNL     1      -0.908  11.717  22.224  0.00  0.00    +0.000 A 
ATOM     17  C   UNL     1      -0.125  10.820  21.501  0.00  0.00    +0.000 A 
ATOM     18  C   UNL     1      -0.385  10.545  20.153  0.00  0.00    +0.000 A 
ATOM     19  C   UNL     1      -1.456  11.239  19.532  0.00  0.00    +0.000 A 
ATOM     20  C   UNL     1      -2.267  12.109  20.276  0.00  0.00    +0.000 A 
BRANCH  15  22
ATOM     21  C   UNL     1      -1.962  13.791  23.453  0.00  0.00    +0.000 C 
ATOM     22  O   UNL     1      -2.732  13.154  22.438  0.00  0.00    +0.000 OA
ENDBRANCH  15  22
BRANCH  19  23
ATOM     23  O   UNL     1      -1.627  10.993  18.190  0.00  0.00    +0.000 OA
ATOM     24  C   UNL     1      -2.860  11.353  17.579  0.00  0.00    +0.000 C 
ENDBRANCH  19  23
ENDBRANCH   1  18
BRANCH   7  25
ATOM     25  C   UNL     1       1.978  11.080  17.954  0.00  0.00    +0.000 C 
ATOM     26  O   UNL     1       3.121  11.097  17.526  0.00  0.00    +0.000 OA
ATOM     27  N   UNL     1       1.293  12.210  18.362  0.00  0.00    +0.000 N 
ATOM     28  H   UNL     1       0.335  12.127  18.684  0.00  0.00    +0.000 HD
BRANCH  27  29
ATOM     29  C   UNL     1       1.871  13.514  18.318  0.00  0.00    +0.000 C 
ATOM     30  C   UNL     1       1.175  14.673  18.979  0.00  0.00    +0.000 C 
ATOM     31  C   UNL     1       2.454  14.139  19.554  0.00  0.00    +0.000 C 
ENDBRANCH  27  29
ENDBRANCH   7  25
TORSDOF 6
ENDMDL
MODEL 5
REMARK VINA RESULT:      -6.3      2.468      4.743
REMARK  Name = 
REMARK  9 active torsions:
REMARK  status: ('A' for Active; 'I' for Inactive)
REMARK    1  A    between atoms: C_1  and  O_2
REMARK    2  A    between atoms: O_2  and  C_3
REMARK    3  A    between atoms: C_6  and  C_7
REMARK    4  A    between atoms: C_10  and  C_12
REMARK    5  A    between atoms: C_17  and  C_18
REMARK    6  A    between atoms: C_20  and  C_21
REMARK    7  A    between atoms: N_23  and  C_24
REMARK    8  A    between atoms: C_27  and  O_28
REMARK    9  A    between atoms: O_28  and  C_29
REMARK                            x       y       z     vdW  Elec       q    Type
REMARK                         _______ _______ _______ _____ _____    ______ ____
ROOT
ATOM      1  C   UNL     1      -1.249  10.720  19.541  0.00  0.00    +0.000 C 
ATOM      2  C   UNL     1      -2.286  10.703  18.413  0.00  0.00    +0.000 C 
ATOM      3  N   UNL     1      -3.298  11.630  18.910  0.00  0.00    +0.000 N 
ATOM      4  C   UNL     1      -4.633  11.512  18.536  0.00  0.00    +0.000 C 
ATOM      5  O   UNL     1      -5.003  10.681  17.706  0.00  0.00    +0.000 OA
ATOM      6  C   UNL     1      -2.632  12.712  19.638  0.00  0.00    +0.000 C 
ATOM      7  C   UNL     1      -1.219  12.204  19.975  0.00  0.00    +0.000 C 
ENDROOT
BRANCH   4   8
ATOM      8  C   UNL     1      -5.660  12.398  19.184  0.00  0.00    +0.000 A 
ATOM      9  C   UNL     1      -5.913  12.230  20.555  0.00  0.00    +0.000 A 
ATOM     10  C   UNL     1      -6.740  13.103  21.260  0.00  0.00    +0.000 A 
ATOM     11  C   UNL     1      -7.426  14.093  20.575  0.00  0.00    +0.000 A 
ATOM     12  C   UNL     1      -7.305  14.185  19.189  0.00  0.00    +0.000 A 
ATOM     13  C   UNL     1      -6.435  13.337  18.471  0.00  0.00    +0.000 A 
ATOM     14  C   UNL     1      -6.403  13.467  16.972  0.00  0.00    +0.000 C 
ENDBRANCH   4   8
BRANCH   1  18
ATOM     15  C   UNL     1       2.167   8.176  18.737  0.00  0.00    +0.000 A 
ATOM     16  C   UNL     1       1.678   9.009  17.742  0.00  0.00    +0.000 A 
ATOM     17  C   UNL     1       0.590   9.841  17.996  0.00  0.00    +0.000 A 
ATOM     18  C   UNL     1      -0.002   9.902  19.263  0.00  0.00    +0.000 A 
ATOM     19  C   UNL     1       0.564   9.111  20.297  0.00  0.00    +0.000 A 
ATOM     20  C   UNL     1       1.633   8.244  20.023  0.00  0.00    +0.000 A 
BRANCH  15  22
ATOM     21  C   UNL     1       2.845   6.006  18.173  0.00  0.00    +0.000 C 
ATOM     22  O   UNL     1       3.211   7.369  18.373  0.00  0.00    +0.000 OA
ENDBRANCH  15  22
BRANCH  19  23
ATOM     23  O   UNL     1      -0.003   9.259  21.540  0.00  0.00    +0.000 OA
ATOM     24  C   UNL     1       0.848   9.338  22.677  0.00  0.00    +0.000 C 
ENDBRANCH  19  23
ENDBRANCH   1  18
BRANCH   7  25
ATOM     25  C   UNL     1      -0.237  13.165  19.330  0.00  0.00    +0.000 C 
ATOM     26  O   UNL     1      -0.416  13.648  18.223  0.00  0.00    +0.000 OA
ATOM     27  N   UNL     1       0.860  13.447  20.123  0.00  0.00    +0.000 N 
ATOM     28  H   UNL     1       0.934  13.028  21.043  0.00  0.00    +0.000 HD
BRANCH  27  29
ATOM     29  C   UNL     1       1.894  14.339  19.710  0.00  0.00    +0.000 C 
ATOM     30  C   UNL     1       3.272  14.229  20.308  0.00  0.00    +0.000 C 
ATOM     31  C   UNL     1       3.044  13.850  18.874  0.00  0.00    +0.000 C 
ENDBRANCH  27  29
ENDBRANCH   7  25
TORSDOF 6
ENDMDL
MODEL 6
REMARK VINA RESULT:      -6.3      0.554      1.338
REMARK  Name = 
REMARK  9 active torsions:
REMARK  status: ('A' for Active; 'I' for Inactive)
REMARK    1  A    between atoms: C_1  and  O_2
REMARK    2  A    between atoms: O_2  and  C_3
REMARK    3  A    between atoms: C_6  and  C_7
REMARK    4  A    between atoms: C_10  and  C_12
REMARK    5  A    between atoms: C_17  and  C_18
REMARK    6  A    between atoms: C_20  and  C_21
REMARK    7  A    between atoms: N_23  and  C_24
REMARK    8  A    between atoms: C_27  and  O_28
REMARK    9  A    between atoms: O_28  and  C_29
REMARK                            x       y       z     vdW  Elec       q    Type
REMARK                         _______ _______ _______ _____ _____    ______ ____
ROOT
ATOM      1  C   UNL     1      -2.283  12.765  20.349  0.00  0.00    +0.000 C 
ATOM      2  C   UNL     1      -2.756  12.132  21.663  0.00  0.00    +0.000 C 
ATOM      3  N   UNL     1      -3.948  12.916  21.971  0.00  0.00    +0.000 N 
ATOM      4  C   UNL     1      -4.373  13.099  23.283  0.00  0.00    +0.000 C 
ATOM      5  O   UNL     1      -3.817  12.540  24.230  0.00  0.00    +0.000 OA
ATOM      6  C   UNL     1      -4.633  13.247  20.721  0.00  0.00    +0.000 C 
ATOM      7  C   UNL     1      -3.603  13.044  19.594  0.00  0.00    +0.000 C 
ENDROOT
BRANCH   4   8
ATOM      8  C   UNL     1      -5.520  14.029  23.562  0.00  0.00    +0.000 A 
ATOM      9  C   UNL     1      -5.237  15.387  23.785  0.00  0.00    +0.000 A 
ATOM     10  C   UNL     1      -6.249  16.337  23.905  0.00  0.00    +0.000 A 
ATOM     11  C   UNL     1      -7.572  15.923  23.924  0.00  0.00    +0.000 A 
ATOM     12  C   UNL     1      -7.872  14.563  23.853  0.00  0.00    +0.000 A 
ATOM     13  C   UNL     1      -6.858  13.597  23.685  0.00  0.00    +0.000 A 
ATOM     14  C   UNL     1      -7.262  12.147  23.671  0.00  0.00    +0.000 C 
ENDBRANCH   4   8
BRANCH   1  18
ATOM     15  C   UNL     1       1.275  10.870  18.754  0.00  0.00    +0.000 A 
ATOM     16  C   UNL     1       0.207  10.091  19.174  0.00  0.00    +0.000 A 
ATOM     17  C   UNL     1      -0.946  10.691  19.675  0.00  0.00    +0.000 A 
ATOM     18  C   UNL     1      -1.084  12.084  19.717  0.00  0.00    +0.000 A 
ATOM     19  C   UNL     1      -0.021  12.870  19.201  0.00  0.00    +0.000 A 
ATOM     20  C   UNL     1       1.155  12.260  18.738  0.00  0.00    +0.000 A 
BRANCH  15  22
ATOM     21  C   UNL     1       2.078   8.895  17.785  0.00  0.00    +0.000 C 
ATOM     22  O   UNL     1       2.375  10.182  18.320  0.00  0.00    +0.000 OA
ENDBRANCH  15  22
BRANCH  19  23
ATOM     23  O   UNL     1      -0.232  14.228  19.195  0.00  0.00    +0.000 OA
ATOM     24  C   UNL     1       0.846  15.088  18.846  0.00  0.00    +0.000 C 
ENDBRANCH  19  23
ENDBRANCH   1  18
BRANCH   7  25
ATOM     25  C   UNL     1      -4.177  12.002  18.653  0.00  0.00    +0.000 C 
ATOM     26  O   UNL     1      -5.165  11.338  18.925  0.00  0.00    +0.000 OA
ATOM     27  N   UNL     1      -3.483  11.894  17.461  0.00  0.00    +0.000 N 
ATOM     28  H   UNL     1      -2.685  12.494  17.290  0.00  0.00    +0.000 HD
BRANCH  27  29
ATOM     29  C   UNL     1      -3.867  10.983  16.432  0.00  0.00    +0.000 C 
ATOM     30  C   UNL     1      -2.961  10.750  15.252  0.00  0.00    +0.000 C 
ATOM     31  C   UNL     1      -3.162   9.665  16.268  0.00  0.00    +0.000 C 
ENDBRANCH  27  29
ENDBRANCH   7  25
TORSDOF 6
ENDMDL
MODEL 7
REMARK VINA RESULT:      -6.3      4.041      6.119
REMARK  Name = 
REMARK  9 active torsions:
REMARK  status: ('A' for Active; 'I' for Inactive)
REMARK    1  A    between atoms: C_1  and  O_2
REMARK    2  A    between atoms: O_2  and  C_3
REMARK    3  A    between atoms: C_6  and  C_7
REMARK    4  A    between atoms: C_10  and  C_12
REMARK    5  A    between atoms: C_17  and  C_18
REMARK    6  A    between atoms: C_20  and  C_21
REMARK    7  A    between atoms: N_23  and  C_24
REMARK    8  A    between atoms: C_27  and  O_28
REMARK    9  A    between atoms: O_28  and  C_29
REMARK                            x       y       z     vdW  Elec       q    Type
REMARK                         _______ _______ _______ _____ _____    ______ ____
ROOT
ATOM      1  C   UNL     1       1.353  10.333  19.387  0.00  0.00    +0.000 C 
ATOM      2  C   UNL     1       1.125  11.310  20.545  0.00  0.00    +0.000 C 
ATOM      3  N   UNL     1       1.015  12.589  19.852  0.00  0.00    +0.000 N 
ATOM      4  C   UNL     1       1.366  13.783  20.477  0.00  0.00    +0.000 C 
ATOM      5  O   UNL     1       1.699  13.821  21.662  0.00  0.00    +0.000 OA
ATOM      6  C   UNL     1       0.331  12.379  18.575  0.00  0.00    +0.000 C 
ATOM      7  C   UNL     1       0.420  10.871  18.278  0.00  0.00    +0.000 C 
ENDROOT
BRANCH   4   8
ATOM      8  C   UNL     1       1.372  15.057  19.679  0.00  0.00    +0.000 A 
ATOM      9  C   UNL     1       2.582  15.471  19.098  0.00  0.00    +0.000 A 
ATOM     10  C   UNL     1       2.641  16.557  18.227  0.00  0.00    +0.000 A 
ATOM     11  C   UNL     1       1.507  17.324  18.016  0.00  0.00    +0.000 A 
ATOM     12  C   UNL     1       0.330  17.020  18.699  0.00  0.00    +0.000 A 
ATOM     13  C   UNL     1       0.245  15.896  19.548  0.00  0.00    +0.000 A 
ATOM     14  C   UNL     1      -1.045  15.668  20.288  0.00  0.00    +0.000 C 
ENDBRANCH   4   8
BRANCH   1  18
ATOM     15  C   UNL     1       1.761   6.205  20.646  0.00  0.00    +0.000 A 
ATOM     16  C   UNL     1       0.944   7.067  21.361  0.00  0.00    +0.000 A 
ATOM     17  C   UNL     1       0.795   8.392  20.956  0.00  0.00    +0.000 A 
ATOM     18  C   UNL     1       1.414   8.874  19.796  0.00  0.00    +0.000 A 
ATOM     19  C   UNL     1       2.175   7.958  19.023  0.00  0.00    +0.000 A 
ATOM     20  C   UNL     1       2.356   6.637  19.460  0.00  0.00    +0.000 A 
BRANCH  15  22
ATOM     21  C   UNL     1       1.069   3.974  20.476  0.00  0.00    +0.000 C 
ATOM     22  O   UNL     1       1.872   4.938  21.151  0.00  0.00    +0.000 OA
ENDBRANCH  15  22
BRANCH  19  23
ATOM     23  O   UNL     1       2.702   8.458  17.856  0.00  0.00    +0.000 OA
ATOM     24  C   UNL     1       3.738   7.732  17.205  0.00  0.00    +0.000 C 
ENDBRANCH  19  23
ENDBRANCH   1  18
BRANCH   7  25
ATOM     25  C   UNL     1      -1.004  10.358  18.166  0.00  0.00    +0.000 C 
ATOM     26  O   UNL     1      -1.662  10.019  19.137  0.00  0.00    +0.000 OA
ATOM     27  N   UNL     1      -1.479  10.328  16.867  0.00  0.00    +0.000 N 
ATOM     28  H   UNL     1      -0.885  10.647  16.110  0.00  0.00    +0.000 HD
BRANCH  27  29
ATOM     29  C   UNL     1      -2.798   9.893  16.544  0.00  0.00    +0.000 C 
ATOM     30  C   UNL     1      -3.839  10.890  16.110  0.00  0.00    +0.000 C 
ATOM     31  C   UNL     1      -3.287   9.905  15.123  0.00  0.00    +0.000 C 
ENDBRANCH  27  29
ENDBRANCH   7  25
TORSDOF 6
ENDMDL
MODEL 8
REMARK VINA RESULT:      -6.2      4.704     10.637
REMARK  Name = 
REMARK  9 active torsions:
REMARK  status: ('A' for Active; 'I' for Inactive)
REMARK    1  A    between atoms: C_1  and  O_2
REMARK    2  A    between atoms: O_2  and  C_3
REMARK    3  A    between atoms: C_6  and  C_7
REMARK    4  A    between atoms: C_10  and  C_12
REMARK    5  A    between atoms: C_17  and  C_18
REMARK    6  A    between atoms: C_20  and  C_21
REMARK    7  A    between atoms: N_23  and  C_24
REMARK    8  A    between atoms: C_27  and  O_28
REMARK    9  A    between atoms: O_28  and  C_29
REMARK                            x       y       z     vdW  Elec       q    Type
REMARK                         _______ _______ _______ _____ _____    ______ ____
ROOT
ATOM      1  C   UNL     1       2.024   8.597  19.025  0.00  0.00    +0.000 C 
ATOM      2  C   UNL     1       2.346   8.001  17.650  0.00  0.00    +0.000 C 
ATOM      3  N   UNL     1       3.551   7.225  17.924  0.00  0.00    +0.000 N 
ATOM      4  C   UNL     1       4.499   6.987  16.933  0.00  0.00    +0.000 C 
ATOM      5  O   UNL     1       4.322   7.344  15.767  0.00  0.00    +0.000 OA
ATOM      6  C   UNL     1       3.445   6.643  19.263  0.00  0.00    +0.000 C 
ATOM      7  C   UNL     1       2.353   7.441  19.999  0.00  0.00    +0.000 C 
ENDROOT
BRANCH   4   8
ATOM      8  C   UNL     1       5.789   6.307  17.297  0.00  0.00    +0.000 A 
ATOM      9  C   UNL     1       6.791   7.071  17.919  0.00  0.00    +0.000 A 
ATOM     10  C   UNL     1       7.953   6.486  18.417  0.00  0.00    +0.000 A 
ATOM     11  C   UNL     1       8.188   5.139  18.193  0.00  0.00    +0.000 A 
ATOM     12  C   UNL     1       7.276   4.393  17.448  0.00  0.00    +0.000 A 
ATOM     13  C   UNL     1       6.074   4.962  16.978  0.00  0.00    +0.000 A 
ATOM     14  C   UNL     1       5.168   4.103  16.137  0.00  0.00    +0.000 C 
ENDBRANCH   4   8
BRANCH   1  18
ATOM     15  C   UNL     1      -1.514  11.098  19.153  0.00  0.00    +0.000 A 
ATOM     16  C   UNL     1      -1.246  10.338  18.024  0.00  0.00    +0.000 A 
ATOM     17  C   UNL     1      -0.120   9.520  17.980  0.00  0.00    +0.000 A 
ATOM     18  C   UNL     1       0.738   9.398  19.080  0.00  0.00    +0.000 A 
ATOM     19  C   UNL     1       0.404  10.112  20.261  0.00  0.00    +0.000 A 
ATOM     20  C   UNL     1      -0.708  10.966  20.284  0.00  0.00    +0.000 A 
BRANCH  15  22
ATOM     21  C   UNL     1      -3.626  11.415  18.193  0.00  0.00    +0.000 C 
ATOM     22  O   UNL     1      -2.621  11.899  19.079  0.00  0.00    +0.000 OA
ENDBRANCH  15  22
BRANCH  19  23
ATOM     23  O   UNL     1       1.233   9.904  21.337  0.00  0.00    +0.000 OA
ATOM     24  C   UNL     1       0.653   9.616  22.604  0.00  0.00    +0.000 C 
ENDBRANCH  19  23
ENDBRANCH   1  18
BRANCH   7  25
ATOM     25  C   UNL     1       1.274   6.451  20.397  0.00  0.00    +0.000 C 
ATOM     26  O   UNL     1       0.214   6.795  20.895  0.00  0.00    +0.000 OA
ATOM     27  N   UNL     1       1.606   5.136  20.128  0.00  0.00    +0.000 N 
ATOM     28  H   UNL     1       2.496   4.923  19.691  0.00  0.00    +0.000 HD
BRANCH  27  29
ATOM     29  C   UNL     1       0.725   4.051  20.412  0.00  0.00    +0.000 C 
ATOM     30  C   UNL     1       0.827   2.768  19.629  0.00  0.00    +0.000 C 
ATOM     31  C   UNL     1       1.232   2.800  21.074  0.00  0.00    +0.000 C 
ENDBRANCH  27  29
ENDBRANCH   7  25
TORSDOF 6
ENDMDL
MODEL 9
REMARK VINA RESULT:      -6.2      3.343      9.092
REMARK  Name = 
REMARK  9 active torsions:
REMARK  status: ('A' for Active; 'I' for Inactive)
REMARK    1  A    between atoms: C_1  and  O_2
REMARK    2  A    between atoms: O_2  and  C_3
REMARK    3  A    between atoms: C_6  and  C_7
REMARK    4  A    between atoms: C_10  and  C_12
REMARK    5  A    between atoms: C_17  and  C_18
REMARK    6  A    between atoms: C_20  and  C_21
REMARK    7  A    between atoms: N_23  and  C_24
REMARK    8  A    between atoms: C_27  and  O_28
REMARK    9  A    between atoms: O_28  and  C_29
REMARK                            x       y       z     vdW  Elec       q    Type
REMARK                         _______ _______ _______ _____ _____    ______ ____
ROOT
ATOM      1  C   UNL     1       0.349   9.444  19.561  0.00  0.00    +0.000 C 
ATOM      2  C   UNL     1       1.288   8.626  20.454  0.00  0.00    +0.000 C 
ATOM      3  N   UNL     1       1.810   7.631  19.524  0.00  0.00    +0.000 N 
ATOM      4  C   UNL     1       2.227   6.378  19.964  0.00  0.00    +0.000 C 
ATOM      5  O   UNL     1       2.256   6.088  21.161  0.00  0.00    +0.000 OA
ATOM      6  C   UNL     1       1.974   8.252  18.209  0.00  0.00    +0.000 C 
ATOM      7  C   UNL     1       1.118   9.531  18.222  0.00  0.00    +0.000 C 
ENDROOT
BRANCH   4   8
ATOM      8  C   UNL     1       2.622   5.337  18.955  0.00  0.00    +0.000 A 
ATOM      9  C   UNL     1       1.616   4.517  18.416  0.00  0.00    +0.000 A 
ATOM     10  C   UNL     1       1.874   3.631  17.373  0.00  0.00    +0.000 A 
ATOM     11  C   UNL     1       3.176   3.461  16.930  0.00  0.00    +0.000 A 
ATOM     12  C   UNL     1       4.214   4.155  17.551  0.00  0.00    +0.000 A 
ATOM     13  C   UNL     1       3.959   5.090  18.577  0.00  0.00    +0.000 A 
ATOM     14  C   UNL     1       5.139   5.757  19.231  0.00  0.00    +0.000 C 
ENDBRANCH   4   8
BRANCH   1  18
ATOM     15  C   UNL     1      -1.643  12.709  21.602  0.00  0.00    +0.000 A 
ATOM     16  C   UNL     1      -0.437  12.224  22.087  0.00  0.00    +0.000 A 
ATOM     17  C   UNL     1       0.217  11.185  21.429  0.00  0.00    +0.000 A 
ATOM     18  C   UNL     1      -0.286  10.641  20.242  0.00  0.00    +0.000 A 
ATOM     19  C   UNL     1      -1.473  11.206  19.707  0.00  0.00    +0.000 A 
ATOM     20  C   UNL     1      -2.150  12.223  20.397  0.00  0.00    +0.000 A 
BRANCH  15  22
ATOM     21  C   UNL     1      -1.539  13.989  23.560  0.00  0.00    +0.000 C 
ATOM     22  O   UNL     1      -2.224  13.700  22.344  0.00  0.00    +0.000 OA
ENDBRANCH  15  22
BRANCH  19  23
ATOM     23  O   UNL     1      -1.889  10.690  18.502  0.00  0.00    +0.000 OA
ATOM     24  C   UNL     1      -2.591  11.536  17.600  0.00  0.00    +0.000 C 
ENDBRANCH  19  23
ENDBRANCH   1  18
BRANCH   7  25
ATOM     25  C   UNL     1       2.056  10.694  17.958  0.00  0.00    +0.000 C 
ATOM     26  O   UNL     1       3.180  10.546  17.504  0.00  0.00    +0.000 OA
ATOM     27  N   UNL     1       1.507  11.926  18.266  0.00  0.00    +0.000 N 
ATOM     28  H   UNL     1       0.558  11.977  18.618  0.00  0.00    +0.000 HD
BRANCH  27  29
ATOM     29  C   UNL     1       2.217  13.149  18.077  0.00  0.00    +0.000 C 
ATOM     30  C   UNL     1       1.694  14.427  18.677  0.00  0.00    +0.000 C 
ATOM     31  C   UNL     1       2.944  13.801  19.220  0.00  0.00    +0.000 C 
ENDBRANCH  27  29
ENDBRANCH   7  25
TORSDOF 6
ENDMDL
