MODEL 1
REMARK VINA RESULT:      -6.7      0.000      0.000
REMARK  Name = 
REMARK  10 active torsions:
REMARK  status: ('A' for Active; 'I' for Inactive)
REMARK    1  A    between atoms: C_1  and  N_2
REMARK    2  A    between atoms: N_2  and  C_3
REMARK    3  A    between atoms: N_2  and  C_4
REMARK    4  A    between atoms: C_4  and  C_5
REMARK    5  A    between atoms: C_5  and  N_6
REMARK    6  A    between atoms: C_7  and  C_9
REMARK    7  A    between atoms: C_9  and  C_10
REMARK    8  A    between atoms: C_11  and  C_12
REMARK    9  A    between atoms: C_12  and  O_14
REMARK   10  A    between atoms: N_15  and  C_16
REMARK                            x       y       z     vdW  Elec       q    Type
REMARK                         _______ _______ _______ _____ _____    ______ ____
ROOT
ATOM      1  C   UNL     1       4.433   5.064  18.158  0.00  0.00    +0.000 A 
ATOM      2  C   UNL     1       5.350   4.311  18.901  0.00  0.00    +0.000 A 
ATOM      3  N   UNL     1       4.658   3.203  19.367  0.00  0.00    +0.000 N 
ATOM      4  C   UNL     1       5.134   2.159  20.257  0.00  0.00    +0.000 C 
ATOM      5  C   UNL     1       3.339   3.229  18.942  0.00  0.00    +0.000 A 
ATOM      6  C   UNL     1       2.276   2.336  19.176  0.00  0.00    +0.000 A 
ATOM      7  C   UNL     1       1.021   2.649  18.646  0.00  0.00    +0.000 A 
ATOM      8  C   UNL     1       0.829   3.810  17.908  0.00  0.00    +0.000 A 
ATOM      9  C   UNL     1       1.894   4.683  17.673  0.00  0.00    +0.000 A 
ATOM     10  C   UNL     1       3.172   4.391  18.200  0.00  0.00    +0.000 A 
ENDROOT
BRANCH   2  11
ATOM     11  C   UNL     1       6.725   4.697  19.170  0.00  0.00    +0.000 C 
ATOM     12  O   UNL     1       7.090   5.411  20.092  0.00  0.00    +0.000 OA
BRANCH  11  13
ATOM     13  O   UNL     1       7.598   4.248  18.243  0.00  0.00    +0.000 OA
ATOM     14  H   UNL     1       7.517   3.288  18.089  0.00  0.00    +0.000 HD
ENDBRANCH  11  13
ENDBRANCH   2  11
BRANCH   1  15
ATOM     15  C   UNL     1       4.679   6.364  17.446  0.00  0.00    +0.000 C 
BRANCH  15  17
ATOM     16  N   UNL     1       5.945   4.982  15.871  0.00  0.00    +0.000 N 
ATOM     17  C   UNL     1       5.226   6.147  16.047  0.00  0.00    +0.000 C 
ATOM     18  O   UNL     1       5.049   6.961  15.141  0.00  0.00    +0.000 OA
ATOM     19  H   UNL     1       5.913   4.249  16.573  0.00  0.00    +0.000 HD
BRANCH  16  20
ATOM     20  C   UNL     1       6.512   4.665  14.575  0.00  0.00    +0.000 C 
BRANCH  20  21
ATOM     21  C   UNL     1       5.701   3.623  13.785  0.00  0.00    +0.000 C 
BRANCH  21  23
ATOM     22  C   UNL     1       7.225   4.080  11.940  0.00  0.00    +0.000 C 
ATOM     23  N   UNL     1       5.862   3.694  12.314  0.00  0.00    +0.000 NA
ATOM     24  C   UNL     1       5.552   2.385  11.725  0.00  0.00    +0.000 C 
ENDBRANCH  21  23
ENDBRANCH  20  21
ENDBRANCH  16  20
ENDBRANCH  15  17
ENDBRANCH   1  15
TORSDOF 7
ENDMDL
MODEL 2
REMARK VINA RESULT:      -6.6      2.907      4.400
REMARK  Name = 
REMARK  10 active torsions:
REMARK  status: ('A' for Active; 'I' for Inactive)
REMARK    1  A    between atoms: C_1  and  N_2
REMARK    2  A    between atoms: N_2  and  C_3
REMARK    3  A    between atoms: N_2  and  C_4
REMARK    4  A    between atoms: C_4  and  C_5
REMARK    5  A    between atoms: C_5  and  N_6
REMARK    6  A    between atoms: C_7  and  C_9
REMARK    7  A    between atoms: C_9  and  C_10
REMARK    8  A    between atoms: C_11  and  C_12
REMARK    9  A    between atoms: C_12  and  O_14
REMARK   10  A    between atoms: N_15  and  C_16
REMARK                            x       y       z     vdW  Elec       q    Type
REMARK                         _______ _______ _______ _____ _____    ______ ____
ROOT
ATOM      1  C   UNL     1       3.563   4.339  18.096  0.00  0.00    +0.000 A 
ATOM      2  C   UNL     1       3.377   3.441  19.154  0.00  0.00    +0.000 A 
ATOM      3  N   UNL     1       2.737   4.151  20.160  0.00  0.00    +0.000 N 
ATOM      4  C   UNL     1       2.396   3.699  21.496  0.00  0.00    +0.000 C 
ATOM      5  C   UNL     1       2.510   5.462  19.771  0.00  0.00    +0.000 A 
ATOM      6  C   UNL     1       1.911   6.536  20.455  0.00  0.00    +0.000 A 
ATOM      7  C   UNL     1       1.858   7.779  19.818  0.00  0.00    +0.000 A 
ATOM      8  C   UNL     1       2.383   7.948  18.543  0.00  0.00    +0.000 A 
ATOM      9  C   UNL     1       2.966   6.872  17.869  0.00  0.00    +0.000 A 
ATOM     10  C   UNL     1       3.034   5.606  18.493  0.00  0.00    +0.000 A 
ENDROOT
BRANCH   2  11
ATOM     11  C   UNL     1       3.852   2.068  19.179  0.00  0.00    +0.000 C 
ATOM     12  O   UNL     1       3.281   1.114  18.672  0.00  0.00    +0.000 OA
BRANCH  11  13
ATOM     13  O   UNL     1       4.984   1.906  19.899  0.00  0.00    +0.000 OA
ATOM     14  H   UNL     1       5.086   0.995  20.232  0.00  0.00    +0.000 HD
ENDBRANCH  11  13
ENDBRANCH   2  11
BRANCH   1  15
ATOM     15  C   UNL     1       4.218   4.069  16.770  0.00  0.00    +0.000 C 
BRANCH  15  17
ATOM     16  N   UNL     1       6.200   4.749  18.036  0.00  0.00    +0.000 N 
ATOM     17  C   UNL     1       5.709   4.352  16.809  0.00  0.00    +0.000 C 
ATOM     18  O   UNL     1       6.421   4.247  15.811  0.00  0.00    +0.000 OA
ATOM     19  H   UNL     1       5.635   4.644  18.873  0.00  0.00    +0.000 HD
BRANCH  16  20
ATOM     20  C   UNL     1       7.611   5.042  18.195  0.00  0.00    +0.000 C 
BRANCH  20  21
ATOM     21  C   UNL     1       7.892   6.465  18.709  0.00  0.00    +0.000 C 
BRANCH  21  23
ATOM     22  C   UNL     1       6.451   7.767  17.238  0.00  0.00    +0.000 C 
ATOM     23  N   UNL     1       7.828   7.524  17.676  0.00  0.00    +0.000 NA
ATOM     24  C   UNL     1       8.390   8.768  18.216  0.00  0.00    +0.000 C 
ENDBRANCH  21  23
ENDBRANCH  20  21
ENDBRANCH  16  20
ENDBRANCH  15  17
ENDBRANCH   1  15
TORSDOF 7
ENDMDL
MODEL 3
REMARK VINA RESULT:      -6.4      3.551      5.169
REMARK  Name = 
REMARK  10 active torsions:
REMARK  status: ('A' for Active; 'I' for Inactive)
REMARK    1  A    between atoms: C_1  and  N_2
REMARK    2  A    between atoms: N_2  and  C_3
REMARK    3  A    between atoms: N_2  and  C_4
REMARK    4  A    between atoms: C_4  and  C_5
REMARK    5  A    between atoms: C_5  and  N_6
REMARK    6  A    between atoms: C_7  and  C_9
REMARK    7  A    between atoms: C_9  and  C_10
REMARK    8  A    between atoms: C_11  and  C_12
REMARK    9  A    between atoms: C_12  and  O_14
REMARK   10  A    between atoms: N_15  and  C_16
REMARK                            x       y       z     vdW  Elec       q    Type
REMARK                         _______ _______ _______ _____ _____    ______ ____
ROOT
ATOM      1  C   UNL     1       4.266   5.577  17.551  0.00  0.00    +0.000 A 
ATOM      2  C   UNL     1       4.520   4.284  17.078  0.00  0.00    +0.000 A 
ATOM      3  N   UNL     1       3.715   3.432  17.821  0.00  0.00    +0.000 N 
ATOM      4  C   UNL     1       3.669   1.982  17.778  0.00  0.00    +0.000 C 
ATOM      5  C   UNL     1       2.961   4.143  18.740  0.00  0.00    +0.000 A 
ATOM      6  C   UNL     1       2.028   3.708  19.701  0.00  0.00    +0.000 A 
ATOM      7  C   UNL     1       1.444   4.664  20.536  0.00  0.00    +0.000 A 
ATOM      8  C   UNL     1       1.775   6.008  20.420  0.00  0.00    +0.000 A 
ATOM      9  C   UNL     1       2.695   6.429  19.456  0.00  0.00    +0.000 A 
ATOM     10  C   UNL     1       3.301   5.482  18.602  0.00  0.00    +0.000 A 
ENDROOT
BRANCH   2  11
ATOM     11  C   UNL     1       5.504   3.943  16.064  0.00  0.00    +0.000 C 
ATOM     12  O   UNL     1       5.256   3.702  14.893  0.00  0.00    +0.000 OA
BRANCH  11  13
ATOM     13  O   UNL     1       6.759   3.834  16.552  0.00  0.00    +0.000 OA
ATOM     14  H   UNL     1       7.358   4.517  16.194  0.00  0.00    +0.000 HD
ENDBRANCH  11  13
ENDBRANCH   2  11
BRANCH   1  15
ATOM     15  C   UNL     1       4.888   6.862  17.083  0.00  0.00    +0.000 C 
BRANCH  15  17
ATOM     16  N   UNL     1       6.896   8.244  17.311  0.00  0.00    +0.000 N 
ATOM     17  C   UNL     1       6.259   7.082  17.696  0.00  0.00    +0.000 C 
ATOM     18  O   UNL     1       6.768   6.271  18.469  0.00  0.00    +0.000 OA
ATOM     19  H   UNL     1       6.382   8.975  16.829  0.00  0.00    +0.000 HD
BRANCH  16  20
ATOM     20  C   UNL     1       8.210   8.562  17.836  0.00  0.00    +0.000 C 
BRANCH  20  21
ATOM     21  C   UNL     1       8.408  10.058  18.138  0.00  0.00    +0.000 C 
BRANCH  21  23
ATOM     22  C   UNL     1      10.421  11.429  18.080  0.00  0.00    +0.000 C 
ATOM     23  N   UNL     1       9.684  10.394  18.810  0.00  0.00    +0.000 NA
ATOM     24  C   UNL     1       9.408  10.868  20.172  0.00  0.00    +0.000 C 
ENDBRANCH  21  23
ENDBRANCH  20  21
ENDBRANCH  16  20
ENDBRANCH  15  17
ENDBRANCH   1  15
TORSDOF 7
ENDMDL
MODEL 4
REMARK VINA RESULT:      -6.4      3.673      5.340
REMARK  Name = 
REMARK  10 active torsions:
REMARK  status: ('A' for Active; 'I' for Inactive)
REMARK    1  A    between atoms: C_1  and  N_2
REMARK    2  A    between atoms: N_2  and  C_3
REMARK    3  A    between atoms: N_2  and  C_4
REMARK    4  A    between atoms: C_4  and  C_5
REMARK    5  A    between atoms: C_5  and  N_6
REMARK    6  A    between atoms: C_7  and  C_9
REMARK    7  A    between atoms: C_9  and  C_10
REMARK    8  A    between atoms: C_11  and  C_12
REMARK    9  A    between atoms: C_12  and  O_14
REMARK   10  A    between atoms: N_15  and  C_16
REMARK                            x       y       z     vdW  Elec       q    Type
REMARK                         _______ _______ _______ _____ _____    ______ ____
ROOT
ATOM      1  C   UNL     1       4.218   6.270  17.547  0.00  0.00    +0.000 A 
ATOM      2  C   UNL     1       4.183   5.218  18.470  0.00  0.00    +0.000 A 
ATOM      3  N   UNL     1       3.241   5.570  19.426  0.00  0.00    +0.000 N 
ATOM      4  C   UNL     1       2.892   4.858  20.642  0.00  0.00    +0.000 C 
ATOM      5  C   UNL     1       2.680   6.803  19.136  0.00  0.00    +0.000 A 
ATOM      6  C   UNL     1       1.706   7.557  19.818  0.00  0.00    +0.000 A 
ATOM      7  C   UNL     1       1.360   8.810  19.305  0.00  0.00    +0.000 A 
ATOM      8  C   UNL     1       1.961   9.297  18.151  0.00  0.00    +0.000 A 
ATOM      9  C   UNL     1       2.919   8.535  17.476  0.00  0.00    +0.000 A 
ATOM     10  C   UNL     1       3.287   7.267  17.977  0.00  0.00    +0.000 A 
ENDROOT
BRANCH   2  11
ATOM     11  C   UNL     1       5.042   4.047  18.436  0.00  0.00    +0.000 C 
ATOM     12  O   UNL     1       6.156   3.973  18.933  0.00  0.00    +0.000 OA
BRANCH  11  13
ATOM     13  O   UNL     1       4.526   3.025  17.720  0.00  0.00    +0.000 OA
ATOM     14  H   UNL     1       5.203   2.371  17.462  0.00  0.00    +0.000 HD
ENDBRANCH  11  13
ENDBRANCH   2  11
BRANCH   1  15
ATOM     15  C   UNL     1       5.081   6.385  16.322  0.00  0.00    +0.000 C 
BRANCH  15  17
ATOM     16  N   UNL     1       6.690   7.875  17.409  0.00  0.00    +0.000 N 
ATOM     17  C   UNL     1       6.519   6.720  16.672  0.00  0.00    +0.000 C 
ATOM     18  O   UNL     1       7.461   6.018  16.311  0.00  0.00    +0.000 OA
ATOM     19  H   UNL     1       5.894   8.325  17.849  0.00  0.00    +0.000 HD
BRANCH  16  20
ATOM     20  C   UNL     1       8.020   8.294  17.807  0.00  0.00    +0.000 C 
BRANCH  20  21
ATOM     21  C   UNL     1       8.209   9.821  17.817  0.00  0.00    +0.000 C 
BRANCH  21  23
ATOM     22  C   UNL     1       9.888  11.582  17.915  0.00  0.00    +0.000 C 
ATOM     23  N   UNL     1       9.461  10.288  18.454  0.00  0.00    +0.000 NA
ATOM     24  C   UNL     1       9.255  10.413  19.902  0.00  0.00    +0.000 C 
ENDBRANCH  21  23
ENDBRANCH  20  21
ENDBRANCH  16  20
ENDBRANCH  15  17
ENDBRANCH   1  15
TORSDOF 7
ENDMDL
MODEL 5
REMARK VINA RESULT:      -6.3      1.779      3.066
REMARK  Name = 
REMARK  10 active torsions:
REMARK  status: ('A' for Active; 'I' for Inactive)
REMARK    1  A    between atoms: C_1  and  N_2
REMARK    2  A    between atoms: N_2  and  C_3
REMARK    3  A    between atoms: N_2  and  C_4
REMARK    4  A    between atoms: C_4  and  C_5
REMARK    5  A    between atoms: C_5  and  N_6
REMARK    6  A    between atoms: C_7  and  C_9
REMARK    7  A    between atoms: C_9  and  C_10
REMARK    8  A    between atoms: C_11  and  C_12
REMARK    9  A    between atoms: C_12  and  O_14
REMARK   10  A    between atoms: N_15  and  C_16
REMARK                            x       y       z     vdW  Elec       q    Type
REMARK                         _______ _______ _______ _____ _____    ______ ____
ROOT
ATOM      1  C   UNL     1       4.854   4.708  18.614  0.00  0.00    +0.000 A 
ATOM      2  C   UNL     1       4.007   3.631  18.903  0.00  0.00    +0.000 A 
ATOM      3  N   UNL     1       2.712   4.094  18.722  0.00  0.00    +0.000 N 
ATOM      4  C   UNL     1       1.467   3.392  18.976  0.00  0.00    +0.000 C 
ATOM      5  C   UNL     1       2.713   5.421  18.325  0.00  0.00    +0.000 A 
ATOM      6  C   UNL     1       1.651   6.300  18.040  0.00  0.00    +0.000 A 
ATOM      7  C   UNL     1       1.958   7.621  17.701  0.00  0.00    +0.000 A 
ATOM      8  C   UNL     1       3.277   8.053  17.645  0.00  0.00    +0.000 A 
ATOM      9  C   UNL     1       4.324   7.169  17.920  0.00  0.00    +0.000 A 
ATOM     10  C   UNL     1       4.039   5.831  18.269  0.00  0.00    +0.000 A 
ENDROOT
BRANCH   2  11
ATOM     11  C   UNL     1       4.443   2.328  19.376  0.00  0.00    +0.000 C 
ATOM     12  O   UNL     1       4.990   2.112  20.447  0.00  0.00    +0.000 OA
BRANCH  11  13
ATOM     13  O   UNL     1       4.258   1.341  18.472  0.00  0.00    +0.000 OA
ATOM     14  H   UNL     1       3.800   1.653  17.668  0.00  0.00    +0.000 HD
ENDBRANCH  11  13
ENDBRANCH   2  11
BRANCH   1  15
ATOM     15  C   UNL     1       6.356   4.732  18.666  0.00  0.00    +0.000 C 
BRANCH  15  17
ATOM     16  N   UNL     1       6.133   4.847  16.232  0.00  0.00    +0.000 N 
ATOM     17  C   UNL     1       6.972   4.562  17.290  0.00  0.00    +0.000 C 
ATOM     18  O   UNL     1       8.131   4.183  17.134  0.00  0.00    +0.000 OA
ATOM     19  H   UNL     1       5.256   5.334  16.389  0.00  0.00    +0.000 HD
BRANCH  16  20
ATOM     20  C   UNL     1       6.614   4.725  14.869  0.00  0.00    +0.000 C 
BRANCH  20  21
ATOM     21  C   UNL     1       5.611   4.045  13.920  0.00  0.00    +0.000 C 
BRANCH  21  23
ATOM     22  C   UNL     1       5.200   2.974  11.771  0.00  0.00    +0.000 C 
ATOM     23  N   UNL     1       6.219   3.391  12.738  0.00  0.00    +0.000 NA
ATOM     24  C   UNL     1       7.148   4.324  12.088  0.00  0.00    +0.000 C 
ENDBRANCH  21  23
ENDBRANCH  20  21
ENDBRANCH  16  20
ENDBRANCH  15  17
ENDBRANCH   1  15
TORSDOF 7
ENDMDL
MODEL 6
REMARK VINA RESULT:      -6.3      2.781      5.769
REMARK  Name = 
REMARK  10 active torsions:
REMARK  status: ('A' for Active; 'I' for Inactive)
REMARK    1  A    between atoms: C_1  and  N_2
REMARK    2  A    between atoms: N_2  and  C_3
REMARK    3  A    between atoms: N_2  and  C_4
REMARK    4  A    between atoms: C_4  and  C_5
REMARK    5  A    between atoms: C_5  and  N_6
REMARK    6  A    between atoms: C_7  and  C_9
REMARK    7  A    between atoms: C_9  and  C_10
REMARK    8  A    between atoms: C_11  and  C_12
REMARK    9  A    between atoms: C_12  and  O_14
REMARK   10  A    between atoms: N_15  and  C_16
REMARK                            x       y       z     vdW  Elec       q    Type
REMARK                         _______ _______ _______ _____ _____    ______ ____
ROOT
ATOM      1  C   UNL     1       4.867   4.730  17.234  0.00  0.00    +0.000 A 
ATOM      2  C   UNL     1       6.126   5.335  17.141  0.00  0.00    +0.000 A 
ATOM      3  N   UNL     1       5.923   6.692  17.349  0.00  0.00    +0.000 N 
ATOM      4  C   UNL     1       6.898   7.765  17.270  0.00  0.00    +0.000 C 
ATOM      5  C   UNL     1       4.583   6.961  17.574  0.00  0.00    +0.000 A 
ATOM      6  C   UNL     1       3.914   8.176  17.817  0.00  0.00    +0.000 A 
ATOM      7  C   UNL     1       2.525   8.148  17.965  0.00  0.00    +0.000 A 
ATOM      8  C   UNL     1       1.823   6.952  17.877  0.00  0.00    +0.000 A 
ATOM      9  C   UNL     1       2.499   5.751  17.646  0.00  0.00    +0.000 A 
ATOM     10  C   UNL     1       3.903   5.753  17.489  0.00  0.00    +0.000 A 
ENDROOT
BRANCH   2  11
ATOM     11  C   UNL     1       7.363   4.647  16.808  0.00  0.00    +0.000 C 
ATOM     12  O   UNL     1       7.834   4.545  15.685  0.00  0.00    +0.000 OA
BRANCH  11  13
ATOM     13  O   UNL     1       7.938   4.038  17.867  0.00  0.00    +0.000 OA
ATOM     14  H   UNL     1       8.634   3.407  17.602  0.00  0.00    +0.000 HD
ENDBRANCH  11  13
ENDBRANCH   2  11
BRANCH   1  15
ATOM     15  C   UNL     1       4.538   3.271  17.079  0.00  0.00    +0.000 C 
BRANCH  15  17
ATOM     16  N   UNL     1       2.457   2.447  18.068  0.00  0.00    +0.000 N 
ATOM     17  C   UNL     1       3.791   2.729  18.283  0.00  0.00    +0.000 C 
ATOM     18  O   UNL     1       4.336   2.569  19.374  0.00  0.00    +0.000 OA
ATOM     19  H   UNL     1       2.086   2.409  17.124  0.00  0.00    +0.000 HD
BRANCH  16  20
ATOM     20  C   UNL     1       1.642   1.919  19.146  0.00  0.00    +0.000 C 
BRANCH  20  21
ATOM     21  C   UNL     1       0.727   2.970  19.798  0.00  0.00    +0.000 C 
BRANCH  21  23
ATOM     22  C   UNL     1       1.984   2.441  21.817  0.00  0.00    +0.000 C 
ATOM     23  N   UNL     1       1.177   3.450  21.125  0.00  0.00    +0.000 NA
ATOM     24  C   UNL     1       1.973   4.672  20.957  0.00  0.00    +0.000 C 
ENDBRANCH  21  23
ENDBRANCH  20  21
ENDBRANCH  16  20
ENDBRANCH  15  17
ENDBRANCH   1  15
TORSDOF 7
ENDMDL
MODEL 7
REMARK VINA RESULT:      -6.3      2.789      4.333
REMARK  Name = 
REMARK  10 active torsions:
REMARK  status: ('A' for Active; 'I' for Inactive)
REMARK    1  A    between atoms: C_1  and  N_2
REMARK    2  A    between atoms: N_2  and  C_3
REMARK    3  A    between atoms: N_2  and  C_4
REMARK    4  A    between atoms: C_4  and  C_5
REMARK    5  A    between atoms: C_5  and  N_6
REMARK    6  A    between atoms: C_7  and  C_9
REMARK    7  A    between atoms: C_9  and  C_10
REMARK    8  A    between atoms: C_11  and  C_12
REMARK    9  A    between atoms: C_12  and  O_14
REMARK   10  A    between atoms: N_15  and  C_16
REMARK                            x       y       z     vdW  Elec       q    Type
REMARK                         _______ _______ _______ _____ _____    ______ ____
ROOT
ATOM      1  C   UNL     1       3.049   4.421  17.955  0.00  0.00    +0.000 A 
ATOM      2  C   UNL     1       2.940   3.612  19.092  0.00  0.00    +0.000 A 
ATOM      3  N   UNL     1       2.513   4.439  20.120  0.00  0.00    +0.000 N 
ATOM      4  C   UNL     1       2.329   4.104  21.521  0.00  0.00    +0.000 C 
ATOM      5  C   UNL     1       2.346   5.739  19.671  0.00  0.00    +0.000 A 
ATOM      6  C   UNL     1       1.945   6.906  20.349  0.00  0.00    +0.000 A 
ATOM      7  C   UNL     1       1.909   8.107  19.635  0.00  0.00    +0.000 A 
ATOM      8  C   UNL     1       2.258   8.147  18.291  0.00  0.00    +0.000 A 
ATOM      9  C   UNL     1       2.645   6.981  17.625  0.00  0.00    +0.000 A 
ATOM     10  C   UNL     1       2.692   5.755  18.326  0.00  0.00    +0.000 A 
ENDROOT
BRANCH   2  11
ATOM     11  C   UNL     1       3.294   2.203  19.153  0.00  0.00    +0.000 C 
ATOM     12  O   UNL     1       2.503   1.274  19.107  0.00  0.00    +0.000 OA
BRANCH  11  13
ATOM     13  O   UNL     1       4.614   1.992  19.348  0.00  0.00    +0.000 OA
ATOM     14  H   UNL     1       4.873   2.091  20.285  0.00  0.00    +0.000 HD
ENDBRANCH  11  13
ENDBRANCH   2  11
BRANCH   1  15
ATOM     15  C   UNL     1       3.483   4.010  16.576  0.00  0.00    +0.000 C 
BRANCH  15  17
ATOM     16  N   UNL     1       5.839   4.122  17.230  0.00  0.00    +0.000 N 
ATOM     17  C   UNL     1       4.902   4.456  16.273  0.00  0.00    +0.000 C 
ATOM     18  O   UNL     1       5.188   5.082  15.254  0.00  0.00    +0.000 OA
ATOM     19  H   UNL     1       5.614   3.450  17.956  0.00  0.00    +0.000 HD
BRANCH  16  20
ATOM     20  C   UNL     1       7.229   4.491  17.046  0.00  0.00    +0.000 C 
BRANCH  20  21
ATOM     21  C   UNL     1       7.446   6.003  16.854  0.00  0.00    +0.000 C 
BRANCH  21  23
ATOM     22  C   UNL     1       8.025   6.149  19.215  0.00  0.00    +0.000 C 
ATOM     23  N   UNL     1       7.351   6.807  18.093  0.00  0.00    +0.000 NA
ATOM     24  C   UNL     1       7.961   8.124  17.868  0.00  0.00    +0.000 C 
ENDBRANCH  21  23
ENDBRANCH  20  21
ENDBRANCH  16  20
ENDBRANCH  15  17
ENDBRANCH   1  15
TORSDOF 7
ENDMDL
MODEL 8
REMARK VINA RESULT:      -6.3      4.380      7.202
REMARK  Name = 
REMARK  10 active torsions:
REMARK  status: ('A' for Active; 'I' for Inactive)
REMARK    1  A    between atoms: C_1  and  N_2
REMARK    2  A    between atoms: N_2  and  C_3
REMARK    3  A    between atoms: N_2  and  C_4
REMARK    4  A    between atoms: C_4  and  C_5
REMARK    5  A    between atoms: C_5  and  N_6
REMARK    6  A    between atoms: C_7  and  C_9
REMARK    7  A    between atoms: C_9  and  C_10
REMARK    8  A    between atoms: C_11  and  C_12
REMARK    9  A    between atoms: C_12  and  O_14
REMARK   10  A    between atoms: N_15  and  C_16
REMARK                            x       y       z     vdW  Elec       q    Type
REMARK                         _______ _______ _______ _____ _____    ______ ____
ROOT
ATOM      1  C   UNL     1       3.212   5.885  18.153  0.00  0.00    +0.000 A 
ATOM      2  C   UNL     1       2.956   4.663  18.787  0.00  0.00    +0.000 A 
ATOM      3  N   UNL     1       4.190   4.058  18.980  0.00  0.00    +0.000 N 
ATOM      4  C   UNL     1       4.464   2.738  19.519  0.00  0.00    +0.000 C 
ATOM      5  C   UNL     1       5.212   4.856  18.493  0.00  0.00    +0.000 A 
ATOM      6  C   UNL     1       6.605   4.652  18.458  0.00  0.00    +0.000 A 
ATOM      7  C   UNL     1       7.402   5.628  17.854  0.00  0.00    +0.000 A 
ATOM      8  C   UNL     1       6.834   6.770  17.304  0.00  0.00    +0.000 A 
ATOM      9  C   UNL     1       5.451   6.967  17.354  0.00  0.00    +0.000 A 
ATOM     10  C   UNL     1       4.624   5.993  17.956  0.00  0.00    +0.000 A 
ENDROOT
BRANCH   2  11
ATOM     11  C   UNL     1       1.635   4.139  19.090  0.00  0.00    +0.000 C 
ATOM     12  O   UNL     1       1.007   4.357  20.115  0.00  0.00    +0.000 OA
BRANCH  11  13
ATOM     13  O   UNL     1       1.164   3.297  18.145  0.00  0.00    +0.000 OA
ATOM     14  H   UNL     1       0.219   3.086  18.270  0.00  0.00    +0.000 HD
ENDBRANCH  11  13
ENDBRANCH   2  11
BRANCH   1  15
ATOM     15  C   UNL     1       2.212   6.918  17.717  0.00  0.00    +0.000 C 
BRANCH  15  17
ATOM     16  N   UNL     1       1.688   7.581  20.014  0.00  0.00    +0.000 N 
ATOM     17  C   UNL     1       2.044   8.014  18.753  0.00  0.00    +0.000 C 
ATOM     18  O   UNL     1       2.201   9.203  18.480  0.00  0.00    +0.000 OA
ATOM     19  H   UNL     1       1.751   6.597  20.255  0.00  0.00    +0.000 HD
BRANCH  16  20
ATOM     20  C   UNL     1       1.504   8.538  21.088  0.00  0.00    +0.000 C 
BRANCH  20  21
ATOM     21  C   UNL     1       0.040   8.689  21.535  0.00  0.00    +0.000 C 
BRANCH  21  23
ATOM     22  C   UNL     1      -0.784  10.459  22.992  0.00  0.00    +0.000 C 
ATOM     23  N   UNL     1      -0.445  10.086  21.617  0.00  0.00    +0.000 NA
ATOM     24  C   UNL     1       0.594  10.994  21.113  0.00  0.00    +0.000 C 
ENDBRANCH  21  23
ENDBRANCH  20  21
ENDBRANCH  16  20
ENDBRANCH  15  17
ENDBRANCH   1  15
TORSDOF 7
ENDMDL
MODEL 9
REMARK VINA RESULT:      -6.3      4.569      6.964
REMARK  Name = 
REMARK  10 active torsions:
REMARK  status: ('A' for Active; 'I' for Inactive)
REMARK    1  A    between atoms: C_1  and  N_2
REMARK    2  A    between atoms: N_2  and  C_3
REMARK    3  A    between atoms: N_2  and  C_4
REMARK    4  A    between atoms: C_4  and  C_5
REMARK    5  A    between atoms: C_5  and  N_6
REMARK    6  A    between atoms: C_7  and  C_9
REMARK    7  A    between atoms: C_9  and  C_10
REMARK    8  A    between atoms: C_11  and  C_12
REMARK    9  A    between atoms: C_12  and  O_14
REMARK   10  A    between atoms: N_15  and  C_16
REMARK                            x       y       z     vdW  Elec       q    Type
REMARK                         _______ _______ _______ _____ _____    ______ ____
ROOT
ATOM      1  C   UNL     1       3.351   6.014  18.226  0.00  0.00    +0.000 A 
ATOM      2  C   UNL     1       3.075   4.799  18.864  0.00  0.00    +0.000 A 
ATOM      3  N   UNL     1       4.297   4.169  19.049  0.00  0.00    +0.000 N 
ATOM      4  C   UNL     1       4.548   2.845  19.589  0.00  0.00    +0.000 C 
ATOM      5  C   UNL     1       5.332   4.945  18.554  0.00  0.00    +0.000 A 
ATOM      6  C   UNL     1       6.720   4.713  18.511  0.00  0.00    +0.000 A 
ATOM      7  C   UNL     1       7.533   5.672  17.900  0.00  0.00    +0.000 A 
ATOM      8  C   UNL     1       6.984   6.825  17.352  0.00  0.00    +0.000 A 
ATOM      9  C   UNL     1       5.606   7.050  17.410  0.00  0.00    +0.000 A 
ATOM     10  C   UNL     1       4.764   6.094  18.019  0.00  0.00    +0.000 A 
ENDROOT
BRANCH   2  11
ATOM     11  C   UNL     1       1.745   4.302  19.176  0.00  0.00    +0.000 C 
ATOM     12  O   UNL     1       1.073   3.581  18.454  0.00  0.00    +0.000 OA
BRANCH  11  13
ATOM     13  O   UNL     1       1.256   4.778  20.342  0.00  0.00    +0.000 OA
ATOM     14  H   UNL     1       0.993   4.066  20.955  0.00  0.00    +0.000 HD
ENDBRANCH  11  13
ENDBRANCH   2  11
BRANCH   1  15
ATOM     15  C   UNL     1       2.369   7.067  17.794  0.00  0.00    +0.000 C 
BRANCH  15  17
ATOM     16  N   UNL     1       1.410   9.179  18.574  0.00  0.00    +0.000 N 
ATOM     17  C   UNL     1       1.974   7.975  18.944  0.00  0.00    +0.000 C 
ATOM     18  O   UNL     1       2.158   7.662  20.119  0.00  0.00    +0.000 OA
ATOM     19  H   UNL     1       1.099   9.328  17.620  0.00  0.00    +0.000 HD
BRANCH  16  20
ATOM     20  C   UNL     1       0.988  10.127  19.588  0.00  0.00    +0.000 C 
BRANCH  20  21
ATOM     21  C   UNL     1      -0.514  10.457  19.538  0.00  0.00    +0.000 C 
BRANCH  21  23
ATOM     22  C   UNL     1      -2.224   9.966  17.873  0.00  0.00    +0.000 C 
ATOM     23  N   UNL     1      -1.038  10.767  18.188  0.00  0.00    +0.000 NA
ATOM     24  C   UNL     1      -1.385  12.192  18.114  0.00  0.00    +0.000 C 
ENDBRANCH  21  23
ENDBRANCH  20  21
ENDBRANCH  16  20
ENDBRANCH  15  17
ENDBRANCH   1  15
TORSDOF 7
ENDMDL
