MODEL 1
REMARK VINA RESULT:      -7.6      0.000      0.000
REMARK  Name = 
REMARK  4 active torsions:
REMARK  status: ('A' for Active; 'I' for Inactive)
REMARK    1  A    between atoms: C_1  and  C_2
REMARK    2  A    between atoms: C_8  and  C_9
REMARK    3  A    between atoms: C_14  and  N_15
REMARK    4  A    between atoms: C_16  and  O_17
REMARK                            x       y       z     vdW  Elec       q    Type
REMARK                         _______ _______ _______ _____ _____    ______ ____
ROOT
ATOM      1  C   UNL     1       4.767   4.221  17.125  0.00  0.00    +0.000 C 
ATOM      2  O   UNL     1       4.366   4.266  15.959  0.00  0.00    +0.000 OA
ATOM      3  N   UNL     1       6.053   4.647  17.463  0.00  0.00    +0.000 N 
ATOM      4  C   UNL     1       6.834   5.376  16.467  0.00  0.00    +0.000 C 
ATOM      5  C   UNL     1       7.242   6.738  17.026  0.00  0.00    +0.000 C 
ATOM      6  C   UNL     1       8.036   6.571  18.328  0.00  0.00    +0.000 C 
ATOM      7  C   UNL     1       7.256   5.700  19.352  0.00  0.00    +0.000 C 
ATOM      8  C   UNL     1       6.777   4.393  18.709  0.00  0.00    +0.000 C 
ENDROOT
BRANCH   1  16
ATOM      9  C   UNL     1       2.021   7.657  20.232  0.00  0.00    +0.000 C 
ATOM     10  C   UNL     1       2.065   6.209  19.939  0.00  0.00    +0.000 A 
ATOM     11  C   UNL     1       1.458   5.093  20.471  0.00  0.00    +0.000 A 
ATOM     12  C   UNL     1       2.031   3.972  19.814  0.00  0.00    +0.000 A 
ATOM     13  C   UNL     1       1.862   2.580  19.896  0.00  0.00    +0.000 A 
ATOM     14  C   UNL     1       2.643   1.758  19.077  0.00  0.00    +0.000 A 
ATOM     15  C   UNL     1       3.597   2.307  18.213  0.00  0.00    +0.000 A 
ATOM     16  C   UNL     1       3.803   3.697  18.118  0.00  0.00    +0.000 A 
ATOM     17  C   UNL     1       2.964   4.483  18.910  0.00  0.00    +0.000 A 
ATOM     18  O   UNL     1       2.912   5.844  18.941  0.00  0.00    +0.000 OA
ENDBRANCH   1  16
BRANCH   6  19
ATOM     19  N   UNL     1       8.385   7.880  18.910  0.00  0.00    +0.000 NA
ATOM     20  H   UNL     1       8.616   8.533  18.156  0.00  0.00    +0.000 HD
ATOM     21  H   UNL     1       9.246   7.794  19.456  0.00  0.00    +0.000 HD
ENDBRANCH   6  19
BRANCH   7  22
ATOM     22  O   UNL     1       8.048   5.395  20.502  0.00  0.00    +0.000 OA
ATOM     23  H   UNL     1       8.528   4.570  20.310  0.00  0.00    +0.000 HD
ENDBRANCH   7  22
TORSDOF 3
ENDMDL
MODEL 2
REMARK VINA RESULT:      -7.4      1.293      1.605
REMARK  Name = 
REMARK  4 active torsions:
REMARK  status: ('A' for Active; 'I' for Inactive)
REMARK    1  A    between atoms: C_1  and  C_2
REMARK    2  A    between atoms: C_8  and  C_9
REMARK    3  A    between atoms: C_14  and  N_15
REMARK    4  A    between atoms: C_16  and  O_17
REMARK                            x       y       z     vdW  Elec       q    Type
REMARK                         _______ _______ _______ _____ _____    ______ ____
ROOT
ATOM      1  C   UNL     1       3.358   3.611  17.415  0.00  0.00    +0.000 C 
ATOM      2  O   UNL     1       2.622   3.323  16.468  0.00  0.00    +0.000 OA
ATOM      3  N   UNL     1       4.708   3.910  17.217  0.00  0.00    +0.000 N 
ATOM      4  C   UNL     1       5.185   4.120  15.852  0.00  0.00    +0.000 C 
ATOM      5  C   UNL     1       5.820   5.504  15.733  0.00  0.00    +0.000 C 
ATOM      6  C   UNL     1       6.964   5.662  16.744  0.00  0.00    +0.000 C 
ATOM      7  C   UNL     1       6.488   5.330  18.186  0.00  0.00    +0.000 C 
ATOM      8  C   UNL     1       5.763   3.980  18.228  0.00  0.00    +0.000 C 
ENDROOT
BRANCH   1  16
ATOM      9  C   UNL     1       2.001   8.305  19.678  0.00  0.00    +0.000 C 
ATOM     10  C   UNL     1       1.838   6.858  19.929  0.00  0.00    +0.000 A 
ATOM     11  C   UNL     1       1.345   6.104  20.971  0.00  0.00    +0.000 A 
ATOM     12  C   UNL     1       1.594   4.746  20.636  0.00  0.00    +0.000 A 
ATOM     13  C   UNL     1       1.352   3.511  21.260  0.00  0.00    +0.000 A 
ATOM     14  C   UNL     1       1.771   2.340  20.617  0.00  0.00    +0.000 A 
ATOM     15  C   UNL     1       2.445   2.397  19.392  0.00  0.00    +0.000 A 
ATOM     16  C   UNL     1       2.718   3.621  18.749  0.00  0.00    +0.000 A 
ATOM     17  C   UNL     1       2.233   4.759  19.395  0.00  0.00    +0.000 A 
ATOM     18  O   UNL     1       2.298   6.042  18.944  0.00  0.00    +0.000 OA
ENDBRANCH   1  16
BRANCH   6  19
ATOM     19  N   UNL     1       7.546   7.014  16.681  0.00  0.00    +0.000 NA
ATOM     20  H   UNL     1       8.491   6.993  17.073  0.00  0.00    +0.000 HD
ATOM     21  H   UNL     1       7.021   7.643  17.296  0.00  0.00    +0.000 HD
ENDBRANCH   6  19
BRANCH   7  22
ATOM     22  O   UNL     1       7.576   5.308  19.112  0.00  0.00    +0.000 OA
ATOM     23  H   UNL     1       7.913   4.395  19.138  0.00  0.00    +0.000 HD
ENDBRANCH   7  22
TORSDOF 3
ENDMDL
MODEL 3
REMARK VINA RESULT:      -7.1      2.234      3.391
REMARK  Name = 
REMARK  4 active torsions:
REMARK  status: ('A' for Active; 'I' for Inactive)
REMARK    1  A    between atoms: C_1  and  C_2
REMARK    2  A    between atoms: C_8  and  C_9
REMARK    3  A    between atoms: C_14  and  N_15
REMARK    4  A    between atoms: C_16  and  O_17
REMARK                            x       y       z     vdW  Elec       q    Type
REMARK                         _______ _______ _______ _____ _____    ______ ____
ROOT
ATOM      1  C   UNL     1       3.763   4.107  17.058  0.00  0.00    +0.000 C 
ATOM      2  O   UNL     1       3.006   3.186  16.741  0.00  0.00    +0.000 OA
ATOM      3  N   UNL     1       5.092   4.130  16.629  0.00  0.00    +0.000 N 
ATOM      4  C   UNL     1       5.512   3.185  15.598  0.00  0.00    +0.000 C 
ATOM      5  C   UNL     1       6.086   3.943  14.402  0.00  0.00    +0.000 C 
ATOM      6  C   UNL     1       7.258   4.832  14.841  0.00  0.00    +0.000 C 
ATOM      7  C   UNL     1       6.847   5.763  16.015  0.00  0.00    +0.000 C 
ATOM      8  C   UNL     1       6.179   4.965  17.141  0.00  0.00    +0.000 C 
ENDROOT
BRANCH   1  16
ATOM      9  C   UNL     1       1.486   2.779  21.753  0.00  0.00    +0.000 C 
ATOM     10  C   UNL     1       1.844   3.994  20.992  0.00  0.00    +0.000 A 
ATOM     11  C   UNL     1       1.612   5.342  21.150  0.00  0.00    +0.000 A 
ATOM     12  C   UNL     1       2.123   5.977  19.987  0.00  0.00    +0.000 A 
ATOM     13  C   UNL     1       2.192   7.304  19.531  0.00  0.00    +0.000 A 
ATOM     14  C   UNL     1       2.768   7.556  18.282  0.00  0.00    +0.000 A 
ATOM     15  C   UNL     1       3.240   6.507  17.486  0.00  0.00    +0.000 A 
ATOM     16  C   UNL     1       3.170   5.164  17.907  0.00  0.00    +0.000 A 
ATOM     17  C   UNL     1       2.641   4.962  19.182  0.00  0.00    +0.000 A 
ATOM     18  O   UNL     1       2.538   3.776  19.844  0.00  0.00    +0.000 OA
ENDBRANCH   1  16
BRANCH   6  19
ATOM     19  N   UNL     1       7.783   5.615  13.708  0.00  0.00    +0.000 NA
ATOM     20  H   UNL     1       8.688   5.232  13.424  0.00  0.00    +0.000 HD
ATOM     21  H   UNL     1       7.987   6.570  14.016  0.00  0.00    +0.000 HD
ENDBRANCH   6  19
BRANCH   7  22
ATOM     22  O   UNL     1       7.967   6.476  16.545  0.00  0.00    +0.000 OA
ATOM     23  H   UNL     1       8.439   5.867  17.140  0.00  0.00    +0.000 HD
ENDBRANCH   7  22
TORSDOF 3
ENDMDL
MODEL 4
REMARK VINA RESULT:      -6.7      1.825      2.572
REMARK  Name = 
REMARK  4 active torsions:
REMARK  status: ('A' for Active; 'I' for Inactive)
REMARK    1  A    between atoms: C_1  and  C_2
REMARK    2  A    between atoms: C_8  and  C_9
REMARK    3  A    between atoms: C_14  and  N_15
REMARK    4  A    between atoms: C_16  and  O_17
REMARK                            x       y       z     vdW  Elec       q    Type
REMARK                         _______ _______ _______ _____ _____    ______ ____
ROOT
ATOM      1  C   UNL     1       3.165   3.682  17.482  0.00  0.00    +0.000 C 
ATOM      2  O   UNL     1       2.256   3.227  16.783  0.00  0.00    +0.000 OA
ATOM      3  N   UNL     1       4.496   3.622  17.064  0.00  0.00    +0.000 N 
ATOM      4  C   UNL     1       4.780   3.242  15.684  0.00  0.00    +0.000 C 
ATOM      5  C   UNL     1       5.586   4.344  14.998  0.00  0.00    +0.000 C 
ATOM      6  C   UNL     1       6.884   4.620  15.768  0.00  0.00    +0.000 C 
ATOM      7  C   UNL     1       6.596   4.916  17.266  0.00  0.00    +0.000 C 
ATOM      8  C   UNL     1       5.695   3.836  17.875  0.00  0.00    +0.000 C 
ENDROOT
BRANCH   1  16
ATOM      9  C   UNL     1       2.422   9.005  17.806  0.00  0.00    +0.000 C 
ATOM     10  C   UNL     1       2.232   7.799  18.640  0.00  0.00    +0.000 A 
ATOM     11  C   UNL     1       1.876   7.573  19.952  0.00  0.00    +0.000 A 
ATOM     12  C   UNL     1       2.002   6.175  20.166  0.00  0.00    +0.000 A 
ATOM     13  C   UNL     1       1.803   5.318  21.261  0.00  0.00    +0.000 A 
ATOM     14  C   UNL     1       2.055   3.951  21.100  0.00  0.00    +0.000 A 
ATOM     15  C   UNL     1       2.524   3.449  19.881  0.00  0.00    +0.000 A 
ATOM     16  C   UNL     1       2.749   4.284  18.769  0.00  0.00    +0.000 A 
ATOM     17  C   UNL     1       2.431   5.630  18.955  0.00  0.00    +0.000 A 
ATOM     18  O   UNL     1       2.486   6.618  18.019  0.00  0.00    +0.000 OA
ENDBRANCH   1  16
BRANCH   6  19
ATOM     19  N   UNL     1       7.643   5.724  15.151  0.00  0.00    +0.000 NA
ATOM     20  H   UNL     1       7.089   6.133  14.395  0.00  0.00    +0.000 HD
ATOM     21  H   UNL     1       8.479   5.351  14.692  0.00  0.00    +0.000 HD
ENDBRANCH   6  19
BRANCH   7  22
ATOM     22  O   UNL     1       7.800   5.010  18.030  0.00  0.00    +0.000 OA
ATOM     23  H   UNL     1       8.494   4.545  17.530  0.00  0.00    +0.000 HD
ENDBRANCH   7  22
TORSDOF 3
ENDMDL
MODEL 5
REMARK VINA RESULT:      -6.5      2.591      6.036
REMARK  Name = 
REMARK  4 active torsions:
REMARK  status: ('A' for Active; 'I' for Inactive)
REMARK    1  A    between atoms: C_1  and  C_2
REMARK    2  A    between atoms: C_8  and  C_9
REMARK    3  A    between atoms: C_14  and  N_15
REMARK    4  A    between atoms: C_16  and  O_17
REMARK                            x       y       z     vdW  Elec       q    Type
REMARK                         _______ _______ _______ _____ _____    ______ ____
ROOT
ATOM      1  C   UNL     1       3.884   3.172  17.478  0.00  0.00    +0.000 C 
ATOM      2  O   UNL     1       3.852   2.194  16.727  0.00  0.00    +0.000 OA
ATOM      3  N   UNL     1       2.844   3.430  18.373  0.00  0.00    +0.000 N 
ATOM      4  C   UNL     1       1.833   2.399  18.588  0.00  0.00    +0.000 C 
ATOM      5  C   UNL     1       1.774   2.032  20.071  0.00  0.00    +0.000 C 
ATOM      6  C   UNL     1       1.478   3.274  20.921  0.00  0.00    +0.000 C 
ATOM      7  C   UNL     1       2.486   4.417  20.614  0.00  0.00    +0.000 C 
ATOM      8  C   UNL     1       2.585   4.670  19.105  0.00  0.00    +0.000 C 
ENDROOT
BRANCH   1  16
ATOM      9  C   UNL     1       6.329   3.709  12.710  0.00  0.00    +0.000 C 
ATOM     10  C   UNL     1       6.406   4.276  14.073  0.00  0.00    +0.000 A 
ATOM     11  C   UNL     1       7.269   5.132  14.721  0.00  0.00    +0.000 A 
ATOM     12  C   UNL     1       6.851   5.174  16.077  0.00  0.00    +0.000 A 
ATOM     13  C   UNL     1       7.300   5.833  17.233  0.00  0.00    +0.000 A 
ATOM     14  C   UNL     1       6.628   5.608  18.440  0.00  0.00    +0.000 A 
ATOM     15  C   UNL     1       5.548   4.721  18.503  0.00  0.00    +0.000 A 
ATOM     16  C   UNL     1       5.084   4.031  17.365  0.00  0.00    +0.000 A 
ATOM     17  C   UNL     1       5.745   4.328  16.172  0.00  0.00    +0.000 A 
ATOM     18  O   UNL     1       5.439   3.857  14.932  0.00  0.00    +0.000 OA
ENDBRANCH   1  16
BRANCH   6  19
ATOM     19  N   UNL     1       1.478   2.947  22.358  0.00  0.00    +0.000 NA
ATOM     20  H   UNL     1       0.784   2.216  22.538  0.00  0.00    +0.000 HD
ATOM     21  H   UNL     1       1.152   3.755  22.895  0.00  0.00    +0.000 HD
ENDBRANCH   6  19
BRANCH   7  22
ATOM     22  O   UNL     1       2.125   5.634  21.272  0.00  0.00    +0.000 OA
ATOM     23  H   UNL     1       2.110   6.333  20.594  0.00  0.00    +0.000 HD
ENDBRANCH   7  22
TORSDOF 3
ENDMDL
MODEL 6
REMARK VINA RESULT:      -6.5      2.662      5.214
REMARK  Name = 
REMARK  4 active torsions:
REMARK  status: ('A' for Active; 'I' for Inactive)
REMARK    1  A    between atoms: C_1  and  C_2
REMARK    2  A    between atoms: C_8  and  C_9
REMARK    3  A    between atoms: C_14  and  N_15
REMARK    4  A    between atoms: C_16  and  O_17
REMARK                            x       y       z     vdW  Elec       q    Type
REMARK                         _______ _______ _______ _____ _____    ______ ____
ROOT
ATOM      1  C   UNL     1       4.852   4.000  18.771  0.00  0.00    +0.000 C 
ATOM      2  O   UNL     1       6.035   3.833  19.077  0.00  0.00    +0.000 OA
ATOM      3  N   UNL     1       3.856   3.138  19.235  0.00  0.00    +0.000 N 
ATOM      4  C   UNL     1       4.192   2.181  20.285  0.00  0.00    +0.000 C 
ATOM      5  C   UNL     1       3.273   2.388  21.488  0.00  0.00    +0.000 C 
ATOM      6  C   UNL     1       1.803   2.251  21.072  0.00  0.00    +0.000 C 
ATOM      7  C   UNL     1       1.467   3.187  19.878  0.00  0.00    +0.000 C 
ATOM      8  C   UNL     1       2.483   3.015  18.743  0.00  0.00    +0.000 C 
ENDROOT
BRANCH   1  16
ATOM      9  C   UNL     1       1.440   7.818  20.437  0.00  0.00    +0.000 C 
ATOM     10  C   UNL     1       2.368   7.565  19.315  0.00  0.00    +0.000 A 
ATOM     11  C   UNL     1       2.648   8.199  18.125  0.00  0.00    +0.000 A 
ATOM     12  C   UNL     1       3.563   7.364  17.431  0.00  0.00    +0.000 A 
ATOM     13  C   UNL     1       4.218   7.428  16.189  0.00  0.00    +0.000 A 
ATOM     14  C   UNL     1       5.061   6.374  15.819  0.00  0.00    +0.000 A 
ATOM     15  C   UNL     1       5.226   5.262  16.653  0.00  0.00    +0.000 A 
ATOM     16  C   UNL     1       4.571   5.160  17.896  0.00  0.00    +0.000 A 
ATOM     17  C   UNL     1       3.786   6.258  18.252  0.00  0.00    +0.000 A 
ATOM     18  O   UNL     1       3.118   6.437  19.425  0.00  0.00    +0.000 OA
ENDBRANCH   1  16
BRANCH   6  19
ATOM     19  N   UNL     1       0.902   2.508  22.211  0.00  0.00    +0.000 NA
ATOM     20  H   UNL     1       0.006   2.857  21.860  0.00  0.00    +0.000 HD
ATOM     21  H   UNL     1       1.277   3.273  22.778  0.00  0.00    +0.000 HD
ENDBRANCH   6  19
BRANCH   7  22
ATOM     22  O   UNL     1       0.152   2.951  19.371  0.00  0.00    +0.000 OA
ATOM     23  H   UNL     1      -0.126   2.074  19.690  0.00  0.00    +0.000 HD
ENDBRANCH   7  22
TORSDOF 3
ENDMDL
MODEL 7
REMARK VINA RESULT:      -6.4      2.453      4.917
REMARK  Name = 
REMARK  4 active torsions:
REMARK  status: ('A' for Active; 'I' for Inactive)
REMARK    1  A    between atoms: C_1  and  C_2
REMARK    2  A    between atoms: C_8  and  C_9
REMARK    3  A    between atoms: C_14  and  N_15
REMARK    4  A    between atoms: C_16  and  O_17
REMARK                            x       y       z     vdW  Elec       q    Type
REMARK                         _______ _______ _______ _____ _____    ______ ____
ROOT
ATOM      1  C   UNL     1       2.393   6.143  19.807  0.00  0.00    +0.000 C 
ATOM      2  O   UNL     1       1.596   5.534  20.524  0.00  0.00    +0.000 OA
ATOM      3  N   UNL     1       3.605   5.567  19.421  0.00  0.00    +0.000 N 
ATOM      4  C   UNL     1       3.814   4.142  19.669  0.00  0.00    +0.000 C 
ATOM      5  C   UNL     1       4.123   3.428  18.354  0.00  0.00    +0.000 C 
ATOM      6  C   UNL     1       5.351   4.051  17.678  0.00  0.00    +0.000 C 
ATOM      7  C   UNL     1       5.182   5.587  17.514  0.00  0.00    +0.000 C 
ATOM      8  C   UNL     1       4.767   6.239  18.837  0.00  0.00    +0.000 C 
ENDROOT
BRANCH   1  16
ATOM      9  C   UNL     1       0.053   9.416  23.385  0.00  0.00    +0.000 C 
ATOM     10  C   UNL     1       0.566   9.463  21.999  0.00  0.00    +0.000 A 
ATOM     11  C   UNL     1       0.534  10.393  20.984  0.00  0.00    +0.000 A 
ATOM     12  C   UNL     1       1.105   9.764  19.846  0.00  0.00    +0.000 A 
ATOM     13  C   UNL     1       1.355  10.153  18.519  0.00  0.00    +0.000 A 
ATOM     14  C   UNL     1       1.934   9.226  17.645  0.00  0.00    +0.000 A 
ATOM     15  C   UNL     1       2.232   7.928  18.072  0.00  0.00    +0.000 A 
ATOM     16  C   UNL     1       1.978   7.502  19.391  0.00  0.00    +0.000 A 
ATOM     17  C   UNL     1       1.454   8.473  20.245  0.00  0.00    +0.000 A 
ATOM     18  O   UNL     1       1.196   8.336  21.575  0.00  0.00    +0.000 OA
ENDBRANCH   1  16
BRANCH   6  19
ATOM     19  N   UNL     1       5.625   3.411  16.379  0.00  0.00    +0.000 NA
ATOM     20  H   UNL     1       6.634   3.269  16.279  0.00  0.00    +0.000 HD
ATOM     21  H   UNL     1       5.374   4.051  15.621  0.00  0.00    +0.000 HD
ENDBRANCH   6  19
BRANCH   7  22
ATOM     22  O   UNL     1       6.381   6.206  17.041  0.00  0.00    +0.000 OA
ATOM     23  H   UNL     1       6.889   5.523  16.567  0.00  0.00    +0.000 HD
ENDBRANCH   7  22
TORSDOF 3
ENDMDL
MODEL 8
REMARK VINA RESULT:      -6.4      2.393      5.849
REMARK  Name = 
REMARK  4 active torsions:
REMARK  status: ('A' for Active; 'I' for Inactive)
REMARK    1  A    between atoms: C_1  and  C_2
REMARK    2  A    between atoms: C_8  and  C_9
REMARK    3  A    between atoms: C_14  and  N_15
REMARK    4  A    between atoms: C_16  and  O_17
REMARK                            x       y       z     vdW  Elec       q    Type
REMARK                         _______ _______ _______ _____ _____    ______ ____
ROOT
ATOM      1  C   UNL     1       4.253   4.175  18.570  0.00  0.00    +0.000 C 
ATOM      2  O   UNL     1       4.308   2.974  18.843  0.00  0.00    +0.000 OA
ATOM      3  N   UNL     1       3.098   4.920  18.818  0.00  0.00    +0.000 N 
ATOM      4  C   UNL     1       2.042   4.324  19.631  0.00  0.00    +0.000 C 
ATOM      5  C   UNL     1       1.755   5.214  20.840  0.00  0.00    +0.000 C 
ATOM      6  C   UNL     1       1.366   6.627  20.388  0.00  0.00    +0.000 C 
ATOM      7  C   UNL     1       2.436   7.224  19.431  0.00  0.00    +0.000 C 
ATOM      8  C   UNL     1       2.764   6.247  18.297  0.00  0.00    +0.000 C 
ENDROOT
BRANCH   1  16
ATOM      9  C   UNL     1       5.185   3.581  13.300  0.00  0.00    +0.000 C 
ATOM     10  C   UNL     1       5.757   4.297  14.459  0.00  0.00    +0.000 A 
ATOM     11  C   UNL     1       6.894   5.044  14.674  0.00  0.00    +0.000 A 
ATOM     12  C   UNL     1       6.920   5.346  16.061  0.00  0.00    +0.000 A 
ATOM     13  C   UNL     1       7.793   6.051  16.907  0.00  0.00    +0.000 A 
ATOM     14  C   UNL     1       7.493   6.126  18.271  0.00  0.00    +0.000 A 
ATOM     15  C   UNL     1       6.363   5.486  18.792  0.00  0.00    +0.000 A 
ATOM     16  C   UNL     1       5.476   4.758  17.974  0.00  0.00    +0.000 A 
ATOM     17  C   UNL     1       5.781   4.757  16.612  0.00  0.00    +0.000 A 
ATOM     18  O   UNL     1       5.045   4.195  15.613  0.00  0.00    +0.000 OA
ENDBRANCH   1  16
BRANCH   6  19
ATOM     19  N   UNL     1       1.145   7.513  21.546  0.00  0.00    +0.000 NA
ATOM     20  H   UNL     1       1.700   8.365  21.430  0.00  0.00    +0.000 HD
ATOM     21  H   UNL     1       1.517   7.071  22.392  0.00  0.00    +0.000 HD
ENDBRANCH   6  19
BRANCH   7  22
ATOM     22  O   UNL     1       2.011   8.469  18.870  0.00  0.00    +0.000 OA
ATOM     23  H   UNL     1       2.389   8.524  17.975  0.00  0.00    +0.000 HD
ENDBRANCH   7  22
TORSDOF 3
ENDMDL
MODEL 9
REMARK VINA RESULT:      -6.3      2.282      5.345
REMARK  Name = 
REMARK  4 active torsions:
REMARK  status: ('A' for Active; 'I' for Inactive)
REMARK    1  A    between atoms: C_1  and  C_2
REMARK    2  A    between atoms: C_8  and  C_9
REMARK    3  A    between atoms: C_14  and  N_15
REMARK    4  A    between atoms: C_16  and  O_17
REMARK                            x       y       z     vdW  Elec       q    Type
REMARK                         _______ _______ _______ _____ _____    ______ ____
ROOT
ATOM      1  C   UNL     1       3.476   3.791  18.136  0.00  0.00    +0.000 C 
ATOM      2  O   UNL     1       3.376   2.614  18.489  0.00  0.00    +0.000 OA
ATOM      3  N   UNL     1       2.561   4.755  18.567  0.00  0.00    +0.000 N 
ATOM      4  C   UNL     1       1.630   4.408  19.637  0.00  0.00    +0.000 C 
ATOM      5  C   UNL     1       1.793   5.384  20.802  0.00  0.00    +0.000 C 
ATOM      6  C   UNL     1       1.572   6.827  20.330  0.00  0.00    +0.000 C 
ATOM      7  C   UNL     1       2.482   7.166  19.116  0.00  0.00    +0.000 C 
ATOM      8  C   UNL     1       2.360   6.099  18.024  0.00  0.00    +0.000 C 
ENDROOT
BRANCH   1  16
ATOM      9  C   UNL     1       8.080   5.630  20.237  0.00  0.00    +0.000 C 
ATOM     10  C   UNL     1       7.548   5.188  18.931  0.00  0.00    +0.000 A 
ATOM     11  C   UNL     1       8.025   5.189  17.639  0.00  0.00    +0.000 A 
ATOM     12  C   UNL     1       6.959   4.738  16.816  0.00  0.00    +0.000 A 
ATOM     13  C   UNL     1       6.791   4.524  15.438  0.00  0.00    +0.000 A 
ATOM     14  C   UNL     1       5.549   4.080  14.973  0.00  0.00    +0.000 A 
ATOM     15  C   UNL     1       4.483   3.880  15.857  0.00  0.00    +0.000 A 
ATOM     16  C   UNL     1       4.613   4.101  17.242  0.00  0.00    +0.000 A 
ATOM     17  C   UNL     1       5.884   4.489  17.671  0.00  0.00    +0.000 A 
ATOM     18  O   UNL     1       6.285   4.688  18.957  0.00  0.00    +0.000 OA
ENDBRANCH   1  16
BRANCH   6  19
ATOM     19  N   UNL     1       1.785   7.785  21.430  0.00  0.00    +0.000 NA
ATOM     20  H   UNL     1       2.790   7.901  21.586  0.00  0.00    +0.000 HD
ATOM     21  H   UNL     1       1.428   7.388  22.304  0.00  0.00    +0.000 HD
ENDBRANCH   6  19
BRANCH   7  22
ATOM     22  O   UNL     1       2.170   8.446  18.560  0.00  0.00    +0.000 OA
ATOM     23  H   UNL     1       2.967   8.999  18.647  0.00  0.00    +0.000 HD
ENDBRANCH   7  22
TORSDOF 3
ENDMDL
