MODEL 1
REMARK VINA RESULT:      -8.7      0.000      0.000
REMARK  Name = 
REMARK  10 active torsions:
REMARK  status: ('A' for Active; 'I' for Inactive)
REMARK    1  A    between atoms: C_1  and  N_2
REMARK    2  A    between atoms: N_2  and  C_3
REMARK    3  A    between atoms: C_3  and  C_4
REMARK    4  A    between atoms: N_6  and  C_7
REMARK    5  A    between atoms: C_12  and  C_13
REMARK    6  A    between atoms: C_17  and  C_19
REMARK    7  A    between atoms: C_19  and  O_20
REMARK    8  A    between atoms: O_20  and  C_21
REMARK    9  A    between atoms: C_26  and  C_27
REMARK   10  A    between atoms: C_27  and  C_28
REMARK                            x       y       z     vdW  Elec       q    Type
REMARK                         _______ _______ _______ _____ _____    ______ ____
ROOT
ATOM      1  C   UNL     1       1.557   8.010  20.613  0.00  0.00    +0.000 C 
ATOM      2  N   UNL     1       1.641   8.938  19.497  0.00  0.00    +0.000 N 
ATOM      3  C   UNL     1       2.052   8.522  18.235  0.00  0.00    +0.000 C 
ATOM      4  O   UNL     1       2.097   9.309  17.284  0.00  0.00    +0.000 OA
ENDROOT
BRANCH   2   5
ATOM      5  C   UNL     1       1.162  10.325  19.702  0.00  0.00    +0.000 C 
BRANCH   5   6
ATOM      6  C   UNL     1      -0.372  10.521  19.784  0.00  0.00    +0.000 C 
ATOM      7  O   UNL     1      -1.007  10.182  20.787  0.00  0.00    +0.000 OA
ATOM      8  N   UNL     1      -0.952  11.141  18.683  0.00  0.00    +0.000 N 
ATOM      9  H   UNL     1      -0.477  10.978  17.800  0.00  0.00    +0.000 HD
BRANCH   8  10
ATOM     10  C   UNL     1      -2.349  11.426  18.621  0.00  0.00    +0.000 A 
ATOM     11  C   UNL     1      -2.958  12.164  19.651  0.00  0.00    +0.000 A 
ATOM     12  C   UNL     1      -4.318  12.490  19.602  0.00  0.00    +0.000 A 
ATOM     13  C   UNL     1      -5.097  12.072  18.531  0.00  0.00    +0.000 A 
ATOM     14  C   UNL     1      -4.506  11.334  17.505  0.00  0.00    +0.000 A 
ATOM     15  C   UNL     1      -3.136  11.008  17.530  0.00  0.00    +0.000 A 
BRANCH  15  16
ATOM     16  C   UNL     1      -2.612  10.127  16.429  0.00  0.00    +0.000 C 
ATOM     17  F   UNL     1      -1.482   9.434  16.754  0.00  0.00    +0.000 F 
ATOM     18  F   UNL     1      -3.520   9.192  16.034  0.00  0.00    +0.000 F 
ATOM     19  F   UNL     1      -2.293  10.833  15.307  0.00  0.00    +0.000 F 
ENDBRANCH  15  16
ENDBRANCH   8  10
ENDBRANCH   5   6
ENDBRANCH   2   5
BRANCH   3  20
ATOM     20  C   UNL     1       2.447   7.037  18.034  0.00  0.00    +0.000 C 
BRANCH  20  21
ATOM     21  O   UNL     1       3.829   6.845  18.320  0.00  0.00    +0.000 OA
BRANCH  21  22
ATOM     22  C   UNL     1       4.592   6.054  17.500  0.00  0.00    +0.000 A 
ATOM     23  C   UNL     1       4.770   6.603  16.214  0.00  0.00    +0.000 A 
ATOM     24  C   UNL     1       5.426   5.904  15.194  0.00  0.00    +0.000 A 
ATOM     25  C   UNL     1       5.925   4.642  15.439  0.00  0.00    +0.000 A 
ATOM     26  C   UNL     1       5.747   4.073  16.697  0.00  0.00    +0.000 A 
ATOM     27  C   UNL     1       5.062   4.752  17.738  0.00  0.00    +0.000 A 
BRANCH  27  28
ATOM     28  C   UNL     1       4.801   3.933  18.981  0.00  0.00    +0.000 C 
BRANCH  28  29
ATOM     29  C   UNL     1       3.366   3.528  19.264  0.00  0.00    +0.000 A 
ATOM     30  C   UNL     1       2.683   4.172  20.308  0.00  0.00    +0.000 A 
ATOM     31  C   UNL     1       1.321   3.952  20.517  0.00  0.00    +0.000 A 
ATOM     32  C   UNL     1       0.615   3.096  19.677  0.00  0.00    +0.000 A 
ATOM     33  C   UNL     1       1.279   2.436  18.646  0.00  0.00    +0.000 A 
ATOM     34  C   UNL     1       2.646   2.644  18.444  0.00  0.00    +0.000 A 
ENDBRANCH  28  29
ENDBRANCH  27  28
ENDBRANCH  21  22
ENDBRANCH  20  21
ENDBRANCH   3  20
TORSDOF 9
ENDMDL
MODEL 2
REMARK VINA RESULT:      -8.6      1.345      3.517
REMARK  Name = 
REMARK  10 active torsions:
REMARK  status: ('A' for Active; 'I' for Inactive)
REMARK    1  A    between atoms: C_1  and  N_2
REMARK    2  A    between atoms: N_2  and  C_3
REMARK    3  A    between atoms: C_3  and  C_4
REMARK    4  A    between atoms: N_6  and  C_7
REMARK    5  A    between atoms: C_12  and  C_13
REMARK    6  A    between atoms: C_17  and  C_19
REMARK    7  A    between atoms: C_19  and  O_20
REMARK    8  A    between atoms: O_20  and  C_21
REMARK    9  A    between atoms: C_26  and  C_27
REMARK   10  A    between atoms: C_27  and  C_28
REMARK                            x       y       z     vdW  Elec       q    Type
REMARK                         _______ _______ _______ _____ _____    ______ ____
ROOT
ATOM      1  C   UNL     1       0.340  10.188  21.875  0.00  0.00    +0.000 C 
ATOM      2  N   UNL     1       0.892  10.164  20.531  0.00  0.00    +0.000 N 
ATOM      3  C   UNL     1       1.346   8.983  19.953  0.00  0.00    +0.000 C 
ATOM      4  O   UNL     1       1.791   8.965  18.801  0.00  0.00    +0.000 OA
ENDROOT
BRANCH   2   5
ATOM      5  C   UNL     1       0.853  11.414  19.735  0.00  0.00    +0.000 C 
BRANCH   5   6
ATOM      6  C   UNL     1      -0.551  11.989  19.424  0.00  0.00    +0.000 C 
ATOM      7  O   UNL     1      -0.766  13.204  19.459  0.00  0.00    +0.000 OA
ATOM      8  N   UNL     1      -1.511  11.051  19.062  0.00  0.00    +0.000 N 
ATOM      9  H   UNL     1      -1.386  10.130  19.471  0.00  0.00    +0.000 HD
BRANCH   8  10
ATOM     10  C   UNL     1      -2.843  11.425  18.709  0.00  0.00    +0.000 A 
ATOM     11  C   UNL     1      -3.642  12.118  19.636  0.00  0.00    +0.000 A 
ATOM     12  C   UNL     1      -4.939  12.529  19.308  0.00  0.00    +0.000 A 
ATOM     13  C   UNL     1      -5.466  12.243  18.055  0.00  0.00    +0.000 A 
ATOM     14  C   UNL     1      -4.685  11.551  17.129  0.00  0.00    +0.000 A 
ATOM     15  C   UNL     1      -3.373  11.141  17.436  0.00  0.00    +0.000 A 
BRANCH  15  16
ATOM     16  C   UNL     1      -2.646  10.316  16.409  0.00  0.00    +0.000 C 
ATOM     17  F   UNL     1      -1.420   9.873  16.811  0.00  0.00    +0.000 F 
ATOM     18  F   UNL     1      -3.342   9.204  16.046  0.00  0.00    +0.000 F 
ATOM     19  F   UNL     1      -2.420  11.006  15.255  0.00  0.00    +0.000 F 
ENDBRANCH  15  16
ENDBRANCH   8  10
ENDBRANCH   5   6
ENDBRANCH   2   5
BRANCH   3  20
ATOM     20  C   UNL     1       1.276   7.675  20.780  0.00  0.00    +0.000 C 
BRANCH  20  21
ATOM     21  O   UNL     1       2.302   6.774  20.377  0.00  0.00    +0.000 OA
BRANCH  21  22
ATOM     22  C   UNL     1       1.975   5.617  19.718  0.00  0.00    +0.000 A 
ATOM     23  C   UNL     1       1.207   4.734  20.503  0.00  0.00    +0.000 A 
ATOM     24  C   UNL     1       0.861   3.453  20.056  0.00  0.00    +0.000 A 
ATOM     25  C   UNL     1       1.270   3.030  18.808  0.00  0.00    +0.000 A 
ATOM     26  C   UNL     1       2.043   3.879  18.021  0.00  0.00    +0.000 A 
ATOM     27  C   UNL     1       2.428   5.171  18.465  0.00  0.00    +0.000 A 
BRANCH  27  28
ATOM     28  C   UNL     1       3.408   5.896  17.572  0.00  0.00    +0.000 C 
BRANCH  28  29
ATOM     29  C   UNL     1       4.820   5.347  17.491  0.00  0.00    +0.000 A 
ATOM     30  C   UNL     1       5.266   4.826  16.265  0.00  0.00    +0.000 A 
ATOM     31  C   UNL     1       6.598   4.448  16.088  0.00  0.00    +0.000 A 
ATOM     32  C   UNL     1       7.510   4.600  17.128  0.00  0.00    +0.000 A 
ATOM     33  C   UNL     1       7.083   5.102  18.355  0.00  0.00    +0.000 A 
ATOM     34  C   UNL     1       5.747   5.466  18.539  0.00  0.00    +0.000 A 
ENDBRANCH  28  29
ENDBRANCH  27  28
ENDBRANCH  21  22
ENDBRANCH  20  21
ENDBRANCH   3  20
TORSDOF 9
ENDMDL
MODEL 3
REMARK VINA RESULT:      -8.5      1.412      3.522
REMARK  Name = 
REMARK  10 active torsions:
REMARK  status: ('A' for Active; 'I' for Inactive)
REMARK    1  A    between atoms: C_1  and  N_2
REMARK    2  A    between atoms: N_2  and  C_3
REMARK    3  A    between atoms: C_3  and  C_4
REMARK    4  A    between atoms: N_6  and  C_7
REMARK    5  A    between atoms: C_12  and  C_13
REMARK    6  A    between atoms: C_17  and  C_19
REMARK    7  A    between atoms: C_19  and  O_20
REMARK    8  A    between atoms: O_20  and  C_21
REMARK    9  A    between atoms: C_26  and  C_27
REMARK   10  A    between atoms: C_27  and  C_28
REMARK                            x       y       z     vdW  Elec       q    Type
REMARK                         _______ _______ _______ _____ _____    ______ ____
ROOT
ATOM      1  C   UNL     1       0.783  10.008  20.645  0.00  0.00    +0.000 C 
ATOM      2  N   UNL     1       1.234  10.063  19.264  0.00  0.00    +0.000 N 
ATOM      3  C   UNL     1       1.823   8.964  18.648  0.00  0.00    +0.000 C 
ATOM      4  O   UNL     1       2.181   9.009  17.466  0.00  0.00    +0.000 OA
ENDROOT
BRANCH   2   5
ATOM      5  C   UNL     1       0.945  11.288  18.481  0.00  0.00    +0.000 C 
BRANCH   5   6
ATOM      6  C   UNL     1      -0.471  11.893  18.646  0.00  0.00    +0.000 C 
ATOM      7  O   UNL     1      -0.630  13.053  19.038  0.00  0.00    +0.000 OA
ATOM      8  N   UNL     1      -1.521  11.059  18.276  0.00  0.00    +0.000 N 
ATOM      9  H   UNL     1      -1.343  10.066  18.397  0.00  0.00    +0.000 HD
BRANCH   8  10
ATOM     10  C   UNL     1      -2.883  11.482  18.333  0.00  0.00    +0.000 A 
ATOM     11  C   UNL     1      -3.375  12.097  19.498  0.00  0.00    +0.000 A 
ATOM     12  C   UNL     1      -4.695  12.554  19.574  0.00  0.00    +0.000 A 
ATOM     13  C   UNL     1      -5.552  12.392  18.493  0.00  0.00    +0.000 A 
ATOM     14  C   UNL     1      -5.078  11.778  17.333  0.00  0.00    +0.000 A 
ATOM     15  C   UNL     1      -3.748  11.323  17.234  0.00  0.00    +0.000 A 
BRANCH  15  16
ATOM     16  C   UNL     1      -3.359  10.587  15.981  0.00  0.00    +0.000 C 
ATOM     17  F   UNL     1      -2.359  11.183  15.269  0.00  0.00    +0.000 F 
ATOM     18  F   UNL     1      -2.931   9.320  16.233  0.00  0.00    +0.000 F 
ATOM     19  F   UNL     1      -4.398  10.462  15.108  0.00  0.00    +0.000 F 
ENDBRANCH  15  16
ENDBRANCH   8  10
ENDBRANCH   5   6
ENDBRANCH   2   5
BRANCH   3  20
ATOM     20  C   UNL     1       2.015   7.665  19.469  0.00  0.00    +0.000 C 
BRANCH  20  21
ATOM     21  O   UNL     1       2.314   6.570  18.609  0.00  0.00    +0.000 OA
BRANCH  21  22
ATOM     22  C   UNL     1       2.441   5.307  19.130  0.00  0.00    +0.000 A 
ATOM     23  C   UNL     1       1.824   5.166  20.389  0.00  0.00    +0.000 A 
ATOM     24  C   UNL     1       1.931   3.989  21.139  0.00  0.00    +0.000 A 
ATOM     25  C   UNL     1       2.652   2.923  20.642  0.00  0.00    +0.000 A 
ATOM     26  C   UNL     1       3.284   3.046  19.408  0.00  0.00    +0.000 A 
ATOM     27  C   UNL     1       3.211   4.239  18.642  0.00  0.00    +0.000 A 
BRANCH  27  28
ATOM     28  C   UNL     1       4.092   4.273  17.415  0.00  0.00    +0.000 C 
BRANCH  28  29
ATOM     29  C   UNL     1       5.379   5.072  17.497  0.00  0.00    +0.000 A 
ATOM     30  C   UNL     1       5.409   6.352  16.920  0.00  0.00    +0.000 A 
ATOM     31  C   UNL     1       6.510   7.192  17.095  0.00  0.00    +0.000 A 
ATOM     32  C   UNL     1       7.592   6.773  17.863  0.00  0.00    +0.000 A 
ATOM     33  C   UNL     1       7.586   5.502  18.432  0.00  0.00    +0.000 A 
ATOM     34  C   UNL     1       6.491   4.654  18.245  0.00  0.00    +0.000 A 
ENDBRANCH  28  29
ENDBRANCH  27  28
ENDBRANCH  21  22
ENDBRANCH  20  21
ENDBRANCH   3  20
TORSDOF 9
ENDMDL
MODEL 4
REMARK VINA RESULT:      -8.5      3.020      4.036
REMARK  Name = 
REMARK  10 active torsions:
REMARK  status: ('A' for Active; 'I' for Inactive)
REMARK    1  A    between atoms: C_1  and  N_2
REMARK    2  A    between atoms: N_2  and  C_3
REMARK    3  A    between atoms: C_3  and  C_4
REMARK    4  A    between atoms: N_6  and  C_7
REMARK    5  A    between atoms: C_12  and  C_13
REMARK    6  A    between atoms: C_17  and  C_19
REMARK    7  A    between atoms: C_19  and  O_20
REMARK    8  A    between atoms: O_20  and  C_21
REMARK    9  A    between atoms: C_26  and  C_27
REMARK   10  A    between atoms: C_27  and  C_28
REMARK                            x       y       z     vdW  Elec       q    Type
REMARK                         _______ _______ _______ _____ _____    ______ ____
ROOT
ATOM      1  C   UNL     1       1.392   8.148  20.844  0.00  0.00    +0.000 C 
ATOM      2  N   UNL     1       1.343   8.932  19.620  0.00  0.00    +0.000 N 
ATOM      3  C   UNL     1       2.015   8.528  18.471  0.00  0.00    +0.000 C 
ATOM      4  O   UNL     1       1.949   9.185  17.427  0.00  0.00    +0.000 OA
ENDROOT
BRANCH   2   5
ATOM      5  C   UNL     1       0.459  10.121  19.585  0.00  0.00    +0.000 C 
BRANCH   5   6
ATOM      6  C   UNL     1       1.151  11.499  19.723  0.00  0.00    +0.000 C 
ATOM      7  O   UNL     1       1.478  11.943  20.828  0.00  0.00    +0.000 OA
ATOM      8  N   UNL     1       1.413  12.156  18.526  0.00  0.00    +0.000 N 
ATOM      9  H   UNL     1       0.759  11.956  17.775  0.00  0.00    +0.000 HD
BRANCH   8  10
ATOM     10  C   UNL     1       2.079  13.418  18.482  0.00  0.00    +0.000 A 
ATOM     11  C   UNL     1       3.475  13.466  18.321  0.00  0.00    +0.000 A 
ATOM     12  C   UNL     1       4.153  14.688  18.239  0.00  0.00    +0.000 A 
ATOM     13  C   UNL     1       3.451  15.882  18.331  0.00  0.00    +0.000 A 
ATOM     14  C   UNL     1       2.066  15.848  18.497  0.00  0.00    +0.000 A 
ATOM     15  C   UNL     1       1.365  14.628  18.568  0.00  0.00    +0.000 A 
BRANCH  15  16
ATOM     16  C   UNL     1      -0.113  14.693  18.846  0.00  0.00    +0.000 C 
ATOM     17  F   UNL     1      -0.453  14.425  20.139  0.00  0.00    +0.000 F 
ATOM     18  F   UNL     1      -0.642  15.916  18.568  0.00  0.00    +0.000 F 
ATOM     19  F   UNL     1      -0.821  13.802  18.094  0.00  0.00    +0.000 F 
ENDBRANCH  15  16
ENDBRANCH   8  10
ENDBRANCH   5   6
ENDBRANCH   2   5
BRANCH   3  20
ATOM     20  C   UNL     1       2.847   7.222  18.517  0.00  0.00    +0.000 C 
BRANCH  20  21
ATOM     21  O   UNL     1       3.631   7.089  17.335  0.00  0.00    +0.000 OA
BRANCH  21  22
ATOM     22  C   UNL     1       4.718   6.252  17.328  0.00  0.00    +0.000 A 
ATOM     23  C   UNL     1       5.945   6.944  17.271  0.00  0.00    +0.000 A 
ATOM     24  C   UNL     1       7.168   6.275  17.146  0.00  0.00    +0.000 A 
ATOM     25  C   UNL     1       7.193   4.897  17.083  0.00  0.00    +0.000 A 
ATOM     26  C   UNL     1       5.991   4.194  17.120  0.00  0.00    +0.000 A 
ATOM     27  C   UNL     1       4.739   4.852  17.220  0.00  0.00    +0.000 A 
BRANCH  27  28
ATOM     28  C   UNL     1       3.527   3.961  17.072  0.00  0.00    +0.000 C 
BRANCH  28  29
ATOM     29  C   UNL     1       2.795   3.557  18.338  0.00  0.00    +0.000 A 
ATOM     30  C   UNL     1       3.549   3.317  19.498  0.00  0.00    +0.000 A 
ATOM     31  C   UNL     1       2.925   3.091  20.726  0.00  0.00    +0.000 A 
ATOM     32  C   UNL     1       1.537   3.117  20.817  0.00  0.00    +0.000 A 
ATOM     33  C   UNL     1       0.772   3.339  19.674  0.00  0.00    +0.000 A 
ATOM     34  C   UNL     1       1.395   3.550  18.442  0.00  0.00    +0.000 A 
ENDBRANCH  28  29
ENDBRANCH  27  28
ENDBRANCH  21  22
ENDBRANCH  20  21
ENDBRANCH   3  20
TORSDOF 9
ENDMDL
MODEL 5
REMARK VINA RESULT:      -8.5      1.283      3.410
REMARK  Name = 
REMARK  10 active torsions:
REMARK  status: ('A' for Active; 'I' for Inactive)
REMARK    1  A    between atoms: C_1  and  N_2
REMARK    2  A    between atoms: N_2  and  C_3
REMARK    3  A    between atoms: C_3  and  C_4
REMARK    4  A    between atoms: N_6  and  C_7
REMARK    5  A    between atoms: C_12  and  C_13
REMARK    6  A    between atoms: C_17  and  C_19
REMARK    7  A    between atoms: C_19  and  O_20
REMARK    8  A    between atoms: O_20  and  C_21
REMARK    9  A    between atoms: C_26  and  C_27
REMARK   10  A    between atoms: C_27  and  C_28
REMARK                            x       y       z     vdW  Elec       q    Type
REMARK                         _______ _______ _______ _____ _____    ______ ____
ROOT
ATOM      1  C   UNL     1       0.273   9.644  20.761  0.00  0.00    +0.000 C 
ATOM      2  N   UNL     1       0.975   9.535  19.492  0.00  0.00    +0.000 N 
ATOM      3  C   UNL     1       1.757   8.425  19.188  0.00  0.00    +0.000 C 
ATOM      4  O   UNL     1       2.330   8.327  18.098  0.00  0.00    +0.000 OA
ENDROOT
BRANCH   2   5
ATOM      5  C   UNL     1       0.745  10.585  18.472  0.00  0.00    +0.000 C 
BRANCH   5   6
ATOM      6  C   UNL     1      -0.602  11.344  18.555  0.00  0.00    +0.000 C 
ATOM      7  O   UNL     1      -0.649  12.527  18.906  0.00  0.00    +0.000 OA
ATOM      8  N   UNL     1      -1.720  10.616  18.163  0.00  0.00    +0.000 N 
ATOM      9  H   UNL     1      -1.657   9.615  18.320  0.00  0.00    +0.000 HD
BRANCH   8  10
ATOM     10  C   UNL     1      -3.029  11.185  18.148  0.00  0.00    +0.000 A 
ATOM     11  C   UNL     1      -3.532  11.812  19.302  0.00  0.00    +0.000 A 
ATOM     12  C   UNL     1      -4.797  12.409  19.308  0.00  0.00    +0.000 A 
ATOM     13  C   UNL     1      -5.589  12.379  18.167  0.00  0.00    +0.000 A 
ATOM     14  C   UNL     1      -5.104  11.755  17.017  0.00  0.00    +0.000 A 
ATOM     15  C   UNL     1      -3.827  11.160  16.988  0.00  0.00    +0.000 A 
BRANCH  15  16
ATOM     16  C   UNL     1      -3.432  10.428  15.734  0.00  0.00    +0.000 C 
ATOM     17  F   UNL     1      -2.969   9.162  15.946  0.00  0.00    +0.000 F 
ATOM     18  F   UNL     1      -4.465  10.303  14.857  0.00  0.00    +0.000 F 
ATOM     19  F   UNL     1      -2.439  11.066  15.052  0.00  0.00    +0.000 F 
ENDBRANCH  15  16
ENDBRANCH   8  10
ENDBRANCH   5   6
ENDBRANCH   2   5
BRANCH   3  20
ATOM     20  C   UNL     1       1.890   7.298  20.242  0.00  0.00    +0.000 C 
BRANCH  20  21
ATOM     21  O   UNL     1       2.925   6.391  19.873  0.00  0.00    +0.000 OA
BRANCH  21  22
ATOM     22  C   UNL     1       2.656   5.048  19.783  0.00  0.00    +0.000 A 
ATOM     23  C   UNL     1       1.341   4.723  20.172  0.00  0.00    +0.000 A 
ATOM     24  C   UNL     1       0.899   3.398  20.256  0.00  0.00    +0.000 A 
ATOM     25  C   UNL     1       1.762   2.366  19.946  0.00  0.00    +0.000 A 
ATOM     26  C   UNL     1       3.071   2.664  19.576  0.00  0.00    +0.000 A 
ATOM     27  C   UNL     1       3.548   3.999  19.510  0.00  0.00    +0.000 A 
BRANCH  27  28
ATOM     28  C   UNL     1       5.032   4.143  19.264  0.00  0.00    +0.000 C 
BRANCH  28  29
ATOM     29  C   UNL     1       5.486   4.385  17.838  0.00  0.00    +0.000 A 
ATOM     30  C   UNL     1       6.833   4.714  17.611  0.00  0.00    +0.000 A 
ATOM     31  C   UNL     1       7.343   4.799  16.314  0.00  0.00    +0.000 A 
ATOM     32  C   UNL     1       6.519   4.542  15.223  0.00  0.00    +0.000 A 
ATOM     33  C   UNL     1       5.177   4.229  15.427  0.00  0.00    +0.000 A 
ATOM     34  C   UNL     1       4.662   4.158  16.724  0.00  0.00    +0.000 A 
ENDBRANCH  28  29
ENDBRANCH  27  28
ENDBRANCH  21  22
ENDBRANCH  20  21
ENDBRANCH   3  20
TORSDOF 9
ENDMDL
MODEL 6
REMARK VINA RESULT:      -8.4      0.998      1.414
REMARK  Name = 
REMARK  10 active torsions:
REMARK  status: ('A' for Active; 'I' for Inactive)
REMARK    1  A    between atoms: C_1  and  N_2
REMARK    2  A    between atoms: N_2  and  C_3
REMARK    3  A    between atoms: C_3  and  C_4
REMARK    4  A    between atoms: N_6  and  C_7
REMARK    5  A    between atoms: C_12  and  C_13
REMARK    6  A    between atoms: C_17  and  C_19
REMARK    7  A    between atoms: C_19  and  O_20
REMARK    8  A    between atoms: O_20  and  C_21
REMARK    9  A    between atoms: C_26  and  C_27
REMARK   10  A    between atoms: C_27  and  C_28
REMARK                            x       y       z     vdW  Elec       q    Type
REMARK                         _______ _______ _______ _____ _____    ______ ____
ROOT
ATOM      1  C   UNL     1       1.592   9.107  17.487  0.00  0.00    +0.000 C 
ATOM      2  N   UNL     1       1.539   9.056  18.939  0.00  0.00    +0.000 N 
ATOM      3  C   UNL     1       1.918   7.916  19.640  0.00  0.00    +0.000 C 
ATOM      4  O   UNL     1       1.895   7.888  20.875  0.00  0.00    +0.000 OA
ENDROOT
BRANCH   2   5
ATOM      5  C   UNL     1       1.182  10.295  19.671  0.00  0.00    +0.000 C 
BRANCH   5   6
ATOM      6  C   UNL     1      -0.325  10.523  19.945  0.00  0.00    +0.000 C 
ATOM      7  O   UNL     1      -0.937   9.836  20.768  0.00  0.00    +0.000 OA
ATOM      8  N   UNL     1      -0.904  11.574  19.242  0.00  0.00    +0.000 N 
ATOM      9  H   UNL     1      -0.487  11.765  18.335  0.00  0.00    +0.000 HD
BRANCH   8  10
ATOM     10  C   UNL     1      -2.274  11.936  19.411  0.00  0.00    +0.000 A 
ATOM     11  C   UNL     1      -2.655  12.738  20.502  0.00  0.00    +0.000 A 
ATOM     12  C   UNL     1      -3.985  13.139  20.676  0.00  0.00    +0.000 A 
ATOM     13  C   UNL     1      -4.959  12.736  19.772  0.00  0.00    +0.000 A 
ATOM     14  C   UNL     1      -4.595  11.936  18.688  0.00  0.00    +0.000 A 
ATOM     15  C   UNL     1      -3.260  11.533  18.489  0.00  0.00    +0.000 A 
BRANCH  15  16
ATOM     16  C   UNL     1      -2.982  10.593  17.348  0.00  0.00    +0.000 C 
ATOM     17  F   UNL     1      -4.045  10.387  16.519  0.00  0.00    +0.000 F 
ATOM     18  F   UNL     1      -1.967  11.026  16.551  0.00  0.00    +0.000 F 
ATOM     19  F   UNL     1      -2.613   9.352  17.777  0.00  0.00    +0.000 F 
ENDBRANCH  15  16
ENDBRANCH   8  10
ENDBRANCH   5   6
ENDBRANCH   2   5
BRANCH   3  20
ATOM     20  C   UNL     1       2.385   6.673  18.842  0.00  0.00    +0.000 C 
BRANCH  20  21
ATOM     21  O   UNL     1       3.796   6.513  18.949  0.00  0.00    +0.000 OA
BRANCH  21  22
ATOM     22  C   UNL     1       4.489   5.884  17.945  0.00  0.00    +0.000 A 
ATOM     23  C   UNL     1       4.631   6.680  16.791  0.00  0.00    +0.000 A 
ATOM     24  C   UNL     1       5.211   6.186  15.617  0.00  0.00    +0.000 A 
ATOM     25  C   UNL     1       5.670   4.885  15.573  0.00  0.00    +0.000 A 
ATOM     26  C   UNL     1       5.525   4.076  16.697  0.00  0.00    +0.000 A 
ATOM     27  C   UNL     1       4.916   4.547  17.889  0.00  0.00    +0.000 A 
BRANCH  27  28
ATOM     28  C   UNL     1       4.678   3.499  18.951  0.00  0.00    +0.000 C 
BRANCH  28  29
ATOM     29  C   UNL     1       3.239   3.172  19.302  0.00  0.00    +0.000 A 
ATOM     30  C   UNL     1       2.811   3.374  20.625  0.00  0.00    +0.000 A 
ATOM     31  C   UNL     1       1.467   3.237  20.973  0.00  0.00    +0.000 A 
ATOM     32  C   UNL     1       0.524   2.911  20.003  0.00  0.00    +0.000 A 
ATOM     33  C   UNL     1       0.931   2.693  18.688  0.00  0.00    +0.000 A 
ATOM     34  C   UNL     1       2.280   2.816  18.341  0.00  0.00    +0.000 A 
ENDBRANCH  28  29
ENDBRANCH  27  28
ENDBRANCH  21  22
ENDBRANCH  20  21
ENDBRANCH   3  20
TORSDOF 9
ENDMDL
MODEL 7
REMARK VINA RESULT:      -8.3      2.185      2.670
REMARK  Name = 
REMARK  10 active torsions:
REMARK  status: ('A' for Active; 'I' for Inactive)
REMARK    1  A    between atoms: C_1  and  N_2
REMARK    2  A    between atoms: N_2  and  C_3
REMARK    3  A    between atoms: C_3  and  C_4
REMARK    4  A    between atoms: N_6  and  C_7
REMARK    5  A    between atoms: C_12  and  C_13
REMARK    6  A    between atoms: C_17  and  C_19
REMARK    7  A    between atoms: C_19  and  O_20
REMARK    8  A    between atoms: O_20  and  C_21
REMARK    9  A    between atoms: C_26  and  C_27
REMARK   10  A    between atoms: C_27  and  C_28
REMARK                            x       y       z     vdW  Elec       q    Type
REMARK                         _______ _______ _______ _____ _____    ______ ____
ROOT
ATOM      1  C   UNL     1       0.949   8.984  20.709  0.00  0.00    +0.000 C 
ATOM      2  N   UNL     1       1.240   9.447  19.362  0.00  0.00    +0.000 N 
ATOM      3  C   UNL     1       1.961   8.666  18.465  0.00  0.00    +0.000 C 
ATOM      4  O   UNL     1       2.183   9.054  17.313  0.00  0.00    +0.000 OA
ENDROOT
BRANCH   2   5
ATOM      5  C   UNL     1       0.648  10.731  18.920  0.00  0.00    +0.000 C 
BRANCH   5   6
ATOM      6  C   UNL     1      -0.823  10.683  18.437  0.00  0.00    +0.000 C 
ATOM      7  O   UNL     1      -1.239   9.747  17.748  0.00  0.00    +0.000 OA
ATOM      8  N   UNL     1      -1.628  11.729  18.875  0.00  0.00    +0.000 N 
ATOM      9  H   UNL     1      -1.142  12.607  19.032  0.00  0.00    +0.000 HD
BRANCH   8  10
ATOM     10  C   UNL     1      -3.014  11.808  18.547  0.00  0.00    +0.000 A 
ATOM     11  C   UNL     1      -3.464  11.345  17.298  0.00  0.00    +0.000 A 
ATOM     12  C   UNL     1      -4.822  11.377  16.959  0.00  0.00    +0.000 A 
ATOM     13  C   UNL     1      -5.752  11.886  17.857  0.00  0.00    +0.000 A 
ATOM     14  C   UNL     1      -5.318  12.354  19.097  0.00  0.00    +0.000 A 
ATOM     15  C   UNL     1      -3.957  12.317  19.460  0.00  0.00    +0.000 A 
BRANCH  15  16
ATOM     16  C   UNL     1      -3.574  12.933  20.779  0.00  0.00    +0.000 C 
ATOM     17  F   UNL     1      -2.822  14.066  20.671  0.00  0.00    +0.000 F 
ATOM     18  F   UNL     1      -4.658  13.277  21.527  0.00  0.00    +0.000 F 
ATOM     19  F   UNL     1      -2.841  12.085  21.555  0.00  0.00    +0.000 F 
ENDBRANCH  15  16
ENDBRANCH   8  10
ENDBRANCH   5   6
ENDBRANCH   2   5
BRANCH   3  20
ATOM     20  C   UNL     1       2.476   7.281  18.931  0.00  0.00    +0.000 C 
BRANCH  20  21
ATOM     21  O   UNL     1       2.491   6.362  17.844  0.00  0.00    +0.000 OA
BRANCH  21  22
ATOM     22  C   UNL     1       3.673   5.784  17.454  0.00  0.00    +0.000 A 
ATOM     23  C   UNL     1       4.643   6.726  17.059  0.00  0.00    +0.000 A 
ATOM     24  C   UNL     1       5.878   6.340  16.526  0.00  0.00    +0.000 A 
ATOM     25  C   UNL     1       6.173   4.999  16.382  0.00  0.00    +0.000 A 
ATOM     26  C   UNL     1       5.222   4.051  16.750  0.00  0.00    +0.000 A 
ATOM     27  C   UNL     1       3.954   4.420  17.268  0.00  0.00    +0.000 A 
BRANCH  27  28
ATOM     28  C   UNL     1       2.976   3.284  17.453  0.00  0.00    +0.000 C 
BRANCH  28  29
ATOM     29  C   UNL     1       2.459   3.025  18.856  0.00  0.00    +0.000 A 
ATOM     30  C   UNL     1       3.383   2.678  19.855  0.00  0.00    +0.000 A 
ATOM     31  C   UNL     1       2.990   2.577  21.191  0.00  0.00    +0.000 A 
ATOM     32  C   UNL     1       1.672   2.837  21.552  0.00  0.00    +0.000 A 
ATOM     33  C   UNL     1       0.738   3.168  20.573  0.00  0.00    +0.000 A 
ATOM     34  C   UNL     1       1.126   3.255  19.233  0.00  0.00    +0.000 A 
ENDBRANCH  28  29
ENDBRANCH  27  28
ENDBRANCH  21  22
ENDBRANCH  20  21
ENDBRANCH   3  20
TORSDOF 9
ENDMDL
MODEL 8
REMARK VINA RESULT:      -8.3      3.262      5.671
REMARK  Name = 
REMARK  10 active torsions:
REMARK  status: ('A' for Active; 'I' for Inactive)
REMARK    1  A    between atoms: C_1  and  N_2
REMARK    2  A    between atoms: N_2  and  C_3
REMARK    3  A    between atoms: C_3  and  C_4
REMARK    4  A    between atoms: N_6  and  C_7
REMARK    5  A    between atoms: C_12  and  C_13
REMARK    6  A    between atoms: C_17  and  C_19
REMARK    7  A    between atoms: C_19  and  O_20
REMARK    8  A    between atoms: O_20  and  C_21
REMARK    9  A    between atoms: C_26  and  C_27
REMARK   10  A    between atoms: C_27  and  C_28
REMARK                            x       y       z     vdW  Elec       q    Type
REMARK                         _______ _______ _______ _____ _____    ______ ____
ROOT
ATOM      1  C   UNL     1       2.919   5.195  17.882  0.00  0.00    +0.000 C 
ATOM      2  N   UNL     1       3.468   4.441  18.997  0.00  0.00    +0.000 N 
ATOM      3  C   UNL     1       4.511   3.538  18.821  0.00  0.00    +0.000 C 
ATOM      4  O   UNL     1       4.989   2.919  19.777  0.00  0.00    +0.000 OA
ENDROOT
BRANCH   2   5
ATOM      5  C   UNL     1       2.969   4.743  20.359  0.00  0.00    +0.000 C 
BRANCH   5   6
ATOM      6  C   UNL     1       1.874   5.834  20.467  0.00  0.00    +0.000 C 
ATOM      7  O   UNL     1       0.678   5.535  20.533  0.00  0.00    +0.000 OA
ATOM      8  N   UNL     1       2.342   7.141  20.532  0.00  0.00    +0.000 N 
ATOM      9  H   UNL     1       3.221   7.307  20.049  0.00  0.00    +0.000 HD
BRANCH   8  10
ATOM     10  C   UNL     1       1.463   8.257  20.670  0.00  0.00    +0.000 A 
ATOM     11  C   UNL     1       0.818   8.490  21.898  0.00  0.00    +0.000 A 
ATOM     12  C   UNL     1      -0.023   9.595  22.076  0.00  0.00    +0.000 A 
ATOM     13  C   UNL     1      -0.246  10.477  21.027  0.00  0.00    +0.000 A 
ATOM     14  C   UNL     1       0.383  10.254  19.802  0.00  0.00    +0.000 A 
ATOM     15  C   UNL     1       1.243   9.155  19.608  0.00  0.00    +0.000 A 
BRANCH  15  16
ATOM     16  C   UNL     1       1.797   8.943  18.225  0.00  0.00    +0.000 C 
ATOM     17  F   UNL     1       3.110   8.572  18.197  0.00  0.00    +0.000 F 
ATOM     18  F   UNL     1       1.124   7.981  17.537  0.00  0.00    +0.000 F 
ATOM     19  F   UNL     1       1.723  10.068  17.459  0.00  0.00    +0.000 F 
ENDBRANCH  15  16
ENDBRANCH   8  10
ENDBRANCH   5   6
ENDBRANCH   2   5
BRANCH   3  20
ATOM     20  C   UNL     1       5.077   3.325  17.394  0.00  0.00    +0.000 C 
BRANCH  20  21
ATOM     21  O   UNL     1       6.470   3.617  17.362  0.00  0.00    +0.000 OA
BRANCH  21  22
ATOM     22  C   UNL     1       6.895   4.921  17.420  0.00  0.00    +0.000 A 
ATOM     23  C   UNL     1       7.605   5.217  18.600  0.00  0.00    +0.000 A 
ATOM     24  C   UNL     1       8.031   6.515  18.904  0.00  0.00    +0.000 A 
ATOM     25  C   UNL     1       7.762   7.547  18.028  0.00  0.00    +0.000 A 
ATOM     26  C   UNL     1       7.048   7.280  16.863  0.00  0.00    +0.000 A 
ATOM     27  C   UNL     1       6.583   5.977  16.548  0.00  0.00    +0.000 A 
BRANCH  27  28
ATOM     28  C   UNL     1       5.678   5.888  15.342  0.00  0.00    +0.000 C 
BRANCH  28  29
ATOM     29  C   UNL     1       6.125   5.003  14.193  0.00  0.00    +0.000 A 
ATOM     30  C   UNL     1       5.255   3.995  13.748  0.00  0.00    +0.000 A 
ATOM     31  C   UNL     1       5.544   3.251  12.602  0.00  0.00    +0.000 A 
ATOM     32  C   UNL     1       6.701   3.514  11.875  0.00  0.00    +0.000 A 
ATOM     33  C   UNL     1       7.584   4.500  12.310  0.00  0.00    +0.000 A 
ATOM     34  C   UNL     1       7.302   5.235  13.464  0.00  0.00    +0.000 A 
ENDBRANCH  28  29
ENDBRANCH  27  28
ENDBRANCH  21  22
ENDBRANCH  20  21
ENDBRANCH   3  20
TORSDOF 9
ENDMDL
MODEL 9
REMARK VINA RESULT:      -8.3      2.196      4.094
REMARK  Name = 
REMARK  10 active torsions:
REMARK  status: ('A' for Active; 'I' for Inactive)
REMARK    1  A    between atoms: C_1  and  N_2
REMARK    2  A    between atoms: N_2  and  C_3
REMARK    3  A    between atoms: C_3  and  C_4
REMARK    4  A    between atoms: N_6  and  C_7
REMARK    5  A    between atoms: C_12  and  C_13
REMARK    6  A    between atoms: C_17  and  C_19
REMARK    7  A    between atoms: C_19  and  O_20
REMARK    8  A    between atoms: O_20  and  C_21
REMARK    9  A    between atoms: C_26  and  C_27
REMARK   10  A    between atoms: C_27  and  C_28
REMARK                            x       y       z     vdW  Elec       q    Type
REMARK                         _______ _______ _______ _____ _____    ______ ____
ROOT
ATOM      1  C   UNL     1       1.029   8.876  20.554  0.00  0.00    +0.000 C 
ATOM      2  N   UNL     1       1.395   9.249  19.198  0.00  0.00    +0.000 N 
ATOM      3  C   UNL     1       2.158   8.409  18.394  0.00  0.00    +0.000 C 
ATOM      4  O   UNL     1       2.445   8.720  17.233  0.00  0.00    +0.000 OA
ENDROOT
BRANCH   2   5
ATOM      5  C   UNL     1       0.835  10.503  18.641  0.00  0.00    +0.000 C 
BRANCH   5   6
ATOM      6  C   UNL     1      -0.667  10.480  18.266  0.00  0.00    +0.000 C 
ATOM      7  O   UNL     1      -1.180   9.490  17.736  0.00  0.00    +0.000 OA
ATOM      8  N   UNL     1      -1.384  11.620  18.614  0.00  0.00    +0.000 N 
ATOM      9  H   UNL     1      -0.844  12.481  18.620  0.00  0.00    +0.000 HD
BRANCH   8  10
ATOM     10  C   UNL     1      -2.785  11.740  18.370  0.00  0.00    +0.000 A 
ATOM     11  C   UNL     1      -3.312  11.356  17.124  0.00  0.00    +0.000 A 
ATOM     12  C   UNL     1      -4.686  11.429  16.866  0.00  0.00    +0.000 A 
ATOM     13  C   UNL     1      -5.555  11.899  17.841  0.00  0.00    +0.000 A 
ATOM     14  C   UNL     1      -5.044  12.288  19.080  0.00  0.00    +0.000 A 
ATOM     15  C   UNL     1      -3.666  12.210  19.363  0.00  0.00    +0.000 A 
BRANCH  15  16
ATOM     16  C   UNL     1      -3.199  12.743  20.690  0.00  0.00    +0.000 C 
ATOM     17  F   UNL     1      -2.394  11.889  21.386  0.00  0.00    +0.000 F 
ATOM     18  F   UNL     1      -2.494  13.901  20.566  0.00  0.00    +0.000 F 
ATOM     19  F   UNL     1      -4.236  13.027  21.529  0.00  0.00    +0.000 F 
ENDBRANCH  15  16
ENDBRANCH   8  10
ENDBRANCH   5   6
ENDBRANCH   2   5
BRANCH   3  20
ATOM     20  C   UNL     1       2.640   7.057  18.977  0.00  0.00    +0.000 C 
BRANCH  20  21
ATOM     21  O   UNL     1       2.053   5.970  18.268  0.00  0.00    +0.000 OA
BRANCH  21  22
ATOM     22  C   UNL     1       2.013   4.724  18.840  0.00  0.00    +0.000 A 
ATOM     23  C   UNL     1       1.239   4.683  20.017  0.00  0.00    +0.000 A 
ATOM     24  C   UNL     1       1.158   3.533  20.812  0.00  0.00    +0.000 A 
ATOM     25  C   UNL     1       1.844   2.395  20.442  0.00  0.00    +0.000 A 
ATOM     26  C   UNL     1       2.628   2.417  19.291  0.00  0.00    +0.000 A 
ATOM     27  C   UNL     1       2.746   3.579  18.486  0.00  0.00    +0.000 A 
BRANCH  27  28
ATOM     28  C   UNL     1       3.768   3.495  17.375  0.00  0.00    +0.000 C 
BRANCH  28  29
ATOM     29  C   UNL     1       5.108   4.168  17.603  0.00  0.00    +0.000 A 
ATOM     30  C   UNL     1       5.919   4.437  16.489  0.00  0.00    +0.000 A 
ATOM     31  C   UNL     1       7.089   5.188  16.618  0.00  0.00    +0.000 A 
ATOM     32  C   UNL     1       7.460   5.694  17.860  0.00  0.00    +0.000 A 
ATOM     33  C   UNL     1       6.675   5.425  18.979  0.00  0.00    +0.000 A 
ATOM     34  C   UNL     1       5.511   4.662  18.854  0.00  0.00    +0.000 A 
ENDBRANCH  28  29
ENDBRANCH  27  28
ENDBRANCH  21  22
ENDBRANCH  20  21
ENDBRANCH   3  20
TORSDOF 9
ENDMDL
