MODEL 1
REMARK VINA RESULT:      -8.0      0.000      0.000
REMARK  Name = 
REMARK  3 active torsions:
REMARK  status: ('A' for Active; 'I' for Inactive)
REMARK    1  A    between atoms: N_1  and  C_2
REMARK    2  A    between atoms: C_5  and  C_6
REMARK    3  A    between atoms: C_13  and  C_14
REMARK                            x       y       z     vdW  Elec       q    Type
REMARK                         _______ _______ _______ _____ _____    ______ ____
ROOT
ATOM      1  C   UNL     1       3.887   5.557  19.289  0.00  0.00    +0.000 C 
ATOM      2  O   UNL     1       3.251   4.668  19.882  0.00  0.00    +0.000 OA
ATOM      3  N   UNL     1       3.246   6.844  19.224  0.00  0.00    +0.000 N 
ATOM      4  C   UNL     1       2.203   6.800  20.253  0.00  0.00    +0.000 C 
ATOM      5  C   UNL     1       1.521   8.064  20.697  0.00  0.00    +0.000 C 
ATOM      6  C   UNL     1       1.191   8.818  19.526  0.00  0.00    +0.000 A 
ATOM      7  N   UNL     1       0.070   9.559  19.454  0.00  0.00    +0.000 N 
ATOM      8  C   UNL     1      -0.024  10.104  18.203  0.00  0.00    +0.000 A 
ATOM      9  N   UNL     1       1.052   9.710  17.474  0.00  0.00    +0.000 NA
ATOM     10  C   UNL     1       1.846   8.850  18.328  0.00  0.00    +0.000 A 
ATOM     11  C   UNL     1       3.167   7.981  18.134  0.00  0.00    +0.000 C 
ATOM     12  H   UNL     1      -0.675   9.569  20.127  0.00  0.00    +0.000 HD
ENDROOT
BRANCH   1  16
ATOM     13  C   UNL     1       6.985   4.647  17.526  0.00  0.00    +0.000 A 
ATOM     14  N   UNL     1       7.370   4.809  18.843  0.00  0.00    +0.000 N 
ATOM     15  N   UNL     1       6.359   5.091  19.709  0.00  0.00    +0.000 NA
ATOM     16  C   UNL     1       5.267   5.154  18.925  0.00  0.00    +0.000 A 
ATOM     17  C   UNL     1       5.623   4.834  17.556  0.00  0.00    +0.000 A 
ATOM     18 CL   UNL     1       4.637   4.707  16.154  0.00  0.00    +0.000 Cl
ATOM     19  H   UNL     1       8.310   4.742  19.186  0.00  0.00    +0.000 HD
BRANCH  13  20
ATOM     20  N   UNL     1       7.826   4.372  16.513  0.00  0.00    +0.000 N 
ATOM     21  H   UNL     1       8.330   3.492  16.385  0.00  0.00    +0.000 HD
ATOM     22  H   UNL     1       8.217   5.144  15.949  0.00  0.00    +0.000 HD
ENDBRANCH  13  20
ENDBRANCH   1  16
BRANCH   8  23
ATOM     23  C   UNL     1      -1.342  10.795  18.018  0.00  0.00    +0.000 A 
ATOM     24  C   UNL     1      -1.865  11.697  18.971  0.00  0.00    +0.000 A 
ATOM     25  C   UNL     1      -3.260  11.938  19.084  0.00  0.00    +0.000 A 
ATOM     26  C   UNL     1      -4.168  11.262  18.275  0.00  0.00    +0.000 A 
ATOM     27  C   UNL     1      -3.683  10.344  17.348  0.00  0.00    +0.000 A 
ATOM     28  C   UNL     1      -2.298  10.128  17.220  0.00  0.00    +0.000 A 
ENDBRANCH   8  23
TORSDOF 3
ENDMDL
MODEL 2
REMARK VINA RESULT:      -8.0      2.709      3.597
REMARK  Name = 
REMARK  3 active torsions:
REMARK  status: ('A' for Active; 'I' for Inactive)
REMARK    1  A    between atoms: N_1  and  C_2
REMARK    2  A    between atoms: C_5  and  C_6
REMARK    3  A    between atoms: C_13  and  C_14
REMARK                            x       y       z     vdW  Elec       q    Type
REMARK                         _______ _______ _______ _____ _____    ______ ____
ROOT
ATOM      1  C   UNL     1       3.967   6.220  18.538  0.00  0.00    +0.000 C 
ATOM      2  O   UNL     1       4.778   6.780  17.780  0.00  0.00    +0.000 OA
ATOM      3  N   UNL     1       2.821   7.004  18.915  0.00  0.00    +0.000 N 
ATOM      4  C   UNL     1       2.771   8.096  17.938  0.00  0.00    +0.000 C 
ATOM      5  C   UNL     1       1.540   8.950  17.816  0.00  0.00    +0.000 C 
ATOM      6  C   UNL     1       1.113   9.295  19.137  0.00  0.00    +0.000 A 
ATOM      7  N   UNL     1       0.558  10.490  19.412  0.00  0.00    +0.000 N 
ATOM      8  C   UNL     1       0.321  10.571  20.756  0.00  0.00    +0.000 A 
ATOM      9  N   UNL     1       0.723   9.414  21.341  0.00  0.00    +0.000 NA
ATOM     10  C   UNL     1       1.262   8.576  20.289  0.00  0.00    +0.000 A 
ATOM     11  C   UNL     1       1.974   7.151  20.238  0.00  0.00    +0.000 C 
ATOM     12  H   UNL     1       0.496  11.270  18.784  0.00  0.00    +0.000 HD
ENDROOT
BRANCH   1  16
ATOM     13  C   UNL     1       3.952   2.541  18.531  0.00  0.00    +0.000 A 
ATOM     14  N   UNL     1       5.159   2.882  19.113  0.00  0.00    +0.000 N 
ATOM     15  N   UNL     1       5.360   4.217  19.282  0.00  0.00    +0.000 NA
ATOM     16  C   UNL     1       4.258   4.782  18.756  0.00  0.00    +0.000 A 
ATOM     17  C   UNL     1       3.335   3.751  18.319  0.00  0.00    +0.000 A 
ATOM     18 CL   UNL     1       1.766   3.886  17.632  0.00  0.00    +0.000 Cl
ATOM     19  H   UNL     1       5.869   2.234  19.400  0.00  0.00    +0.000 HD
BRANCH  13  20
ATOM     20  N   UNL     1       3.560   1.281  18.269  0.00  0.00    +0.000 N 
ATOM     21  H   UNL     1       3.184   0.624  18.955  0.00  0.00    +0.000 HD
ATOM     22  H   UNL     1       3.873   0.819  17.400  0.00  0.00    +0.000 HD
ENDBRANCH  13  20
ENDBRANCH   1  16
BRANCH   8  23
ATOM     23  C   UNL     1      -0.135  11.949  21.137  0.00  0.00    +0.000 A 
ATOM     24  C   UNL     1       0.632  13.103  20.862  0.00  0.00    +0.000 A 
ATOM     25  C   UNL     1       0.503  14.287  21.634  0.00  0.00    +0.000 A 
ATOM     26  C   UNL     1      -0.368  14.338  22.719  0.00  0.00    +0.000 A 
ATOM     27  C   UNL     1      -1.113  13.206  23.032  0.00  0.00    +0.000 A 
ATOM     28  C   UNL     1      -1.002  12.043  22.247  0.00  0.00    +0.000 A 
ENDBRANCH   8  23
TORSDOF 3
ENDMDL
MODEL 3
REMARK VINA RESULT:      -7.8      2.671      3.385
REMARK  Name = 
REMARK  3 active torsions:
REMARK  status: ('A' for Active; 'I' for Inactive)
REMARK    1  A    between atoms: N_1  and  C_2
REMARK    2  A    between atoms: C_5  and  C_6
REMARK    3  A    between atoms: C_13  and  C_14
REMARK                            x       y       z     vdW  Elec       q    Type
REMARK                         _______ _______ _______ _____ _____    ______ ____
ROOT
ATOM      1  C   UNL     1       3.883   6.184  18.527  0.00  0.00    +0.000 C 
ATOM      2  O   UNL     1       4.668   6.710  17.718  0.00  0.00    +0.000 OA
ATOM      3  N   UNL     1       2.784   7.009  18.955  0.00  0.00    +0.000 N 
ATOM      4  C   UNL     1       2.714   8.091  17.968  0.00  0.00    +0.000 C 
ATOM      5  C   UNL     1       1.505   8.981  17.901  0.00  0.00    +0.000 C 
ATOM      6  C   UNL     1       1.162   9.355  19.240  0.00  0.00    +0.000 A 
ATOM      7  N   UNL     1       0.660  10.569  19.529  0.00  0.00    +0.000 N 
ATOM      8  C   UNL     1       0.500  10.674  20.883  0.00  0.00    +0.000 A 
ATOM      9  N   UNL     1       0.898   9.511  21.460  0.00  0.00    +0.000 NA
ATOM     10  C   UNL     1       1.352   8.645  20.391  0.00  0.00    +0.000 A 
ATOM     11  C   UNL     1       2.015   7.198  20.320  0.00  0.00    +0.000 C 
ATOM     12  H   UNL     1       0.588  11.344  18.894  0.00  0.00    +0.000 HD
ENDROOT
BRANCH   1  16
ATOM     13  C   UNL     1       3.759   2.508  18.561  0.00  0.00    +0.000 A 
ATOM     14  N   UNL     1       5.000   2.818  19.084  0.00  0.00    +0.000 N 
ATOM     15  N   UNL     1       5.248   4.148  19.229  0.00  0.00    +0.000 NA
ATOM     16  C   UNL     1       4.140   4.741  18.747  0.00  0.00    +0.000 A 
ATOM     17  C   UNL     1       3.168   3.734  18.364  0.00  0.00    +0.000 A 
ATOM     18 CL   UNL     1       1.574   3.909  17.748  0.00  0.00    +0.000 Cl
ATOM     19  H   UNL     1       5.703   2.152  19.345  0.00  0.00    +0.000 HD
BRANCH  13  20
ATOM     20  N   UNL     1       3.317   1.258  18.332  0.00  0.00    +0.000 N 
ATOM     21  H   UNL     1       2.674   0.985  17.587  0.00  0.00    +0.000 HD
ATOM     22  H   UNL     1       3.399   0.544  19.074  0.00  0.00    +0.000 HD
ENDBRANCH  13  20
ENDBRANCH   1  16
BRANCH   8  23
ATOM     23  C   UNL     1       0.109  12.069  21.269  0.00  0.00    +0.000 A 
ATOM     24  C   UNL     1      -0.741  12.341  22.365  0.00  0.00    +0.000 A 
ATOM     25  C   UNL     1      -1.519  13.527  22.430  0.00  0.00    +0.000 A 
ATOM     26  C   UNL     1      -1.495  14.453  21.390  0.00  0.00    +0.000 A 
ATOM     27  C   UNL     1      -0.690  14.195  20.285  0.00  0.00    +0.000 A 
ATOM     28  C   UNL     1       0.100  13.032  20.237  0.00  0.00    +0.000 A 
ENDBRANCH   8  23
TORSDOF 3
ENDMDL
MODEL 4
REMARK VINA RESULT:      -7.8      1.305      1.504
REMARK  Name = 
REMARK  3 active torsions:
REMARK  status: ('A' for Active; 'I' for Inactive)
REMARK    1  A    between atoms: N_1  and  C_2
REMARK    2  A    between atoms: C_5  and  C_6
REMARK    3  A    between atoms: C_13  and  C_14
REMARK                            x       y       z     vdW  Elec       q    Type
REMARK                         _______ _______ _______ _____ _____    ______ ____
ROOT
ATOM      1  C   UNL     1       2.811   5.825  19.793  0.00  0.00    +0.000 C 
ATOM      2  O   UNL     1       2.215   5.092  20.602  0.00  0.00    +0.000 OA
ATOM      3  N   UNL     1       2.342   7.184  19.722  0.00  0.00    +0.000 N 
ATOM      4  C   UNL     1       1.559   7.379  20.946  0.00  0.00    +0.000 C 
ATOM      5  C   UNL     1       1.161   8.762  21.380  0.00  0.00    +0.000 C 
ATOM      6  C   UNL     1       0.676   9.461  20.229  0.00  0.00    +0.000 A 
ATOM      7  N   UNL     1      -0.328  10.353  20.313  0.00  0.00    +0.000 N 
ATOM      8  C   UNL     1      -0.629  10.803  19.057  0.00  0.00    +0.000 A 
ATOM      9  N   UNL     1       0.196  10.195  18.166  0.00  0.00    +0.000 NA
ATOM     10  C   UNL     1       1.045   9.298  18.924  0.00  0.00    +0.000 A 
ATOM     11  C   UNL     1       2.166   8.228  18.553  0.00  0.00    +0.000 C 
ATOM     12  H   UNL     1      -0.895  10.528  21.122  0.00  0.00    +0.000 HD
ENDROOT
BRANCH   1  16
ATOM     13  C   UNL     1       5.198   4.059  17.622  0.00  0.00    +0.000 A 
ATOM     14  N   UNL     1       5.983   4.649  18.594  0.00  0.00    +0.000 N 
ATOM     15  N   UNL     1       5.299   5.316  19.562  0.00  0.00    +0.000 NA
ATOM     16  C   UNL     1       4.010   5.193  19.194  0.00  0.00    +0.000 A 
ATOM     17  C   UNL     1       3.913   4.368  18.004  0.00  0.00    +0.000 A 
ATOM     18 CL   UNL     1       2.532   3.834  17.133  0.00  0.00    +0.000 Cl
ATOM     19  H   UNL     1       6.986   4.624  18.625  0.00  0.00    +0.000 HD
BRANCH  13  20
ATOM     20  N   UNL     1       5.674   3.360  16.576  0.00  0.00    +0.000 N 
ATOM     21  H   UNL     1       6.168   2.468  16.636  0.00  0.00    +0.000 HD
ATOM     22  H   UNL     1       5.800   3.828  15.664  0.00  0.00    +0.000 HD
ENDBRANCH  13  20
ENDBRANCH   1  16
BRANCH   8  23
ATOM     23  C   UNL     1      -1.856  11.665  19.078  0.00  0.00    +0.000 A 
ATOM     24  C   UNL     1      -2.260  12.379  20.229  0.00  0.00    +0.000 A 
ATOM     25  C   UNL     1      -3.615  12.748  20.441  0.00  0.00    +0.000 A 
ATOM     26  C   UNL     1      -4.603  12.385  19.530  0.00  0.00    +0.000 A 
ATOM     27  C   UNL     1      -4.238  11.654  18.404  0.00  0.00    +0.000 A 
ATOM     28  C   UNL     1      -2.890  11.314  18.183  0.00  0.00    +0.000 A 
ENDBRANCH   8  23
TORSDOF 3
ENDMDL
MODEL 5
REMARK VINA RESULT:      -7.5      2.551      3.180
REMARK  Name = 
REMARK  3 active torsions:
REMARK  status: ('A' for Active; 'I' for Inactive)
REMARK    1  A    between atoms: N_1  and  C_2
REMARK    2  A    between atoms: C_5  and  C_6
REMARK    3  A    between atoms: C_13  and  C_14
REMARK                            x       y       z     vdW  Elec       q    Type
REMARK                         _______ _______ _______ _____ _____    ______ ____
ROOT
ATOM      1  C   UNL     1       3.606   4.369  17.269  0.00  0.00    +0.000 C 
ATOM      2  O   UNL     1       2.817   3.408  17.264  0.00  0.00    +0.000 OA
ATOM      3  N   UNL     1       3.314   5.410  18.220  0.00  0.00    +0.000 N 
ATOM      4  C   UNL     1       2.388   4.799  19.179  0.00  0.00    +0.000 C 
ATOM      5  C   UNL     1       2.096   5.475  20.488  0.00  0.00    +0.000 C 
ATOM      6  C   UNL     1       1.870   6.864  20.224  0.00  0.00    +0.000 A 
ATOM      7  N   UNL     1       0.975   7.582  20.927  0.00  0.00    +0.000 N 
ATOM      8  C   UNL     1       0.916   8.847  20.411  0.00  0.00    +0.000 A 
ATOM      9  N   UNL     1       1.786   8.935  19.372  0.00  0.00    +0.000 NA
ATOM     10  C   UNL     1       2.404   7.633  19.229  0.00  0.00    +0.000 A 
ATOM     11  C   UNL     1       3.435   6.982  18.203  0.00  0.00    +0.000 C 
ATOM     12  H   UNL     1       0.320   7.217  21.594  0.00  0.00    +0.000 HD
ENDROOT
BRANCH   1  16
ATOM     13  C   UNL     1       6.554   4.775  15.107  0.00  0.00    +0.000 A 
ATOM     14  N   UNL     1       6.574   3.443  15.475  0.00  0.00    +0.000 N 
ATOM     15  N   UNL     1       5.523   3.040  16.239  0.00  0.00    +0.000 NA
ATOM     16  C   UNL     1       4.799   4.161  16.413  0.00  0.00    +0.000 A 
ATOM     17  C   UNL     1       5.398   5.256  15.675  0.00  0.00    +0.000 A 
ATOM     18 CL   UNL     1       4.880   6.884  15.488  0.00  0.00    +0.000 Cl
ATOM     19  H   UNL     1       7.290   2.783  15.231  0.00  0.00    +0.000 HD
BRANCH  13  20
ATOM     20  N   UNL     1       7.499   5.375  14.361  0.00  0.00    +0.000 N 
ATOM     21  H   UNL     1       8.500   5.376  14.563  0.00  0.00    +0.000 HD
ATOM     22  H   UNL     1       7.226   6.102  13.679  0.00  0.00    +0.000 HD
ENDBRANCH  13  20
ENDBRANCH   1  16
BRANCH   8  23
ATOM     23  C   UNL     1      -0.192   9.633  21.047  0.00  0.00    +0.000 A 
ATOM     24  C   UNL     1      -0.618  10.883  20.545  0.00  0.00    +0.000 A 
ATOM     25  C   UNL     1      -1.248  11.846  21.377  0.00  0.00    +0.000 A 
ATOM     26  C   UNL     1      -1.438  11.600  22.734  0.00  0.00    +0.000 A 
ATOM     27  C   UNL     1      -1.000  10.389  23.261  0.00  0.00    +0.000 A 
ATOM     28  C   UNL     1      -0.400   9.427  22.428  0.00  0.00    +0.000 A 
ENDBRANCH   8  23
TORSDOF 3
ENDMDL
MODEL 6
REMARK VINA RESULT:      -7.5      3.661      8.774
REMARK  Name = 
REMARK  3 active torsions:
REMARK  status: ('A' for Active; 'I' for Inactive)
REMARK    1  A    between atoms: N_1  and  C_2
REMARK    2  A    between atoms: C_5  and  C_6
REMARK    3  A    between atoms: C_13  and  C_14
REMARK                            x       y       z     vdW  Elec       q    Type
REMARK                         _______ _______ _______ _____ _____    ______ ____
ROOT
ATOM      1  C   UNL     1       0.488  10.775  20.740  0.00  0.00    +0.000 C 
ATOM      2  O   UNL     1       0.829  10.807  21.936  0.00  0.00    +0.000 OA
ATOM      3  N   UNL     1       0.913   9.614  20.002  0.00  0.00    +0.000 N 
ATOM      4  C   UNL     1       1.275   8.627  21.024  0.00  0.00    +0.000 C 
ATOM      5  C   UNL     1       1.475   7.185  20.648  0.00  0.00    +0.000 C 
ATOM      6  C   UNL     1       2.268   7.148  19.458  0.00  0.00    +0.000 A 
ATOM      7  N   UNL     1       3.168   6.173  19.237  0.00  0.00    +0.000 N 
ATOM      8  C   UNL     1       3.827   6.432  18.067  0.00  0.00    +0.000 A 
ATOM      9  N   UNL     1       3.336   7.581  17.535  0.00  0.00    +0.000 NA
ATOM     10  C   UNL     1       2.325   8.069  18.450  0.00  0.00    +0.000 A 
ATOM     11  C   UNL     1       1.407   9.369  18.524  0.00  0.00    +0.000 C 
ATOM     12  H   UNL     1       3.453   5.472  19.898  0.00  0.00    +0.000 HD
ENDROOT
BRANCH   1  16
ATOM     13  C   UNL     1      -1.054  13.962  19.742  0.00  0.00    +0.000 A 
ATOM     14  N   UNL     1      -2.073  13.034  19.633  0.00  0.00    +0.000 N 
ATOM     15  N   UNL     1      -1.745  11.771  20.019  0.00  0.00    +0.000 NA
ATOM     16  C   UNL     1      -0.448  11.861  20.362  0.00  0.00    +0.000 A 
ATOM     17  C   UNL     1       0.001  13.236  20.243  0.00  0.00    +0.000 A 
ATOM     18 CL   UNL     1       1.527  13.940  20.598  0.00  0.00    +0.000 Cl
ATOM     19  H   UNL     1      -2.997  13.223  19.293  0.00  0.00    +0.000 HD
BRANCH  13  20
ATOM     20  N   UNL     1      -1.166  15.260  19.408  0.00  0.00    +0.000 N 
ATOM     21  H   UNL     1      -0.535  15.767  18.785  0.00  0.00    +0.000 HD
ATOM     22  H   UNL     1      -1.750  15.887  19.985  0.00  0.00    +0.000 HD
ENDBRANCH  13  20
ENDBRANCH   1  16
BRANCH   8  23
ATOM     23  C   UNL     1       4.960   5.470  17.867  0.00  0.00    +0.000 A 
ATOM     24  C   UNL     1       6.138   5.513  18.645  0.00  0.00    +0.000 A 
ATOM     25  C   UNL     1       7.372   5.005  18.162  0.00  0.00    +0.000 A 
ATOM     26  C   UNL     1       7.470   4.474  16.878  0.00  0.00    +0.000 A 
ATOM     27  C   UNL     1       6.332   4.447  16.078  0.00  0.00    +0.000 A 
ATOM     28  C   UNL     1       5.105   4.926  16.572  0.00  0.00    +0.000 A 
ENDBRANCH   8  23
TORSDOF 3
ENDMDL
MODEL 7
REMARK VINA RESULT:      -7.5      2.655      3.601
REMARK  Name = 
REMARK  3 active torsions:
REMARK  status: ('A' for Active; 'I' for Inactive)
REMARK    1  A    between atoms: N_1  and  C_2
REMARK    2  A    between atoms: C_5  and  C_6
REMARK    3  A    between atoms: C_13  and  C_14
REMARK                            x       y       z     vdW  Elec       q    Type
REMARK                         _______ _______ _______ _____ _____    ______ ____
ROOT
ATOM      1  C   UNL     1       4.175   4.616  16.608  0.00  0.00    +0.000 C 
ATOM      2  O   UNL     1       3.703   3.501  16.890  0.00  0.00    +0.000 OA
ATOM      3  N   UNL     1       3.855   5.678  17.526  0.00  0.00    +0.000 N 
ATOM      4  C   UNL     1       3.400   5.002  18.745  0.00  0.00    +0.000 C 
ATOM      5  C   UNL     1       3.269   5.765  20.033  0.00  0.00    +0.000 C 
ATOM      6  C   UNL     1       2.613   7.004  19.743  0.00  0.00    +0.000 A 
ATOM      7  N   UNL     1       1.761   7.574  20.614  0.00  0.00    +0.000 N 
ATOM      8  C   UNL     1       1.231   8.700  20.046  0.00  0.00    +0.000 A 
ATOM      9  N   UNL     1       1.757   8.850  18.803  0.00  0.00    +0.000 NA
ATOM     10  C   UNL     1       2.653   7.731  18.588  0.00  0.00    +0.000 A 
ATOM     11  C   UNL     1       3.533   7.214  17.365  0.00  0.00    +0.000 C 
ATOM     12  H   UNL     1       1.417   7.159  21.460  0.00  0.00    +0.000 HD
ENDROOT
BRANCH   1  16
ATOM     13  C   UNL     1       7.083   4.989  14.388  0.00  0.00    +0.000 A 
ATOM     14  N   UNL     1       6.251   4.108  13.724  0.00  0.00    +0.000 N 
ATOM     15  N   UNL     1       5.062   3.865  14.339  0.00  0.00    +0.000 NA
ATOM     16  C   UNL     1       5.127   4.586  15.472  0.00  0.00    +0.000 A 
ATOM     17  C   UNL     1       6.367   5.340  15.507  0.00  0.00    +0.000 A 
ATOM     18 CL   UNL     1       6.952   6.460  16.672  0.00  0.00    +0.000 Cl
ATOM     19  H   UNL     1       6.464   3.649  12.858  0.00  0.00    +0.000 HD
BRANCH  13  20
ATOM     20  N   UNL     1       8.303   5.360  13.957  0.00  0.00    +0.000 N 
ATOM     21  H   UNL     1       8.817   4.923  13.189  0.00  0.00    +0.000 HD
ATOM     22  H   UNL     1       8.904   5.941  14.563  0.00  0.00    +0.000 HD
ENDBRANCH  13  20
ENDBRANCH   1  16
BRANCH   8  23
ATOM     23  C   UNL     1       0.145   9.274  20.906  0.00  0.00    +0.000 A 
ATOM     24  C   UNL     1      -0.461  10.520  20.630  0.00  0.00    +0.000 A 
ATOM     25  C   UNL     1      -1.068  11.298  21.651  0.00  0.00    +0.000 A 
ATOM     26  C   UNL     1      -1.055  10.869  22.976  0.00  0.00    +0.000 A 
ATOM     27  C   UNL     1      -0.437   9.660  23.281  0.00  0.00    +0.000 A 
ATOM     28  C   UNL     1       0.139   8.879  22.262  0.00  0.00    +0.000 A 
ENDBRANCH   8  23
TORSDOF 3
ENDMDL
MODEL 8
REMARK VINA RESULT:      -7.4      3.229      8.572
REMARK  Name = 
REMARK  3 active torsions:
REMARK  status: ('A' for Active; 'I' for Inactive)
REMARK    1  A    between atoms: N_1  and  C_2
REMARK    2  A    between atoms: C_5  and  C_6
REMARK    3  A    between atoms: C_13  and  C_14
REMARK                            x       y       z     vdW  Elec       q    Type
REMARK                         _______ _______ _______ _____ _____    ______ ____
ROOT
ATOM      1  C   UNL     1       0.773  10.214  21.326  0.00  0.00    +0.000 C 
ATOM      2  O   UNL     1       1.112  10.001  22.504  0.00  0.00    +0.000 OA
ATOM      3  N   UNL     1       1.132   9.191  20.379  0.00  0.00    +0.000 N 
ATOM      4  C   UNL     1       1.433   8.010  21.194  0.00  0.00    +0.000 C 
ATOM      5  C   UNL     1       1.550   6.656  20.552  0.00  0.00    +0.000 C 
ATOM      6  C   UNL     1       2.342   6.798  19.369  0.00  0.00    +0.000 A 
ATOM      7  N   UNL     1       3.185   5.831  18.961  0.00  0.00    +0.000 N 
ATOM      8  C   UNL     1       3.861   6.268  17.856  0.00  0.00    +0.000 A 
ATOM      9  N   UNL     1       3.439   7.523  17.553  0.00  0.00    +0.000 NA
ATOM     10  C   UNL     1       2.455   7.887  18.552  0.00  0.00    +0.000 A 
ATOM     11  C   UNL     1       1.614   9.201  18.878  0.00  0.00    +0.000 C 
ATOM     12  H   UNL     1       3.427   5.004  19.476  0.00  0.00    +0.000 HD
ENDROOT
BRANCH   1  16
ATOM     13  C   UNL     1      -1.860  12.600  20.375  0.00  0.00    +0.000 A 
ATOM     14  N   UNL     1      -1.194  13.216  21.417  0.00  0.00    +0.000 N 
ATOM     15  N   UNL     1      -0.119  12.534  21.898  0.00  0.00    +0.000 NA
ATOM     16  C   UNL     1      -0.097  11.404  21.167  0.00  0.00    +0.000 A 
ATOM     17  C   UNL     1      -1.151  11.440  20.171  0.00  0.00    +0.000 A 
ATOM     18 CL   UNL     1      -1.556  10.308  18.943  0.00  0.00    +0.000 Cl
ATOM     19  H   UNL     1      -1.446  14.095  21.830  0.00  0.00    +0.000 HD
BRANCH  13  20
ATOM     20  N   UNL     1      -2.948  13.101  19.762  0.00  0.00    +0.000 N 
ATOM     21  H   UNL     1      -3.629  13.732  20.188  0.00  0.00    +0.000 HD
ATOM     22  H   UNL     1      -3.299  12.654  18.900  0.00  0.00    +0.000 HD
ENDBRANCH  13  20
ENDBRANCH   1  16
BRANCH   8  23
ATOM     23  C   UNL     1       4.936   5.297  17.467  0.00  0.00    +0.000 A 
ATOM     24  C   UNL     1       6.172   5.223  18.150  0.00  0.00    +0.000 A 
ATOM     25  C   UNL     1       7.344   4.730  17.519  0.00  0.00    +0.000 A 
ATOM     26  C   UNL     1       7.322   4.333  16.185  0.00  0.00    +0.000 A 
ATOM     27  C   UNL     1       6.127   4.425  15.480  0.00  0.00    +0.000 A 
ATOM     28  C   UNL     1       4.960   4.888  16.116  0.00  0.00    +0.000 A 
ENDBRANCH   8  23
TORSDOF 3
ENDMDL
MODEL 9
REMARK VINA RESULT:      -7.4      3.731      8.938
REMARK  Name = 
REMARK  3 active torsions:
REMARK  status: ('A' for Active; 'I' for Inactive)
REMARK    1  A    between atoms: N_1  and  C_2
REMARK    2  A    between atoms: C_5  and  C_6
REMARK    3  A    between atoms: C_13  and  C_14
REMARK                            x       y       z     vdW  Elec       q    Type
REMARK                         _______ _______ _______ _____ _____    ______ ____
ROOT
ATOM      1  C   UNL     1       0.440  10.757  20.750  0.00  0.00    +0.000 C 
ATOM      2  O   UNL     1       0.813  10.844  21.933  0.00  0.00    +0.000 OA
ATOM      3  N   UNL     1       0.879   9.582  20.044  0.00  0.00    +0.000 N 
ATOM      4  C   UNL     1       1.299   8.645  21.091  0.00  0.00    +0.000 C 
ATOM      5  C   UNL     1       1.533   7.197  20.764  0.00  0.00    +0.000 C 
ATOM      6  C   UNL     1       2.293   7.137  19.553  0.00  0.00    +0.000 A 
ATOM      7  N   UNL     1       3.216   6.181  19.342  0.00  0.00    +0.000 N 
ATOM      8  C   UNL     1       3.833   6.415  18.145  0.00  0.00    +0.000 A 
ATOM      9  N   UNL     1       3.293   7.528  17.585  0.00  0.00    +0.000 NA
ATOM     10  C   UNL     1       2.293   8.020  18.510  0.00  0.00    +0.000 A 
ATOM     11  C   UNL     1       1.338   9.295  18.562  0.00  0.00    +0.000 C 
ATOM     12  H   UNL     1       3.540   5.516  20.020  0.00  0.00    +0.000 HD
ENDROOT
BRANCH   1  16
ATOM     13  C   UNL     1      -2.204  13.313  20.679  0.00  0.00    +0.000 A 
ATOM     14  N   UNL     1      -1.593  13.411  19.444  0.00  0.00    +0.000 N 
ATOM     15  N   UNL     1      -0.607  12.502  19.215  0.00  0.00    +0.000 NA
ATOM     16  C   UNL     1      -0.539  11.799  20.360  0.00  0.00    +0.000 A 
ATOM     17  C   UNL     1      -1.563  12.256  21.281  0.00  0.00    +0.000 A 
ATOM     18 CL   UNL     1      -1.976  11.690  22.850  0.00  0.00    +0.000 Cl
ATOM     19  H   UNL     1      -1.817  14.087  18.737  0.00  0.00    +0.000 HD
BRANCH  13  20
ATOM     20  N   UNL     1      -3.195  14.116  21.107  0.00  0.00    +0.000 N 
ATOM     21  H   UNL     1      -3.086  14.891  21.764  0.00  0.00    +0.000 HD
ATOM     22  H   UNL     1      -4.178  13.818  20.997  0.00  0.00    +0.000 HD
ENDBRANCH  13  20
ENDBRANCH   1  16
BRANCH   8  23
ATOM     23  C   UNL     1       4.989   5.479  17.947  0.00  0.00    +0.000 A 
ATOM     24  C   UNL     1       6.181   5.579  18.698  0.00  0.00    +0.000 A 
ATOM     25  C   UNL     1       7.419   5.092  18.202  0.00  0.00    +0.000 A 
ATOM     26  C   UNL     1       7.505   4.526  16.933  0.00  0.00    +0.000 A 
ATOM     27  C   UNL     1       6.352   4.444  16.159  0.00  0.00    +0.000 A 
ATOM     28  C   UNL     1       5.122   4.902  16.665  0.00  0.00    +0.000 A 
ENDBRANCH   8  23
TORSDOF 3
ENDMDL
