MODEL 1
REMARK VINA RESULT:      -6.1      0.000      0.000
REMARK  Name = 
REMARK  4 active torsions:
REMARK  status: ('A' for Active; 'I' for Inactive)
REMARK    1  A    between atoms: C_2  and  C_3
REMARK    2  A    between atoms: C_3  and  O_4
REMARK    3  A    between atoms: O_4  and  C_5
REMARK    4  A    between atoms: C_5  and  C_7
REMARK                            x       y       z     vdW  Elec       q    Type
REMARK                         _______ _______ _______ _____ _____    ______ ____
ROOT
ATOM      1  C   UNL     1       5.029   4.625  16.666  0.00  0.00    +0.000 C 
ATOM      2  C   UNL     1       4.412   3.651  17.423  0.00  0.00    +0.000 C 
ATOM      3  S   UNL     1       4.625   3.842  19.277  0.00  0.00    +0.000 S 
ATOM      4  C   UNL     1       5.528   5.322  18.871  0.00  0.00    +0.000 C 
ATOM      5  C   UNL     1       7.003   5.587  19.079  0.00  0.00    +0.000 C 
ATOM      6  C   UNL     1       7.265   4.655  17.796  0.00  0.00    +0.000 C 
ATOM      7  O   UNL     1       8.105   4.228  17.042  0.00  0.00    +0.000 OA
ATOM      8  N   UNL     1       5.944   4.713  17.645  0.00  0.00    +0.000 N 
ENDROOT
BRANCH   1   9
ATOM      9  C   UNL     1       5.787   5.813  15.806  0.00  0.00    +0.000 C 
ATOM     10  O   UNL     1       6.061   6.919  16.259  0.00  0.00    +0.000 OA
BRANCH   9  11
ATOM     11  O   UNL     1       6.399   5.274  14.650  0.00  0.00    +0.000 OA
BRANCH  11  12
ATOM     12  C   UNL     1       6.353   3.920  14.007  0.00  0.00    +0.000 C 
BRANCH  12  14
ATOM     13  C   UNL     1       5.318   2.980  11.846  0.00  0.00    +0.000 C 
ATOM     14  C   UNL     1       6.280   3.709  12.440  0.00  0.00    +0.000 C 
ENDBRANCH  12  14
ENDBRANCH  11  12
ENDBRANCH   9  11
ENDBRANCH   1   9
TORSDOF 4
ENDMDL
MODEL 2
REMARK VINA RESULT:      -5.9      2.815      4.550
REMARK  Name = 
REMARK  4 active torsions:
REMARK  status: ('A' for Active; 'I' for Inactive)
REMARK    1  A    between atoms: C_2  and  C_3
REMARK    2  A    between atoms: C_3  and  O_4
REMARK    3  A    between atoms: O_4  and  C_5
REMARK    4  A    between atoms: C_5  and  C_7
REMARK                            x       y       z     vdW  Elec       q    Type
REMARK                         _______ _______ _______ _____ _____    ______ ____
ROOT
ATOM      1  C   UNL     1       6.555   5.409  18.968  0.00  0.00    +0.000 C 
ATOM      2  C   UNL     1       7.711   6.118  18.711  0.00  0.00    +0.000 C 
ATOM      3  S   UNL     1       7.530   7.493  17.449  0.00  0.00    +0.000 S 
ATOM      4  C   UNL     1       5.813   7.021  17.401  0.00  0.00    +0.000 C 
ATOM      5  C   UNL     1       5.060   6.403  16.243  0.00  0.00    +0.000 C 
ATOM      6  C   UNL     1       5.793   5.022  16.612  0.00  0.00    +0.000 C 
ATOM      7  O   UNL     1       5.871   3.846  16.350  0.00  0.00    +0.000 OA
ATOM      8  N   UNL     1       6.192   5.674  17.702  0.00  0.00    +0.000 N 
ENDROOT
BRANCH   1   9
ATOM      9  C   UNL     1       5.146   4.593  19.237  0.00  0.00    +0.000 C 
ATOM     10  O   UNL     1       5.074   3.377  19.377  0.00  0.00    +0.000 OA
BRANCH   9  11
ATOM     11  O   UNL     1       4.129   5.484  19.653  0.00  0.00    +0.000 OA
BRANCH  11  12
ATOM     12  C   UNL     1       2.721   5.715  19.191  0.00  0.00    +0.000 C 
BRANCH  12  14
ATOM     13  C   UNL     1       1.751   3.690  17.932  0.00  0.00    +0.000 C 
ATOM     14  C   UNL     1       2.095   4.991  17.930  0.00  0.00    +0.000 C 
ENDBRANCH  12  14
ENDBRANCH  11  12
ENDBRANCH   9  11
ENDBRANCH   1   9
TORSDOF 4
ENDMDL
MODEL 3
REMARK VINA RESULT:      -5.9      3.894      5.309
REMARK  Name = 
REMARK  4 active torsions:
REMARK  status: ('A' for Active; 'I' for Inactive)
REMARK    1  A    between atoms: C_2  and  C_3
REMARK    2  A    between atoms: C_3  and  O_4
REMARK    3  A    between atoms: O_4  and  C_5
REMARK    4  A    between atoms: C_5  and  C_7
REMARK                            x       y       z     vdW  Elec       q    Type
REMARK                         _______ _______ _______ _____ _____    ______ ____
ROOT
ATOM      1  C   UNL     1       3.242   2.236  19.146  0.00  0.00    +0.000 C 
ATOM      2  C   UNL     1       2.049   1.998  18.495  0.00  0.00    +0.000 C 
ATOM      3  S   UNL     1       0.835   3.427  18.527  0.00  0.00    +0.000 S 
ATOM      4  C   UNL     1       2.112   4.299  19.410  0.00  0.00    +0.000 C 
ATOM      5  C   UNL     1       2.082   4.765  20.849  0.00  0.00    +0.000 C 
ATOM      6  C   UNL     1       2.351   3.237  21.263  0.00  0.00    +0.000 C 
ATOM      7  O   UNL     1       2.563   2.487  22.185  0.00  0.00    +0.000 OA
ATOM      8  N   UNL     1       2.557   3.055  19.961  0.00  0.00    +0.000 N 
ENDROOT
BRANCH   1   9
ATOM      9  C   UNL     1       4.651   2.572  19.938  0.00  0.00    +0.000 C 
ATOM     10  O   UNL     1       5.248   1.767  20.645  0.00  0.00    +0.000 OA
BRANCH   9  11
ATOM     11  O   UNL     1       5.255   3.734  19.404  0.00  0.00    +0.000 OA
BRANCH  11  12
ATOM     12  C   UNL     1       5.465   4.224  18.002  0.00  0.00    +0.000 C 
BRANCH  12  14
ATOM     13  C   UNL     1       4.380   6.513  17.548  0.00  0.00    +0.000 C 
ATOM     14  C   UNL     1       5.492   5.759  17.618  0.00  0.00    +0.000 C 
ENDBRANCH  12  14
ENDBRANCH  11  12
ENDBRANCH   9  11
ENDBRANCH   1   9
TORSDOF 4
ENDMDL
MODEL 4
REMARK VINA RESULT:      -5.9      2.727      4.569
REMARK  Name = 
REMARK  4 active torsions:
REMARK  status: ('A' for Active; 'I' for Inactive)
REMARK    1  A    between atoms: C_2  and  C_3
REMARK    2  A    between atoms: C_3  and  O_4
REMARK    3  A    between atoms: O_4  and  C_5
REMARK    4  A    between atoms: C_5  and  C_7
REMARK                            x       y       z     vdW  Elec       q    Type
REMARK                         _______ _______ _______ _____ _____    ______ ____
ROOT
ATOM      1  C   UNL     1       4.572   5.117  18.190  0.00  0.00    +0.000 C 
ATOM      2  C   UNL     1       4.491   6.424  17.759  0.00  0.00    +0.000 C 
ATOM      3  S   UNL     1       5.038   6.706  15.988  0.00  0.00    +0.000 S 
ATOM      4  C   UNL     1       5.295   4.945  15.943  0.00  0.00    +0.000 C 
ATOM      5  C   UNL     1       6.611   4.210  15.810  0.00  0.00    +0.000 C 
ATOM      6  C   UNL     1       6.869   4.562  17.356  0.00  0.00    +0.000 C 
ATOM      7  O   UNL     1       7.612   4.401  18.293  0.00  0.00    +0.000 OA
ATOM      8  N   UNL     1       5.603   4.971  17.341  0.00  0.00    +0.000 N 
ENDROOT
BRANCH   1   9
ATOM      9  C   UNL     1       4.690   3.537  18.656  0.00  0.00    +0.000 C 
ATOM     10  O   UNL     1       5.105   3.175  19.752  0.00  0.00    +0.000 OA
BRANCH   9  11
ATOM     11  O   UNL     1       3.918   2.711  17.807  0.00  0.00    +0.000 OA
BRANCH  11  12
ATOM     12  C   UNL     1       2.477   2.293  17.823  0.00  0.00    +0.000 C 
BRANCH  12  14
ATOM     13  C   UNL     1       0.957   3.124  19.726  0.00  0.00    +0.000 C 
ATOM     14  C   UNL     1       1.323   3.188  18.433  0.00  0.00    +0.000 C 
ENDBRANCH  12  14
ENDBRANCH  11  12
ENDBRANCH   9  11
ENDBRANCH   1   9
TORSDOF 4
ENDMDL
MODEL 5
REMARK VINA RESULT:      -5.8      3.482      4.881
REMARK  Name = 
REMARK  4 active torsions:
REMARK  status: ('A' for Active; 'I' for Inactive)
REMARK    1  A    between atoms: C_2  and  C_3
REMARK    2  A    between atoms: C_3  and  O_4
REMARK    3  A    between atoms: O_4  and  C_5
REMARK    4  A    between atoms: C_5  and  C_7
REMARK                            x       y       z     vdW  Elec       q    Type
REMARK                         _______ _______ _______ _____ _____    ______ ____
ROOT
ATOM      1  C   UNL     1       2.745   5.090  19.912  0.00  0.00    +0.000 C 
ATOM      2  C   UNL     1       1.946   4.761  20.987  0.00  0.00    +0.000 C 
ATOM      3  S   UNL     1       1.805   2.923  21.332  0.00  0.00    +0.000 S 
ATOM      4  C   UNL     1       2.933   2.732  19.968  0.00  0.00    +0.000 C 
ATOM      5  C   UNL     1       2.653   2.094  18.625  0.00  0.00    +0.000 C 
ATOM      6  C   UNL     1       1.867   3.441  18.242  0.00  0.00    +0.000 C 
ATOM      7  O   UNL     1       1.285   4.028  17.362  0.00  0.00    +0.000 OA
ATOM      8  N   UNL     1       2.388   3.913  19.372  0.00  0.00    +0.000 N 
ENDROOT
BRANCH   1   9
ATOM      9  C   UNL     1       3.710   5.429  18.616  0.00  0.00    +0.000 C 
ATOM     10  O   UNL     1       3.494   6.335  17.819  0.00  0.00    +0.000 OA
BRANCH   9  11
ATOM     11  O   UNL     1       4.973   4.810  18.764  0.00  0.00    +0.000 OA
BRANCH  11  12
ATOM     12  C   UNL     1       6.072   4.488  17.795  0.00  0.00    +0.000 C 
BRANCH  12  14
ATOM     13  C   UNL     1       7.529   6.581  18.142  0.00  0.00    +0.000 C 
ATOM     14  C   UNL     1       7.423   5.309  17.715  0.00  0.00    +0.000 C 
ENDBRANCH  12  14
ENDBRANCH  11  12
ENDBRANCH   9  11
ENDBRANCH   1   9
TORSDOF 4
ENDMDL
MODEL 6
REMARK VINA RESULT:      -5.8      3.675      5.798
REMARK  Name = 
REMARK  4 active torsions:
REMARK  status: ('A' for Active; 'I' for Inactive)
REMARK    1  A    between atoms: C_2  and  C_3
REMARK    2  A    between atoms: C_3  and  O_4
REMARK    3  A    between atoms: O_4  and  C_5
REMARK    4  A    between atoms: C_5  and  C_7
REMARK                            x       y       z     vdW  Elec       q    Type
REMARK                         _______ _______ _______ _____ _____    ______ ____
ROOT
ATOM      1  C   UNL     1       4.260   3.668  17.249  0.00  0.00    +0.000 C 
ATOM      2  C   UNL     1       4.840   4.592  16.406  0.00  0.00    +0.000 C 
ATOM      3  S   UNL     1       4.800   6.361  17.028  0.00  0.00    +0.000 S 
ATOM      4  C   UNL     1       4.014   5.678  18.472  0.00  0.00    +0.000 C 
ATOM      5  C   UNL     1       2.593   5.905  18.941  0.00  0.00    +0.000 C 
ATOM      6  C   UNL     1       2.138   4.889  17.782  0.00  0.00    +0.000 C 
ATOM      7  O   UNL     1       1.201   4.304  17.295  0.00  0.00    +0.000 OA
ATOM      8  N   UNL     1       3.441   4.652  17.656  0.00  0.00    +0.000 N 
ENDROOT
BRANCH   1   9
ATOM      9  C   UNL     1       3.551   2.602  18.293  0.00  0.00    +0.000 C 
ATOM     10  O   UNL     1       2.896   1.628  17.938  0.00  0.00    +0.000 OA
BRANCH   9  11
ATOM     11  O   UNL     1       4.103   2.737  19.588  0.00  0.00    +0.000 OA
BRANCH  11  12
ATOM     12  C   UNL     1       3.505   2.697  20.962  0.00  0.00    +0.000 C 
BRANCH  12  14
ATOM     13  C   UNL     1       1.008   3.302  20.802  0.00  0.00    +0.000 C 
ATOM     14  C   UNL     1       1.963   2.455  21.228  0.00  0.00    +0.000 C 
ENDBRANCH  12  14
ENDBRANCH  11  12
ENDBRANCH   9  11
ENDBRANCH   1   9
TORSDOF 4
ENDMDL
MODEL 7
REMARK VINA RESULT:      -5.8      4.145      5.408
REMARK  Name = 
REMARK  4 active torsions:
REMARK  status: ('A' for Active; 'I' for Inactive)
REMARK    1  A    between atoms: C_2  and  C_3
REMARK    2  A    between atoms: C_3  and  O_4
REMARK    3  A    between atoms: O_4  and  C_5
REMARK    4  A    between atoms: C_5  and  C_7
REMARK                            x       y       z     vdW  Elec       q    Type
REMARK                         _______ _______ _______ _____ _____    ______ ____
ROOT
ATOM      1  C   UNL     1       3.446   3.283  18.441  0.00  0.00    +0.000 C 
ATOM      2  C   UNL     1       2.529   2.411  17.893  0.00  0.00    +0.000 C 
ATOM      3  S   UNL     1       0.877   2.344  18.778  0.00  0.00    +0.000 S 
ATOM      4  C   UNL     1       1.563   3.598  19.839  0.00  0.00    +0.000 C 
ATOM      5  C   UNL     1       1.902   3.476  21.308  0.00  0.00    +0.000 C 
ATOM      6  C   UNL     1       3.205   2.653  20.854  0.00  0.00    +0.000 C 
ATOM      7  O   UNL     1       4.218   2.120  21.236  0.00  0.00    +0.000 OA
ATOM      8  N   UNL     1       2.865   3.043  19.628  0.00  0.00    +0.000 N 
ENDROOT
BRANCH   1   9
ATOM      9  C   UNL     1       4.507   4.339  19.137  0.00  0.00    +0.000 C 
ATOM     10  O   UNL     1       5.701   4.108  19.295  0.00  0.00    +0.000 OA
BRANCH   9  11
ATOM     11  O   UNL     1       3.958   5.642  19.172  0.00  0.00    +0.000 OA
BRANCH  11  12
ATOM     12  C   UNL     1       3.063   6.398  18.236  0.00  0.00    +0.000 C 
BRANCH  12  14
ATOM     13  C   UNL     1       2.250   8.795  17.767  0.00  0.00    +0.000 C 
ATOM     14  C   UNL     1       2.361   7.763  18.624  0.00  0.00    +0.000 C 
ENDBRANCH  12  14
ENDBRANCH  11  12
ENDBRANCH   9  11
ENDBRANCH   1   9
TORSDOF 4
ENDMDL
MODEL 8
REMARK VINA RESULT:      -5.8      3.062      5.091
REMARK  Name = 
REMARK  4 active torsions:
REMARK  status: ('A' for Active; 'I' for Inactive)
REMARK    1  A    between atoms: C_2  and  C_3
REMARK    2  A    between atoms: C_3  and  O_4
REMARK    3  A    between atoms: O_4  and  C_5
REMARK    4  A    between atoms: C_5  and  C_7
REMARK                            x       y       z     vdW  Elec       q    Type
REMARK                         _______ _______ _______ _____ _____    ______ ____
ROOT
ATOM      1  C   UNL     1       4.477   3.763  16.610  0.00  0.00    +0.000 C 
ATOM      2  C   UNL     1       5.619   4.088  15.907  0.00  0.00    +0.000 C 
ATOM      3  S   UNL     1       7.038   4.722  16.957  0.00  0.00    +0.000 S 
ATOM      4  C   UNL     1       5.950   4.434  18.337  0.00  0.00    +0.000 C 
ATOM      5  C   UNL     1       5.336   5.468  19.255  0.00  0.00    +0.000 C 
ATOM      6  C   UNL     1       4.310   5.797  18.064  0.00  0.00    +0.000 C 
ATOM      7  O   UNL     1       3.340   6.442  17.747  0.00  0.00    +0.000 OA
ATOM      8  N   UNL     1       4.829   4.714  17.491  0.00  0.00    +0.000 N 
ENDROOT
BRANCH   1   9
ATOM      9  C   UNL     1       3.136   3.390  17.498  0.00  0.00    +0.000 C 
ATOM     10  O   UNL     1       1.987   3.545  17.101  0.00  0.00    +0.000 OA
BRANCH   9  11
ATOM     11  O   UNL     1       3.478   2.544  18.579  0.00  0.00    +0.000 OA
BRANCH  11  12
ATOM     12  C   UNL     1       3.145   2.569  20.041  0.00  0.00    +0.000 C 
BRANCH  12  14
ATOM     13  C   UNL     1       1.032   3.973  20.473  0.00  0.00    +0.000 C 
ATOM     14  C   UNL     1       2.334   3.745  20.723  0.00  0.00    +0.000 C 
ENDBRANCH  12  14
ENDBRANCH  11  12
ENDBRANCH   9  11
ENDBRANCH   1   9
TORSDOF 4
ENDMDL
MODEL 9
REMARK VINA RESULT:      -5.7      3.478      4.518
REMARK  Name = 
REMARK  4 active torsions:
REMARK  status: ('A' for Active; 'I' for Inactive)
REMARK    1  A    between atoms: C_2  and  C_3
REMARK    2  A    between atoms: C_3  and  O_4
REMARK    3  A    between atoms: O_4  and  C_5
REMARK    4  A    between atoms: C_5  and  C_7
REMARK                            x       y       z     vdW  Elec       q    Type
REMARK                         _______ _______ _______ _____ _____    ______ ____
ROOT
ATOM      1  C   UNL     1       3.654   3.770  18.028  0.00  0.00    +0.000 C 
ATOM      2  C   UNL     1       2.655   2.998  17.473  0.00  0.00    +0.000 C 
ATOM      3  S   UNL     1       1.213   2.634  18.615  0.00  0.00    +0.000 S 
ATOM      4  C   UNL     1       2.084   3.645  19.794  0.00  0.00    +0.000 C 
ATOM      5  C   UNL     1       2.710   3.205  21.099  0.00  0.00    +0.000 C 
ATOM      6  C   UNL     1       3.904   2.585  20.222  0.00  0.00    +0.000 C 
ATOM      7  O   UNL     1       4.978   2.037  20.266  0.00  0.00    +0.000 OA
ATOM      8  N   UNL     1       3.323   3.229  19.212  0.00  0.00    +0.000 N 
ENDROOT
BRANCH   1   9
ATOM      9  C   UNL     1       4.822   4.695  18.741  0.00  0.00    +0.000 C 
ATOM     10  O   UNL     1       4.604   5.502  19.638  0.00  0.00    +0.000 OA
BRANCH   9  11
ATOM     11  O   UNL     1       6.106   4.175  18.459  0.00  0.00    +0.000 OA
BRANCH  11  12
ATOM     12  C   UNL     1       7.438   4.819  18.211  0.00  0.00    +0.000 C 
BRANCH  12  14
ATOM     13  C   UNL     1       7.431   7.302  17.535  0.00  0.00    +0.000 C 
ATOM     14  C   UNL     1       7.712   6.359  18.453  0.00  0.00    +0.000 C 
ENDBRANCH  12  14
ENDBRANCH  11  12
ENDBRANCH   9  11
ENDBRANCH   1   9
TORSDOF 4
ENDMDL
