MODEL 1
REMARK VINA RESULT:      -9.5      0.000      0.000
REMARK  Name = 
REMARK  10 active torsions:
REMARK  status: ('A' for Active; 'I' for Inactive)
REMARK    1  A    between atoms: C_1  and  O_2
REMARK    2  A    between atoms: O_2  and  C_3
REMARK    3  A    between atoms: C_6  and  C_7
REMARK    4  A    between atoms: C_9  and  C_10
REMARK    5  A    between atoms: C_20  and  C_21
REMARK    6  A    between atoms: C_23  and  C_24
REMARK    7  A    between atoms: C_24  and  C_25
REMARK    8  A    between atoms: C_25  and  O_27
REMARK    9  A    between atoms: C_30  and  O_31
REMARK   10  A    between atoms: O_31  and  C_32
REMARK                            x       y       z     vdW  Elec       q    Type
REMARK                         _______ _______ _______ _____ _____    ______ ____
ROOT
ATOM      1  C   UNL     1       0.927  10.088  19.322  0.00  0.00    +0.000 C 
ATOM      2  O   UNL     1       0.960  10.772  18.306  0.00  0.00    +0.000 OA
ATOM      3  N   UNL     1       1.533   8.770  19.410  0.00  0.00    +0.000 N 
ATOM      4  C   UNL     1       1.308   8.176  20.676  0.00  0.00    +0.000 C 
ATOM      5  C   UNL     1       1.264   6.705  20.727  0.00  0.00    +0.000 C 
ATOM      6  C   UNL     1       2.133   5.922  19.825  0.00  0.00    +0.000 A 
ATOM      7  C   UNL     1       2.160   4.598  20.297  0.00  0.00    +0.000 A 
ATOM      8  F   UNL     1       1.227   4.184  21.164  0.00  0.00    +0.000 F 
ATOM      9  C   UNL     1       3.240   3.840  20.097  0.00  0.00    +0.000 A 
ATOM     10  C   UNL     1       4.211   4.367  19.292  0.00  0.00    +0.000 A 
ATOM     11  C   UNL     1       4.104   5.549  18.440  0.00  0.00    +0.000 A 
ATOM     12  C   UNL     1       2.987   6.465  18.810  0.00  0.00    +0.000 A 
ATOM     13  C   UNL     1       2.353   7.904  18.315  0.00  0.00    +0.000 C 
ENDROOT
BRANCH  11  14
ATOM     14  C   UNL     1       5.364   5.406  17.460  0.00  0.00    +0.000 A 
ATOM     15  C   UNL     1       5.052   5.312  16.007  0.00  0.00    +0.000 A 
ATOM     16  C   UNL     1       5.783   4.551  15.050  0.00  0.00    +0.000 A 
ATOM     17  C   UNL     1       7.050   4.145  15.432  0.00  0.00    +0.000 A 
ATOM     18  C   UNL     1       7.494   4.400  16.734  0.00  0.00    +0.000 A 
ATOM     19  C   UNL     1       6.657   4.963  17.747  0.00  0.00    +0.000 A 
BRANCH  19  20
ATOM     20  O   UNL     1       7.284   4.980  18.960  0.00  0.00    +0.000 OA
ATOM     21  C   UNL     1       7.974   6.184  19.220  0.00  0.00    +0.000 C 
ENDBRANCH  19  20
BRANCH  16  22
ATOM     22  C   UNL     1       5.283   4.121  13.669  0.00  0.00    +0.000 C 
BRANCH  22  23
ATOM     23  C   UNL     1       6.328   3.669  12.617  0.00  0.00    +0.000 C 
ATOM     24  O   UNL     1       7.176   4.366  12.089  0.00  0.00    +0.000 OA
BRANCH  23  25
ATOM     25  O   UNL     1       6.216   2.359  12.304  0.00  0.00    +0.000 OA
ATOM     26  H   UNL     1       5.360   2.074  11.909  0.00  0.00    +0.000 HD
ENDBRANCH  23  25
ENDBRANCH  22  23
ENDBRANCH  16  22
ENDBRANCH  11  14
BRANCH   1  29
ATOM     27  C   UNL     1      -0.781  11.914  20.542  0.00  0.00    +0.000 C 
ATOM     28  C   UNL     1       0.550  11.993  21.262  0.00  0.00    +0.000 C 
ATOM     29  C   UNL     1       0.151  10.682  20.624  0.00  0.00    +0.000 C 
BRANCH  27  33
ATOM     30  C   UNL     1      -4.244  13.011  23.107  0.00  0.00    +0.000 A 
ATOM     31  C   UNL     1      -3.127  12.355  23.628  0.00  0.00    +0.000 A 
ATOM     32  C   UNL     1      -2.060  11.973  22.787  0.00  0.00    +0.000 A 
ATOM     33  C   UNL     1      -2.057  12.206  21.391  0.00  0.00    +0.000 A 
ATOM     34  C   UNL     1      -3.220  12.819  20.894  0.00  0.00    +0.000 A 
ATOM     35  C   UNL     1      -4.296  13.215  21.734  0.00  0.00    +0.000 A 
BRANCH  30  37
ATOM     36  C   UNL     1      -6.285  12.446  24.183  0.00  0.00    +0.000 C 
ATOM     37  O   UNL     1      -5.205  13.363  24.016  0.00  0.00    +0.000 OA
ENDBRANCH  30  37
ENDBRANCH  27  33
ENDBRANCH   1  29
TORSDOF 8
ENDMDL
MODEL 2
REMARK VINA RESULT:      -9.3      0.761      1.101
REMARK  Name = 
REMARK  10 active torsions:
REMARK  status: ('A' for Active; 'I' for Inactive)
REMARK    1  A    between atoms: C_1  and  O_2
REMARK    2  A    between atoms: O_2  and  C_3
REMARK    3  A    between atoms: C_6  and  C_7
REMARK    4  A    between atoms: C_9  and  C_10
REMARK    5  A    between atoms: C_20  and  C_21
REMARK    6  A    between atoms: C_23  and  C_24
REMARK    7  A    between atoms: C_24  and  C_25
REMARK    8  A    between atoms: C_25  and  O_27
REMARK    9  A    between atoms: C_30  and  O_31
REMARK   10  A    between atoms: O_31  and  C_32
REMARK                            x       y       z     vdW  Elec       q    Type
REMARK                         _______ _______ _______ _____ _____    ______ ____
ROOT
ATOM      1  C   UNL     1       0.628  10.233  19.213  0.00  0.00    +0.000 C 
ATOM      2  O   UNL     1       0.452  10.879  18.187  0.00  0.00    +0.000 OA
ATOM      3  N   UNL     1       1.393   8.998  19.250  0.00  0.00    +0.000 N 
ATOM      4  C   UNL     1       1.399   8.428  20.547  0.00  0.00    +0.000 C 
ATOM      5  C   UNL     1       1.538   6.964  20.634  0.00  0.00    +0.000 C 
ATOM      6  C   UNL     1       2.374   6.255  19.645  0.00  0.00    +0.000 A 
ATOM      7  C   UNL     1       2.617   4.961  20.137  0.00  0.00    +0.000 A 
ATOM      8  F   UNL     1       1.855   4.473  21.126  0.00  0.00    +0.000 F 
ATOM      9  C   UNL     1       3.746   4.326  19.817  0.00  0.00    +0.000 A 
ATOM     10  C   UNL     1       4.539   4.931  18.883  0.00  0.00    +0.000 A 
ATOM     11  C   UNL     1       4.187   6.062  18.027  0.00  0.00    +0.000 A 
ATOM     12  C   UNL     1       3.024   6.855  18.518  0.00  0.00    +0.000 A 
ATOM     13  C   UNL     1       2.166   8.193  18.078  0.00  0.00    +0.000 C 
ENDROOT
BRANCH  11  14
ATOM     14  C   UNL     1       5.323   6.029  16.897  0.00  0.00    +0.000 A 
ATOM     15  C   UNL     1       4.928   5.426  15.594  0.00  0.00    +0.000 A 
ATOM     16  C   UNL     1       5.783   4.680  14.733  0.00  0.00    +0.000 A 
ATOM     17  C   UNL     1       7.142   4.808  14.963  0.00  0.00    +0.000 A 
ATOM     18  C   UNL     1       7.591   5.553  16.058  0.00  0.00    +0.000 A 
ATOM     19  C   UNL     1       6.710   6.104  17.039  0.00  0.00    +0.000 A 
BRANCH  19  20
ATOM     20  O   UNL     1       7.403   6.663  18.075  0.00  0.00    +0.000 OA
ATOM     21  C   UNL     1       7.842   7.979  17.813  0.00  0.00    +0.000 C 
ENDBRANCH  19  20
BRANCH  16  22
ATOM     22  C   UNL     1       5.335   3.736  13.616  0.00  0.00    +0.000 C 
BRANCH  22  23
ATOM     23  C   UNL     1       6.306   3.482  12.434  0.00  0.00    +0.000 C 
ATOM     24  O   UNL     1       7.085   4.283  11.949  0.00  0.00    +0.000 OA
BRANCH  23  25
ATOM     25  O   UNL     1       6.213   2.225  11.946  0.00  0.00    +0.000 OA
ATOM     26  H   UNL     1       6.076   2.141  10.974  0.00  0.00    +0.000 HD
ENDBRANCH  23  25
ENDBRANCH  22  23
ENDBRANCH  16  22
ENDBRANCH  11  14
BRANCH   1  29
ATOM     27  C   UNL     1      -0.820  12.117  20.660  0.00  0.00    +0.000 C 
ATOM     28  C   UNL     1       0.524  11.962  21.342  0.00  0.00    +0.000 C 
ATOM     29  C   UNL     1      -0.044  10.781  20.591  0.00  0.00    +0.000 C 
BRANCH  27  33
ATOM     30  C   UNL     1      -4.453  12.868  23.112  0.00  0.00    +0.000 A 
ATOM     31  C   UNL     1      -4.395  13.223  21.763  0.00  0.00    +0.000 A 
ATOM     32  C   UNL     1      -3.215  13.020  21.016  0.00  0.00    +0.000 A 
ATOM     33  C   UNL     1      -2.034  12.473  21.572  0.00  0.00    +0.000 A 
ATOM     34  C   UNL     1      -2.113  12.178  22.945  0.00  0.00    +0.000 A 
ATOM     35  C   UNL     1      -3.298  12.372  23.703  0.00  0.00    +0.000 A 
BRANCH  30  37
ATOM     36  C   UNL     1      -6.820  12.708  22.996  0.00  0.00    +0.000 C 
ATOM     37  O   UNL     1      -5.655  13.079  23.731  0.00  0.00    +0.000 OA
ENDBRANCH  30  37
ENDBRANCH  27  33
ENDBRANCH   1  29
TORSDOF 8
ENDMDL
MODEL 3
REMARK VINA RESULT:      -8.6      1.006      1.089
REMARK  Name = 
REMARK  10 active torsions:
REMARK  status: ('A' for Active; 'I' for Inactive)
REMARK    1  A    between atoms: C_1  and  O_2
REMARK    2  A    between atoms: O_2  and  C_3
REMARK    3  A    between atoms: C_6  and  C_7
REMARK    4  A    between atoms: C_9  and  C_10
REMARK    5  A    between atoms: C_20  and  C_21
REMARK    6  A    between atoms: C_23  and  C_24
REMARK    7  A    between atoms: C_24  and  C_25
REMARK    8  A    between atoms: C_25  and  O_27
REMARK    9  A    between atoms: C_30  and  O_31
REMARK   10  A    between atoms: O_31  and  C_32
REMARK                            x       y       z     vdW  Elec       q    Type
REMARK                         _______ _______ _______ _____ _____    ______ ____
ROOT
ATOM      1  C   UNL     1       0.634  10.174  19.210  0.00  0.00    +0.000 C 
ATOM      2  O   UNL     1       0.455  10.817  18.182  0.00  0.00    +0.000 OA
ATOM      3  N   UNL     1       1.400   8.939  19.248  0.00  0.00    +0.000 N 
ATOM      4  C   UNL     1       1.410   8.372  20.547  0.00  0.00    +0.000 C 
ATOM      5  C   UNL     1       1.549   6.909  20.637  0.00  0.00    +0.000 C 
ATOM      6  C   UNL     1       2.382   6.197  19.647  0.00  0.00    +0.000 A 
ATOM      7  C   UNL     1       2.627   4.905  20.142  0.00  0.00    +0.000 A 
ATOM      8  F   UNL     1       1.869   4.419  21.135  0.00  0.00    +0.000 F 
ATOM      9  C   UNL     1       3.755   4.269  19.820  0.00  0.00    +0.000 A 
ATOM     10  C   UNL     1       4.545   4.871  18.882  0.00  0.00    +0.000 A 
ATOM     11  C   UNL     1       4.190   5.999  18.023  0.00  0.00    +0.000 A 
ATOM     12  C   UNL     1       3.028   6.794  18.516  0.00  0.00    +0.000 A 
ATOM     13  C   UNL     1       2.169   8.131  18.075  0.00  0.00    +0.000 C 
ENDROOT
BRANCH  11  14
ATOM     14  C   UNL     1       5.322   5.964  16.890  0.00  0.00    +0.000 A 
ATOM     15  C   UNL     1       4.918   5.374  15.584  0.00  0.00    +0.000 A 
ATOM     16  C   UNL     1       5.763   4.626  14.715  0.00  0.00    +0.000 A 
ATOM     17  C   UNL     1       7.124   4.739  14.941  0.00  0.00    +0.000 A 
ATOM     18  C   UNL     1       7.583   5.471  16.041  0.00  0.00    +0.000 A 
ATOM     19  C   UNL     1       6.711   6.024  17.029  0.00  0.00    +0.000 A 
BRANCH  19  20
ATOM     20  O   UNL     1       7.412   6.569  18.066  0.00  0.00    +0.000 OA
ATOM     21  C   UNL     1       7.917   5.609  18.970  0.00  0.00    +0.000 C 
ENDBRANCH  19  20
BRANCH  16  22
ATOM     22  C   UNL     1       5.301   3.695  13.592  0.00  0.00    +0.000 C 
BRANCH  22  23
ATOM     23  C   UNL     1       6.275   3.422  12.416  0.00  0.00    +0.000 C 
ATOM     24  O   UNL     1       7.095   4.197  11.958  0.00  0.00    +0.000 OA
BRANCH  23  25
ATOM     25  O   UNL     1       6.132   2.181  11.900  0.00  0.00    +0.000 OA
ATOM     26  H   UNL     1       6.960   1.722  11.628  0.00  0.00    +0.000 HD
ENDBRANCH  23  25
ENDBRANCH  22  23
ENDBRANCH  16  22
ENDBRANCH  11  14
BRANCH   1  29
ATOM     27  C   UNL     1      -0.409  12.212  20.789  0.00  0.00    +0.000 C 
ATOM     28  C   UNL     1       0.738  11.589  21.559  0.00  0.00    +0.000 C 
ATOM     29  C   UNL     1      -0.033  10.725  20.589  0.00  0.00    +0.000 C 
BRANCH  27  33
ATOM     30  C   UNL     1      -3.657  14.193  23.094  0.00  0.00    +0.000 A 
ATOM     31  C   UNL     1      -2.335  14.200  23.540  0.00  0.00    +0.000 A 
ATOM     32  C   UNL     1      -1.327  13.524  22.818  0.00  0.00    +0.000 A 
ATOM     33  C   UNL     1      -1.586  12.796  21.632  0.00  0.00    +0.000 A 
ATOM     34  C   UNL     1      -2.936  12.765  21.243  0.00  0.00    +0.000 A 
ATOM     35  C   UNL     1      -3.956  13.448  21.959  0.00  0.00    +0.000 A 
BRANCH  30  37
ATOM     36  C   UNL     1      -3.982  15.795  24.817  0.00  0.00    +0.000 C 
ATOM     37  O   UNL     1      -4.545  14.906  23.852  0.00  0.00    +0.000 OA
ENDBRANCH  30  37
ENDBRANCH  27  33
ENDBRANCH   1  29
TORSDOF 8
ENDMDL
MODEL 4
REMARK VINA RESULT:      -8.4      1.228      1.558
REMARK  Name = 
REMARK  10 active torsions:
REMARK  status: ('A' for Active; 'I' for Inactive)
REMARK    1  A    between atoms: C_1  and  O_2
REMARK    2  A    between atoms: O_2  and  C_3
REMARK    3  A    between atoms: C_6  and  C_7
REMARK    4  A    between atoms: C_9  and  C_10
REMARK    5  A    between atoms: C_20  and  C_21
REMARK    6  A    between atoms: C_23  and  C_24
REMARK    7  A    between atoms: C_24  and  C_25
REMARK    8  A    between atoms: C_25  and  O_27
REMARK    9  A    between atoms: C_30  and  O_31
REMARK   10  A    between atoms: O_31  and  C_32
REMARK                            x       y       z     vdW  Elec       q    Type
REMARK                         _______ _______ _______ _____ _____    ______ ____
ROOT
ATOM      1  C   UNL     1       0.598   9.863  20.073  0.00  0.00    +0.000 C 
ATOM      2  O   UNL     1       0.762  10.702  19.196  0.00  0.00    +0.000 OA
ATOM      3  N   UNL     1       1.215   8.547  20.034  0.00  0.00    +0.000 N 
ATOM      4  C   UNL     1       0.823   7.755  21.142  0.00  0.00    +0.000 C 
ATOM      5  C   UNL     1       0.805   6.295  20.949  0.00  0.00    +0.000 C 
ATOM      6  C   UNL     1       1.811   5.668  20.068  0.00  0.00    +0.000 A 
ATOM      7  C   UNL     1       1.800   4.286  20.320  0.00  0.00    +0.000 A 
ATOM      8  F   UNL     1       0.761   3.737  20.965  0.00  0.00    +0.000 F 
ATOM      9  C   UNL     1       2.913   3.568  20.159  0.00  0.00    +0.000 A 
ATOM     10  C   UNL     1       3.978   4.217  19.599  0.00  0.00    +0.000 A 
ATOM     11  C   UNL     1       3.969   5.522  18.942  0.00  0.00    +0.000 A 
ATOM     12  C   UNL     1       2.790   6.367  19.289  0.00  0.00    +0.000 A 
ATOM     13  C   UNL     1       2.202   7.869  18.945  0.00  0.00    +0.000 C 
ENDROOT
BRANCH  11  14
ATOM     14  C   UNL     1       5.359   5.538  18.145  0.00  0.00    +0.000 A 
ATOM     15  C   UNL     1       5.280   5.227  16.691  0.00  0.00    +0.000 A 
ATOM     16  C   UNL     1       6.270   4.537  15.936  0.00  0.00    +0.000 A 
ATOM     17  C   UNL     1       7.524   4.443  16.515  0.00  0.00    +0.000 A 
ATOM     18  C   UNL     1       7.722   4.922  17.815  0.00  0.00    +0.000 A 
ATOM     19  C   UNL     1       6.659   5.405  18.638  0.00  0.00    +0.000 A 
BRANCH  19  20
ATOM     20  O   UNL     1       7.092   5.680  19.903  0.00  0.00    +0.000 OA
ATOM     21  C   UNL     1       8.423   5.275  20.143  0.00  0.00    +0.000 C 
ENDBRANCH  19  20
BRANCH  16  22
ATOM     22  C   UNL     1       6.062   3.868  14.576  0.00  0.00    +0.000 C 
BRANCH  22  23
ATOM     23  C   UNL     1       6.860   4.408  13.361  0.00  0.00    +0.000 C 
ATOM     24  O   UNL     1       6.849   3.962  12.227  0.00  0.00    +0.000 OA
BRANCH  23  25
ATOM     25  O   UNL     1       7.624   5.478  13.675  0.00  0.00    +0.000 OA
ATOM     26  H   UNL     1       7.232   6.364  13.498  0.00  0.00    +0.000 HD
ENDBRANCH  23  25
ENDBRANCH  22  23
ENDBRANCH  16  22
ENDBRANCH  11  14
BRANCH   1  29
ATOM     27  C   UNL     1      -0.134  11.488  22.208  0.00  0.00    +0.000 C 
ATOM     28  C   UNL     1       0.089  10.095  22.760  0.00  0.00    +0.000 C 
ATOM     29  C   UNL     1      -0.369  10.238  21.327  0.00  0.00    +0.000 C 
BRANCH  27  33
ATOM     30  C   UNL     1      -3.238  14.150  23.957  0.00  0.00    +0.000 A 
ATOM     31  C   UNL     1      -1.957  14.618  23.659  0.00  0.00    +0.000 A 
ATOM     32  C   UNL     1      -0.972  13.744  23.150  0.00  0.00    +0.000 A 
ATOM     33  C   UNL     1      -1.205  12.365  22.928  0.00  0.00    +0.000 A 
ATOM     34  C   UNL     1      -2.487  11.920  23.291  0.00  0.00    +0.000 A 
ATOM     35  C   UNL     1      -3.487  12.793  23.797  0.00  0.00    +0.000 A 
BRANCH  30  37
ATOM     36  C   UNL     1      -5.051  15.602  23.462  0.00  0.00    +0.000 C 
ATOM     37  O   UNL     1      -4.122  15.089  24.416  0.00  0.00    +0.000 OA
ENDBRANCH  30  37
ENDBRANCH  27  33
ENDBRANCH   1  29
TORSDOF 8
ENDMDL
MODEL 5
REMARK VINA RESULT:      -8.2      1.324      1.504
REMARK  Name = 
REMARK  10 active torsions:
REMARK  status: ('A' for Active; 'I' for Inactive)
REMARK    1  A    between atoms: C_1  and  O_2
REMARK    2  A    between atoms: O_2  and  C_3
REMARK    3  A    between atoms: C_6  and  C_7
REMARK    4  A    between atoms: C_9  and  C_10
REMARK    5  A    between atoms: C_20  and  C_21
REMARK    6  A    between atoms: C_23  and  C_24
REMARK    7  A    between atoms: C_24  and  C_25
REMARK    8  A    between atoms: C_25  and  O_27
REMARK    9  A    between atoms: C_30  and  O_31
REMARK   10  A    between atoms: O_31  and  C_32
REMARK                            x       y       z     vdW  Elec       q    Type
REMARK                         _______ _______ _______ _____ _____    ______ ____
ROOT
ATOM      1  C   UNL     1       0.477   9.978  19.401  0.00  0.00    +0.000 C 
ATOM      2  O   UNL     1       0.291  10.644  18.389  0.00  0.00    +0.000 OA
ATOM      3  N   UNL     1       1.266   8.758  19.410  0.00  0.00    +0.000 N 
ATOM      4  C   UNL     1       1.281   8.158  20.694  0.00  0.00    +0.000 C 
ATOM      5  C   UNL     1       1.449   6.696  20.748  0.00  0.00    +0.000 C 
ATOM      6  C   UNL     1       2.301   6.026  19.744  0.00  0.00    +0.000 A 
ATOM      7  C   UNL     1       2.569   4.726  20.207  0.00  0.00    +0.000 A 
ATOM      8  F   UNL     1       1.815   4.200  21.182  0.00  0.00    +0.000 F 
ATOM      9  C   UNL     1       3.710   4.121  19.874  0.00  0.00    +0.000 A 
ATOM     10  C   UNL     1       4.493   4.763  18.956  0.00  0.00    +0.000 A 
ATOM     11  C   UNL     1       4.121   5.906  18.126  0.00  0.00    +0.000 A 
ATOM     12  C   UNL     1       2.941   6.665  18.633  0.00  0.00    +0.000 A 
ATOM     13  C   UNL     1       2.058   7.996  18.222  0.00  0.00    +0.000 C 
ENDROOT
BRANCH  11  14
ATOM     14  C   UNL     1       5.259   5.923  16.998  0.00  0.00    +0.000 A 
ATOM     15  C   UNL     1       4.967   5.138  15.767  0.00  0.00    +0.000 A 
ATOM     16  C   UNL     1       5.929   4.439  14.982  0.00  0.00    +0.000 A 
ATOM     17  C   UNL     1       7.253   4.785  15.189  0.00  0.00    +0.000 A 
ATOM     18  C   UNL     1       7.579   5.696  16.199  0.00  0.00    +0.000 A 
ATOM     19  C   UNL     1       6.619   6.212  17.124  0.00  0.00    +0.000 A 
BRANCH  19  20
ATOM     20  O   UNL     1       7.215   6.969  18.092  0.00  0.00    +0.000 OA
ATOM     21  C   UNL     1       7.818   8.145  17.595  0.00  0.00    +0.000 C 
ENDBRANCH  19  20
BRANCH  16  22
ATOM     22  C   UNL     1       5.631   3.330  13.971  0.00  0.00    +0.000 C 
BRANCH  22  23
ATOM     23  C   UNL     1       5.923   3.604  12.473  0.00  0.00    +0.000 C 
ATOM     24  O   UNL     1       6.974   3.993  11.996  0.00  0.00    +0.000 OA
BRANCH  23  25
ATOM     25  O   UNL     1       4.850   3.370  11.683  0.00  0.00    +0.000 OA
ATOM     26  H   UNL     1       4.136   2.812  12.069  0.00  0.00    +0.000 HD
ENDBRANCH  23  25
ENDBRANCH  22  23
ENDBRANCH  16  22
ENDBRANCH  11  14
BRANCH   1  29
ATOM     27  C   UNL     1       0.094  11.865  21.409  0.00  0.00    +0.000 C 
ATOM     28  C   UNL     1       0.580  10.593  22.074  0.00  0.00    +0.000 C 
ATOM     29  C   UNL     1      -0.208  10.480  20.789  0.00  0.00    +0.000 C 
BRANCH  27  33
ATOM     30  C   UNL     1      -2.569  14.245  24.058  0.00  0.00    +0.000 A 
ATOM     31  C   UNL     1      -2.940  12.983  23.592  0.00  0.00    +0.000 A 
ATOM     32  C   UNL     1      -2.101  12.265  22.713  0.00  0.00    +0.000 A 
ATOM     33  C   UNL     1      -0.866  12.770  22.242  0.00  0.00    +0.000 A 
ATOM     34  C   UNL     1      -0.551  14.065  22.688  0.00  0.00    +0.000 A 
ATOM     35  C   UNL     1      -1.386  14.793  23.578  0.00  0.00    +0.000 A 
BRANCH  30  37
ATOM     36  C   UNL     1      -4.488  15.614  24.348  0.00  0.00    +0.000 C 
ATOM     37  O   UNL     1      -3.442  14.838  24.930  0.00  0.00    +0.000 OA
ENDBRANCH  30  37
ENDBRANCH  27  33
ENDBRANCH   1  29
TORSDOF 8
ENDMDL
MODEL 6
REMARK VINA RESULT:      -8.2      2.667      4.279
REMARK  Name = 
REMARK  10 active torsions:
REMARK  status: ('A' for Active; 'I' for Inactive)
REMARK    1  A    between atoms: C_1  and  O_2
REMARK    2  A    between atoms: O_2  and  C_3
REMARK    3  A    between atoms: C_6  and  C_7
REMARK    4  A    between atoms: C_9  and  C_10
REMARK    5  A    between atoms: C_20  and  C_21
REMARK    6  A    between atoms: C_23  and  C_24
REMARK    7  A    between atoms: C_24  and  C_25
REMARK    8  A    between atoms: C_25  and  O_27
REMARK    9  A    between atoms: C_30  and  O_31
REMARK   10  A    between atoms: O_31  and  C_32
REMARK                            x       y       z     vdW  Elec       q    Type
REMARK                         _______ _______ _______ _____ _____    ______ ____
ROOT
ATOM      1  C   UNL     1      -0.398  10.034  23.210  0.00  0.00    +0.000 C 
ATOM      2  O   UNL     1       0.037   9.750  24.320  0.00  0.00    +0.000 OA
ATOM      3  N   UNL     1       0.205   9.553  21.977  0.00  0.00    +0.000 N 
ATOM      4  C   UNL     1      -0.460  10.068  20.837  0.00  0.00    +0.000 C 
ATOM      5  C   UNL     1       0.339  10.226  19.611  0.00  0.00    +0.000 C 
ATOM      6  C   UNL     1       1.410   9.254  19.312  0.00  0.00    +0.000 A 
ATOM      7  C   UNL     1       1.774   9.416  17.965  0.00  0.00    +0.000 A 
ATOM      8  F   UNL     1       1.420  10.531  17.311  0.00  0.00    +0.000 F 
ATOM      9  C   UNL     1       2.233   8.375  17.267  0.00  0.00    +0.000 A 
ATOM     10  C   UNL     1       2.469   7.228  17.972  0.00  0.00    +0.000 A 
ATOM     11  C   UNL     1       2.504   7.078  19.425  0.00  0.00    +0.000 A 
ATOM     12  C   UNL     1       1.821   8.178  20.165  0.00  0.00    +0.000 A 
ATOM     13  C   UNL     1       1.485   8.596  21.725  0.00  0.00    +0.000 C 
ENDROOT
BRANCH  11  14
ATOM     14  C   UNL     1       3.226   5.662  19.627  0.00  0.00    +0.000 A 
ATOM     15  C   UNL     1       4.420   5.412  18.772  0.00  0.00    +0.000 A 
ATOM     16  C   UNL     1       4.812   4.148  18.246  0.00  0.00    +0.000 A 
ATOM     17  C   UNL     1       4.238   3.036  18.838  0.00  0.00    +0.000 A 
ATOM     18  C   UNL     1       3.255   3.205  19.818  0.00  0.00    +0.000 A 
ATOM     19  C   UNL     1       2.714   4.481  20.168  0.00  0.00    +0.000 A 
BRANCH  19  20
ATOM     20  O   UNL     1       1.675   4.359  21.046  0.00  0.00    +0.000 OA
ATOM     21  C   UNL     1       1.281   3.022  21.270  0.00  0.00    +0.000 C 
ENDBRANCH  19  20
BRANCH  16  22
ATOM     22  C   UNL     1       5.772   3.917  17.077  0.00  0.00    +0.000 C 
BRANCH  22  23
ATOM     23  C   UNL     1       7.240   4.394  17.226  0.00  0.00    +0.000 C 
ATOM     24  O   UNL     1       7.854   4.541  18.269  0.00  0.00    +0.000 OA
BRANCH  23  25
ATOM     25  O   UNL     1       7.825   4.657  16.036  0.00  0.00    +0.000 OA
ATOM     26  H   UNL     1       7.228   4.953  15.311  0.00  0.00    +0.000 HD
ENDBRANCH  23  25
ENDBRANCH  22  23
ENDBRANCH  16  22
ENDBRANCH  11  14
BRANCH   1  29
ATOM     27  C   UNL     1      -1.834  12.109  22.040  0.00  0.00    +0.000 C 
ATOM     28  C   UNL     1      -1.629  12.470  23.497  0.00  0.00    +0.000 C 
ATOM     29  C   UNL     1      -1.698  11.008  23.119  0.00  0.00    +0.000 C 
BRANCH  27  33
ATOM     30  C   UNL     1      -5.385  13.889  20.040  0.00  0.00    +0.000 A 
ATOM     31  C   UNL     1      -4.976  14.303  21.309  0.00  0.00    +0.000 A 
ATOM     32  C   UNL     1      -3.875  13.691  21.946  0.00  0.00    +0.000 A 
ATOM     33  C   UNL     1      -3.140  12.630  21.364  0.00  0.00    +0.000 A 
ATOM     34  C   UNL     1      -3.614  12.203  20.112  0.00  0.00    +0.000 A 
ATOM     35  C   UNL     1      -4.716  12.818  19.460  0.00  0.00    +0.000 A 
BRANCH  30  37
ATOM     36  C   UNL     1      -7.212  13.877  18.523  0.00  0.00    +0.000 C 
ATOM     37  O   UNL     1      -6.443  14.572  19.504  0.00  0.00    +0.000 OA
ENDBRANCH  30  37
ENDBRANCH  27  33
ENDBRANCH   1  29
TORSDOF 8
ENDMDL
MODEL 7
REMARK VINA RESULT:      -8.2      2.604      4.195
REMARK  Name = 
REMARK  10 active torsions:
REMARK  status: ('A' for Active; 'I' for Inactive)
REMARK    1  A    between atoms: C_1  and  O_2
REMARK    2  A    between atoms: O_2  and  C_3
REMARK    3  A    between atoms: C_6  and  C_7
REMARK    4  A    between atoms: C_9  and  C_10
REMARK    5  A    between atoms: C_20  and  C_21
REMARK    6  A    between atoms: C_23  and  C_24
REMARK    7  A    between atoms: C_24  and  C_25
REMARK    8  A    between atoms: C_25  and  O_27
REMARK    9  A    between atoms: C_30  and  O_31
REMARK   10  A    between atoms: O_31  and  C_32
REMARK                            x       y       z     vdW  Elec       q    Type
REMARK                         _______ _______ _______ _____ _____    ______ ____
ROOT
ATOM      1  C   UNL     1      -0.376   9.991  23.142  0.00  0.00    +0.000 C 
ATOM      2  O   UNL     1       0.055   9.740  24.261  0.00  0.00    +0.000 OA
ATOM      3  N   UNL     1       0.238   9.485  21.925  0.00  0.00    +0.000 N 
ATOM      4  C   UNL     1      -0.426   9.965  20.769  0.00  0.00    +0.000 C 
ATOM      5  C   UNL     1       0.378  10.100  19.543  0.00  0.00    +0.000 C 
ATOM      6  C   UNL     1       1.460   9.131  19.275  0.00  0.00    +0.000 A 
ATOM      7  C   UNL     1       1.830   9.262  17.926  0.00  0.00    +0.000 A 
ATOM      8  F   UNL     1       1.468  10.356  17.242  0.00  0.00    +0.000 F 
ATOM      9  C   UNL     1       2.303   8.209  17.257  0.00  0.00    +0.000 A 
ATOM     10  C   UNL     1       2.546   7.082  17.992  0.00  0.00    +0.000 A 
ATOM     11  C   UNL     1       2.575   6.969  19.449  0.00  0.00    +0.000 A 
ATOM     12  C   UNL     1       1.878   8.081  20.157  0.00  0.00    +0.000 A 
ATOM     13  C   UNL     1       1.529   8.535  21.703  0.00  0.00    +0.000 C 
ENDROOT
BRANCH  11  14
ATOM     14  C   UNL     1       3.310   5.566  19.690  0.00  0.00    +0.000 A 
ATOM     15  C   UNL     1       4.746   5.508  19.302  0.00  0.00    +0.000 A 
ATOM     16  C   UNL     1       5.417   4.366  18.777  0.00  0.00    +0.000 A 
ATOM     17  C   UNL     1       4.779   3.150  18.950  0.00  0.00    +0.000 A 
ATOM     18  C   UNL     1       3.501   3.115  19.517  0.00  0.00    +0.000 A 
ATOM     19  C   UNL     1       2.754   4.292  19.828  0.00  0.00    +0.000 A 
BRANCH  19  20
ATOM     20  O   UNL     1       1.488   3.986  20.239  0.00  0.00    +0.000 OA
ATOM     21  C   UNL     1       0.892   2.943  19.498  0.00  0.00    +0.000 C 
ENDBRANCH  19  20
BRANCH  16  22
ATOM     22  C   UNL     1       6.746   4.373  18.018  0.00  0.00    +0.000 C 
BRANCH  22  23
ATOM     23  C   UNL     1       6.716   4.611  16.486  0.00  0.00    +0.000 C 
ATOM     24  O   UNL     1       6.227   3.876  15.646  0.00  0.00    +0.000 OA
BRANCH  23  25
ATOM     25  O   UNL     1       7.318   5.767  16.127  0.00  0.00    +0.000 OA
ATOM     26  H   UNL     1       7.525   6.397  16.855  0.00  0.00    +0.000 HD
ENDBRANCH  23  25
ENDBRANCH  22  23
ENDBRANCH  16  22
ENDBRANCH  11  14
BRANCH   1  29
ATOM     27  C   UNL     1      -1.761  12.123  22.013  0.00  0.00    +0.000 C 
ATOM     28  C   UNL     1      -1.675  12.382  23.503  0.00  0.00    +0.000 C 
ATOM     29  C   UNL     1      -1.685  10.951  23.019  0.00  0.00    +0.000 C 
BRANCH  27  33
ATOM     30  C   UNL     1      -5.492  13.366  19.935  0.00  0.00    +0.000 A 
ATOM     31  C   UNL     1      -4.515  12.607  19.290  0.00  0.00    +0.000 A 
ATOM     32  C   UNL     1      -3.316  12.264  19.953  0.00  0.00    +0.000 A 
ATOM     33  C   UNL     1      -3.023  12.671  21.276  0.00  0.00    +0.000 A 
ATOM     34  C   UNL     1      -4.005  13.480  21.874  0.00  0.00    +0.000 A 
ATOM     35  C   UNL     1      -5.218  13.824  21.218  0.00  0.00    +0.000 A 
BRANCH  30  37
ATOM     36  C   UNL     1      -7.355  14.791  19.558  0.00  0.00    +0.000 C 
ATOM     37  O   UNL     1      -6.627  13.614  19.211  0.00  0.00    +0.000 OA
ENDBRANCH  30  37
ENDBRANCH  27  33
ENDBRANCH   1  29
TORSDOF 8
ENDMDL
MODEL 8
REMARK VINA RESULT:      -8.1      2.561     12.351
REMARK  Name = 
REMARK  10 active torsions:
REMARK  status: ('A' for Active; 'I' for Inactive)
REMARK    1  A    between atoms: C_1  and  O_2
REMARK    2  A    between atoms: O_2  and  C_3
REMARK    3  A    between atoms: C_6  and  C_7
REMARK    4  A    between atoms: C_9  and  C_10
REMARK    5  A    between atoms: C_20  and  C_21
REMARK    6  A    between atoms: C_23  and  C_24
REMARK    7  A    between atoms: C_24  and  C_25
REMARK    8  A    between atoms: C_25  and  O_27
REMARK    9  A    between atoms: C_30  and  O_31
REMARK   10  A    between atoms: O_31  and  C_32
REMARK                            x       y       z     vdW  Elec       q    Type
REMARK                         _______ _______ _______ _____ _____    ______ ____
ROOT
ATOM      1  C   UNL     1       2.027   7.737  19.380  0.00  0.00    +0.000 C 
ATOM      2  O   UNL     1       2.299   7.051  20.358  0.00  0.00    +0.000 OA
ATOM      3  N   UNL     1       1.043   8.806  19.412  0.00  0.00    +0.000 N 
ATOM      4  C   UNL     1       0.884   9.406  18.138  0.00  0.00    +0.000 C 
ATOM      5  C   UNL     1      -0.430   9.999  17.837  0.00  0.00    +0.000 C 
ATOM      6  C   UNL     1      -1.202  10.640  18.921  0.00  0.00    +0.000 A 
ATOM      7  C   UNL     1      -2.219  11.407  18.328  0.00  0.00    +0.000 A 
ATOM      8  F   UNL     1      -2.551  11.193  17.048  0.00  0.00    +0.000 F 
ATOM      9  C   UNL     1      -2.668  12.506  18.938  0.00  0.00    +0.000 A 
ATOM     10  C   UNL     1      -2.204  12.731  20.203  0.00  0.00    +0.000 A 
ATOM     11  C   UNL     1      -1.466  11.797  21.051  0.00  0.00    +0.000 A 
ATOM     12  C   UNL     1      -0.828  10.675  20.304  0.00  0.00    +0.000 A 
ATOM     13  C   UNL     1       0.117   9.360  20.618  0.00  0.00    +0.000 C 
ENDROOT
BRANCH  11  14
ATOM     14  C   UNL     1      -1.583  12.457  22.506  0.00  0.00    +0.000 A 
ATOM     15  C   UNL     1      -2.744  12.019  23.329  0.00  0.00    +0.000 A 
ATOM     16  C   UNL     1      -3.457  12.833  24.255  0.00  0.00    +0.000 A 
ATOM     17  C   UNL     1      -2.825  13.998  24.657  0.00  0.00    +0.000 A 
ATOM     18  C   UNL     1      -1.606  14.359  24.073  0.00  0.00    +0.000 A 
ATOM     19  C   UNL     1      -1.022  13.643  22.983  0.00  0.00    +0.000 A 
BRANCH  19  20
ATOM     20  O   UNL     1       0.090  14.278  22.509  0.00  0.00    +0.000 OA
ATOM     21  C   UNL     1      -0.202  15.405  21.711  0.00  0.00    +0.000 C 
ENDBRANCH  19  20
BRANCH  16  22
ATOM     22  C   UNL     1      -4.856  12.554  24.808  0.00  0.00    +0.000 C 
BRANCH  22  23
ATOM     23  C   UNL     1      -6.080  12.906  23.923  0.00  0.00    +0.000 C 
ATOM     24  O   UNL     1      -6.491  12.273  22.967  0.00  0.00    +0.000 OA
BRANCH  23  25
ATOM     25  O   UNL     1      -6.695  14.045  24.315  0.00  0.00    +0.000 OA
ATOM     26  H   UNL     1      -6.112  14.820  24.485  0.00  0.00    +0.000 HD
ENDBRANCH  23  25
ENDBRANCH  22  23
ENDBRANCH  16  22
ENDBRANCH  11  14
BRANCH   1  29
ATOM     27  C   UNL     1       4.129   6.641  17.924  0.00  0.00    +0.000 C 
ATOM     28  C   UNL     1       4.074   8.119  17.592  0.00  0.00    +0.000 C 
ATOM     29  C   UNL     1       2.793   7.418  17.979  0.00  0.00    +0.000 C 
BRANCH  27  33
ATOM     30  C   UNL     1       5.897   4.025  14.792  0.00  0.00    +0.000 A 
ATOM     31  C   UNL     1       5.794   5.406  14.619  0.00  0.00    +0.000 A 
ATOM     32  C   UNL     1       5.186   6.213  15.605  0.00  0.00    +0.000 A 
ATOM     33  C   UNL     1       4.636   5.687  16.799  0.00  0.00    +0.000 A 
ATOM     34  C   UNL     1       4.709   4.288  16.914  0.00  0.00    +0.000 A 
ATOM     35  C   UNL     1       5.326   3.469  15.930  0.00  0.00    +0.000 A 
BRANCH  30  37
ATOM     36  C   UNL     1       6.089   3.618  12.460  0.00  0.00    +0.000 C 
ATOM     37  O   UNL     1       6.533   3.345  13.789  0.00  0.00    +0.000 OA
ENDBRANCH  30  37
ENDBRANCH  27  33
ENDBRANCH   1  29
TORSDOF 8
ENDMDL
MODEL 9
REMARK VINA RESULT:      -8.1      3.307      4.905
REMARK  Name = 
REMARK  10 active torsions:
REMARK  status: ('A' for Active; 'I' for Inactive)
REMARK    1  A    between atoms: C_1  and  O_2
REMARK    2  A    between atoms: O_2  and  C_3
REMARK    3  A    between atoms: C_6  and  C_7
REMARK    4  A    between atoms: C_9  and  C_10
REMARK    5  A    between atoms: C_20  and  C_21
REMARK    6  A    between atoms: C_23  and  C_24
REMARK    7  A    between atoms: C_24  and  C_25
REMARK    8  A    between atoms: C_25  and  O_27
REMARK    9  A    between atoms: C_30  and  O_31
REMARK   10  A    between atoms: O_31  and  C_32
REMARK                            x       y       z     vdW  Elec       q    Type
REMARK                         _______ _______ _______ _____ _____    ______ ____
ROOT
ATOM      1  C   UNL     1      -0.663  10.444  22.859  0.00  0.00    +0.000 C 
ATOM      2  O   UNL     1      -0.390  10.123  24.010  0.00  0.00    +0.000 OA
ATOM      3  N   UNL     1       0.038   9.914  21.702  0.00  0.00    +0.000 N 
ATOM      4  C   UNL     1      -0.440  10.487  20.496  0.00  0.00    +0.000 C 
ATOM      5  C   UNL     1       0.511  10.576  19.375  0.00  0.00    +0.000 C 
ATOM      6  C   UNL     1       1.522   9.515  19.195  0.00  0.00    +0.000 A 
ATOM      7  C   UNL     1       2.057   9.646  17.902  0.00  0.00    +0.000 A 
ATOM      8  F   UNL     1       1.880  10.788  17.223  0.00  0.00    +0.000 F 
ATOM      9  C   UNL     1       2.505   8.570  17.252  0.00  0.00    +0.000 A 
ATOM     10  C   UNL     1       2.556   7.406  17.967  0.00  0.00    +0.000 A 
ATOM     11  C   UNL     1       2.405   7.252  19.413  0.00  0.00    +0.000 A 
ATOM     12  C   UNL     1       1.736   8.407  20.079  0.00  0.00    +0.000 A 
ATOM     13  C   UNL     1       1.253   8.851  21.592  0.00  0.00    +0.000 C 
ENDROOT
BRANCH  11  14
ATOM     14  C   UNL     1       2.973   5.779  19.683  0.00  0.00    +0.000 A 
ATOM     15  C   UNL     1       4.453   5.627  19.602  0.00  0.00    +0.000 A 
ATOM     16  C   UNL     1       5.143   4.472  19.134  0.00  0.00    +0.000 A 
ATOM     17  C   UNL     1       4.402   3.305  19.065  0.00  0.00    +0.000 A 
ATOM     18  C   UNL     1       3.032   3.338  19.346  0.00  0.00    +0.000 A 
ATOM     19  C   UNL     1       2.316   4.550  19.592  0.00  0.00    +0.000 A 
BRANCH  19  20
ATOM     20  O   UNL     1       0.974   4.324  19.700  0.00  0.00    +0.000 OA
ATOM     21  C   UNL     1       0.605   2.988  19.432  0.00  0.00    +0.000 C 
ENDBRANCH  19  20
BRANCH  16  22
ATOM     22  C   UNL     1       6.601   4.419  18.674  0.00  0.00    +0.000 C 
BRANCH  22  23
ATOM     23  C   UNL     1       7.550   5.568  19.105  0.00  0.00    +0.000 C 
ATOM     24  O   UNL     1       7.903   6.513  18.422  0.00  0.00    +0.000 OA
BRANCH  23  25
ATOM     25  O   UNL     1       7.989   5.431  20.376  0.00  0.00    +0.000 OA
ATOM     26  H   UNL     1       8.375   4.556  20.614  0.00  0.00    +0.000 HD
ENDBRANCH  23  25
ENDBRANCH  22  23
ENDBRANCH  16  22
ENDBRANCH  11  14
BRANCH   1  29
ATOM     27  C   UNL     1      -1.878  12.900  23.340  0.00  0.00    +0.000 C 
ATOM     28  C   UNL     1      -2.886  11.823  23.690  0.00  0.00    +0.000 C 
ATOM     29  C   UNL     1      -1.855  11.528  22.625  0.00  0.00    +0.000 C 
BRANCH  27  33
ATOM     30  C   UNL     1      -3.509  16.602  21.491  0.00  0.00    +0.000 A 
ATOM     31  C   UNL     1      -2.170  16.238  21.341  0.00  0.00    +0.000 A 
ATOM     32  C   UNL     1      -1.661  15.084  21.976  0.00  0.00    +0.000 A 
ATOM     33  C   UNL     1      -2.450  14.248  22.802  0.00  0.00    +0.000 A 
ATOM     34  C   UNL     1      -3.778  14.676  22.974  0.00  0.00    +0.000 A 
ATOM     35  C   UNL     1      -4.301  15.831  22.333  0.00  0.00    +0.000 A 
BRANCH  30  37
ATOM     36  C   UNL     1      -4.063  17.574  19.396  0.00  0.00    +0.000 C 
ATOM     37  O   UNL     1      -3.902  17.719  20.806  0.00  0.00    +0.000 OA
ENDBRANCH  30  37
ENDBRANCH  27  33
ENDBRANCH   1  29
TORSDOF 8
ENDMDL
