MODEL 1
REMARK VINA RESULT:      -7.2      0.000      0.000
REMARK  Name = 
REMARK  7 active torsions:
REMARK  status: ('A' for Active; 'I' for Inactive)
REMARK    1  A    between atoms: C_2  and  C_3
REMARK    2  A    between atoms: C_4  and  C_5
REMARK    3  A    between atoms: N_10  and  C1*_11
REMARK    4  A    between atoms: C4*_13  and  C5*_14
REMARK    5  A    between atoms: C5*_14  and  O5*_15
REMARK    6  A    between atoms: C3*_16  and  O3*_17
REMARK    7  A    between atoms: C2*_18  and  O2*_19
REMARK                            x       y       z     vdW  Elec       q    Type
REMARK                         _______ _______ _______ _____ _____    ______ ____
ROOT
ATOM      1  C   UNL     1       3.490   3.621  19.229  0.00  0.00    +0.000 A 
ATOM      2  C   UNL     1       2.585   4.100  20.158  0.00  0.00    +0.000 A 
ATOM      3  N   UNL     1       2.758   5.463  20.286  0.00  0.00    +0.000 NA
ATOM      4  N   UNL     1       3.743   5.840  19.482  0.00  0.00    +0.000 NA
ATOM      5  N   UNL     1       4.192   4.735  18.844  0.00  0.00    +0.000 N 
ENDROOT
BRANCH   2   6
ATOM      6  C   UNL     1       1.600   3.353  20.926  0.00  0.00    +0.000 C 
ATOM      7  N   UNL     1       0.414   3.136  20.278  0.00  0.00    +0.000 N 
ATOM      8  O   UNL     1       1.769   2.937  22.065  0.00  0.00    +0.000 OA
ATOM      9  H   UNL     1       0.254   3.489  19.345  0.00  0.00    +0.000 HD
ATOM     10  H   UNL     1      -0.319   2.642  20.765  0.00  0.00    +0.000 HD
ENDBRANCH   2   6
BRANCH   5  11
ATOM     11  C1* UNL     1       5.308   4.817  17.919  0.00  0.00    +0.000 C 
ATOM     12  O4* UNL     1       6.525   4.417  18.591  0.00  0.00    +0.000 OA
ATOM     13  C4* UNL     1       7.609   5.257  18.128  0.00  0.00    +0.000 C 
ATOM     14  C3* UNL     1       7.037   6.171  17.045  0.00  0.00    +0.000 C 
ATOM     15  C2* UNL     1       5.546   6.214  17.353  0.00  0.00    +0.000 C 
BRANCH  14  16
ATOM     16  O3* UNL     1       7.198   5.608  15.728  0.00  0.00    +0.000 OA
ATOM     17  H3* UNL     1       8.137   5.396  15.577  0.00  0.00    +0.000 HD
ENDBRANCH  14  16
BRANCH  15  18
ATOM     18  O2* UNL     1       4.780   6.467  16.174  0.00  0.00    +0.000 OA
ATOM     19  H2* UNL     1       3.849   6.570  16.466  0.00  0.00    +0.000 HD
ENDBRANCH  15  18
BRANCH  13  20
ATOM     20  C5* UNL     1       8.196   6.032  19.313  0.00  0.00    +0.000 C 
BRANCH  20  21
ATOM     21  O5* UNL     1       7.915   5.358  20.536  0.00  0.00    +0.000 OA
ATOM     22  H5* UNL     1       7.291   5.924  21.029  0.00  0.00    +0.000 HD
ENDBRANCH  20  21
ENDBRANCH  13  20
ENDBRANCH   5  11
BRANCH   1  24
ATOM     23  C   UNL     1       3.856   1.158  18.402  0.00  0.00    +0.000 C 
ATOM     24  C   UNL     1       3.690   2.292  18.769  0.00  0.00    +0.000 C 
ENDBRANCH   1  24
TORSDOF 7
ENDMDL
MODEL 2
REMARK VINA RESULT:      -7.1      1.529      3.073
REMARK  Name = 
REMARK  7 active torsions:
REMARK  status: ('A' for Active; 'I' for Inactive)
REMARK    1  A    between atoms: C_2  and  C_3
REMARK    2  A    between atoms: C_4  and  C_5
REMARK    3  A    between atoms: N_10  and  C1*_11
REMARK    4  A    between atoms: C4*_13  and  C5*_14
REMARK    5  A    between atoms: C5*_14  and  O5*_15
REMARK    6  A    between atoms: C3*_16  and  O3*_17
REMARK    7  A    between atoms: C2*_18  and  O2*_19
REMARK                            x       y       z     vdW  Elec       q    Type
REMARK                         _______ _______ _______ _____ _____    ______ ____
ROOT
ATOM      1  C   UNL     1       3.333   4.707  19.959  0.00  0.00    +0.000 A 
ATOM      2  C   UNL     1       2.942   3.426  20.302  0.00  0.00    +0.000 A 
ATOM      3  N   UNL     1       3.977   2.556  20.028  0.00  0.00    +0.000 NA
ATOM      4  N   UNL     1       4.986   3.250  19.517  0.00  0.00    +0.000 NA
ATOM      5  N   UNL     1       4.604   4.546  19.468  0.00  0.00    +0.000 N 
ENDROOT
BRANCH   2   6
ATOM      6  C   UNL     1       1.666   2.988  20.847  0.00  0.00    +0.000 C 
ATOM      7  N   UNL     1       0.620   3.036  19.965  0.00  0.00    +0.000 N 
ATOM      8  O   UNL     1       1.490   2.604  21.997  0.00  0.00    +0.000 OA
ATOM      9  H   UNL     1       0.746   3.367  19.019  0.00  0.00    +0.000 HD
ATOM     10  H   UNL     1      -0.298   2.765  20.288  0.00  0.00    +0.000 HD
ENDBRANCH   2   6
BRANCH   5  11
ATOM     11  C1* UNL     1       5.485   5.556  18.911  0.00  0.00    +0.000 C 
ATOM     12  O4* UNL     1       5.137   5.794  17.527  0.00  0.00    +0.000 OA
ATOM     13  C4* UNL     1       6.353   6.005  16.771  0.00  0.00    +0.000 C 
ATOM     14  C3* UNL     1       7.511   5.980  17.769  0.00  0.00    +0.000 C 
ATOM     15  C2* UNL     1       6.963   5.180  18.944  0.00  0.00    +0.000 C 
BRANCH  14  16
ATOM     16  O3* UNL     1       7.835   7.300  18.249  0.00  0.00    +0.000 OA
ATOM     17  H3* UNL     1       7.632   7.957  17.558  0.00  0.00    +0.000 HD
ENDBRANCH  14  16
BRANCH  15  18
ATOM     18  O2* UNL     1       7.598   5.554  20.167  0.00  0.00    +0.000 OA
ATOM     19  H2* UNL     1       8.342   4.927  20.296  0.00  0.00    +0.000 HD
ENDBRANCH  15  18
BRANCH  13  20
ATOM     20  C5* UNL     1       6.475   4.928  15.689  0.00  0.00    +0.000 C 
BRANCH  20  21
ATOM     21  O5* UNL     1       7.549   5.233  14.803  0.00  0.00    +0.000 OA
ATOM     22  H5* UNL     1       8.347   4.814  15.179  0.00  0.00    +0.000 HD
ENDBRANCH  20  21
ENDBRANCH  13  20
ENDBRANCH   5  11
BRANCH   1  24
ATOM     23  C   UNL     1       2.019   6.971  20.138  0.00  0.00    +0.000 C 
ATOM     24  C   UNL     1       2.610   5.926  20.057  0.00  0.00    +0.000 C 
ENDBRANCH   1  24
TORSDOF 7
ENDMDL
MODEL 3
REMARK VINA RESULT:      -7.1      1.652      3.175
REMARK  Name = 
REMARK  7 active torsions:
REMARK  status: ('A' for Active; 'I' for Inactive)
REMARK    1  A    between atoms: C_2  and  C_3
REMARK    2  A    between atoms: C_4  and  C_5
REMARK    3  A    between atoms: N_10  and  C1*_11
REMARK    4  A    between atoms: C4*_13  and  C5*_14
REMARK    5  A    between atoms: C5*_14  and  O5*_15
REMARK    6  A    between atoms: C3*_16  and  O3*_17
REMARK    7  A    between atoms: C2*_18  and  O2*_19
REMARK                            x       y       z     vdW  Elec       q    Type
REMARK                         _______ _______ _______ _____ _____    ______ ____
ROOT
ATOM      1  C   UNL     1       3.453   4.692  19.671  0.00  0.00    +0.000 A 
ATOM      2  C   UNL     1       3.095   3.512  20.295  0.00  0.00    +0.000 A 
ATOM      3  N   UNL     1       4.036   2.547  19.999  0.00  0.00    +0.000 NA
ATOM      4  N   UNL     1       4.953   3.084  19.205  0.00  0.00    +0.000 NA
ATOM      5  N   UNL     1       4.607   4.375  19.000  0.00  0.00    +0.000 N 
ENDROOT
BRANCH   2   6
ATOM      6  C   UNL     1       1.927   3.248  21.123  0.00  0.00    +0.000 C 
ATOM      7  N   UNL     1       0.737   3.236  20.448  0.00  0.00    +0.000 N 
ATOM      8  O   UNL     1       1.957   3.053  22.332  0.00  0.00    +0.000 OA
ATOM      9  H   UNL     1       0.695   3.412  19.454  0.00  0.00    +0.000 HD
ATOM     10  H   UNL     1      -0.113   3.079  20.969  0.00  0.00    +0.000 HD
ENDBRANCH   2   6
BRANCH   5  11
ATOM     11  C1* UNL     1       5.401   5.224  18.130  0.00  0.00    +0.000 C 
ATOM     12  O4* UNL     1       4.683   5.460  16.896  0.00  0.00    +0.000 OA
ATOM     13  C4* UNL     1       5.629   5.463  15.801  0.00  0.00    +0.000 C 
ATOM     14  C3* UNL     1       7.021   5.303  16.411  0.00  0.00    +0.000 C 
ATOM     15  C2* UNL     1       6.758   4.635  17.754  0.00  0.00    +0.000 C 
BRANCH  14  16
ATOM     16  O3* UNL     1       7.645   6.577  16.668  0.00  0.00    +0.000 OA
ATOM     17  H3* UNL     1       8.430   6.448  17.231  0.00  0.00    +0.000 HD
ENDBRANCH  14  16
BRANCH  15  18
ATOM     18  O2* UNL     1       7.777   4.955  18.702  0.00  0.00    +0.000 OA
ATOM     19  H2* UNL     1       8.552   5.259  18.183  0.00  0.00    +0.000 HD
ENDBRANCH  15  18
BRANCH  13  20
ATOM     20  C5* UNL     1       5.276   4.341  14.819  0.00  0.00    +0.000 C 
BRANCH  20  21
ATOM     21  O5* UNL     1       6.447   3.621  14.445  0.00  0.00    +0.000 OA
ATOM     22  H5* UNL     1       7.093   3.746  15.166  0.00  0.00    +0.000 HD
ENDBRANCH  20  21
ENDBRANCH  13  20
ENDBRANCH   5  11
BRANCH   1  24
ATOM     23  C   UNL     1       2.245   7.020  19.713  0.00  0.00    +0.000 C 
ATOM     24  C   UNL     1       2.797   5.952  19.681  0.00  0.00    +0.000 C 
ENDBRANCH   1  24
TORSDOF 7
ENDMDL
MODEL 4
REMARK VINA RESULT:      -7.0      2.467      5.744
REMARK  Name = 
REMARK  7 active torsions:
REMARK  status: ('A' for Active; 'I' for Inactive)
REMARK    1  A    between atoms: C_2  and  C_3
REMARK    2  A    between atoms: C_4  and  C_5
REMARK    3  A    between atoms: N_10  and  C1*_11
REMARK    4  A    between atoms: C4*_13  and  C5*_14
REMARK    5  A    between atoms: C5*_14  and  O5*_15
REMARK    6  A    between atoms: C3*_16  and  O3*_17
REMARK    7  A    between atoms: C2*_18  and  O2*_19
REMARK                            x       y       z     vdW  Elec       q    Type
REMARK                         _______ _______ _______ _____ _____    ______ ____
ROOT
ATOM      1  C   UNL     1       5.859   5.370  17.747  0.00  0.00    +0.000 A 
ATOM      2  C   UNL     1       6.890   5.973  18.442  0.00  0.00    +0.000 A 
ATOM      3  N   UNL     1       6.929   5.455  19.720  0.00  0.00    +0.000 NA
ATOM      4  N   UNL     1       5.952   4.566  19.844  0.00  0.00    +0.000 NA
ATOM      5  N   UNL     1       5.300   4.512  18.660  0.00  0.00    +0.000 N 
ENDROOT
BRANCH   2   6
ATOM      6  C   UNL     1       7.810   7.001  17.978  0.00  0.00    +0.000 C 
ATOM      7  N   UNL     1       8.567   7.577  18.962  0.00  0.00    +0.000 N 
ATOM      8  O   UNL     1       7.930   7.360  16.813  0.00  0.00    +0.000 OA
ATOM      9  H   UNL     1       8.467   7.304  19.929  0.00  0.00    +0.000 HD
ATOM     10  H   UNL     1       9.210   8.313  18.709  0.00  0.00    +0.000 HD
ENDBRANCH   2   6
BRANCH   5  11
ATOM     11  C1* UNL     1       4.143   3.652  18.492  0.00  0.00    +0.000 C 
ATOM     12  O4* UNL     1       2.938   4.454  18.496  0.00  0.00    +0.000 OA
ATOM     13  C4* UNL     1       1.900   3.730  19.198  0.00  0.00    +0.000 C 
ATOM     14  C3* UNL     1       2.479   2.366  19.572  0.00  0.00    +0.000 C 
ATOM     15  C2* UNL     1       3.984   2.600  19.585  0.00  0.00    +0.000 C 
BRANCH  14  16
ATOM     16  O3* UNL     1       2.197   1.369  18.571  0.00  0.00    +0.000 OA
ATOM     17  H3* UNL     1       2.183   0.486  18.984  0.00  0.00    +0.000 HD
ENDBRANCH  14  16
BRANCH  15  18
ATOM     18  O2* UNL     1       4.698   1.396  19.297  0.00  0.00    +0.000 OA
ATOM     19  H2* UNL     1       4.309   0.700  19.868  0.00  0.00    +0.000 HD
ENDBRANCH  15  18
BRANCH  13  20
ATOM     20  C5* UNL     1       1.447   4.541  20.416  0.00  0.00    +0.000 C 
BRANCH  20  21
ATOM     21  O5* UNL     1       2.437   5.501  20.770  0.00  0.00    +0.000 OA
ATOM     22  H5* UNL     1       3.302   5.103  20.551  0.00  0.00    +0.000 HD
ENDBRANCH  20  21
ENDBRANCH  13  20
ENDBRANCH   5  11
BRANCH   1  24
ATOM     23  C   UNL     1       5.093   5.764  15.268  0.00  0.00    +0.000 C 
ATOM     24  C   UNL     1       5.432   5.577  16.408  0.00  0.00    +0.000 C 
ENDBRANCH   1  24
TORSDOF 7
ENDMDL
MODEL 5
REMARK VINA RESULT:      -6.9      2.320      5.846
REMARK  Name = 
REMARK  7 active torsions:
REMARK  status: ('A' for Active; 'I' for Inactive)
REMARK    1  A    between atoms: C_2  and  C_3
REMARK    2  A    between atoms: C_4  and  C_5
REMARK    3  A    between atoms: N_10  and  C1*_11
REMARK    4  A    between atoms: C4*_13  and  C5*_14
REMARK    5  A    between atoms: C5*_14  and  O5*_15
REMARK    6  A    between atoms: C3*_16  and  O3*_17
REMARK    7  A    between atoms: C2*_18  and  O2*_19
REMARK                            x       y       z     vdW  Elec       q    Type
REMARK                         _______ _______ _______ _____ _____    ______ ____
ROOT
ATOM      1  C   UNL     1       5.184   5.718  17.982  0.00  0.00    +0.000 A 
ATOM      2  C   UNL     1       6.554   5.816  18.132  0.00  0.00    +0.000 A 
ATOM      3  N   UNL     1       7.048   4.593  18.538  0.00  0.00    +0.000 NA
ATOM      4  N   UNL     1       6.032   3.749  18.659  0.00  0.00    +0.000 NA
ATOM      5  N   UNL     1       4.905   4.420  18.329  0.00  0.00    +0.000 N 
ENDROOT
BRANCH   2   6
ATOM      6  C   UNL     1       7.402   6.982  17.931  0.00  0.00    +0.000 C 
ATOM      7  N   UNL     1       8.355   7.170  18.895  0.00  0.00    +0.000 N 
ATOM      8  O   UNL     1       7.305   7.765  16.994  0.00  0.00    +0.000 OA
ATOM      9  H   UNL     1       8.436   6.543  19.682  0.00  0.00    +0.000 HD
ATOM     10  H   UNL     1       8.962   7.974  18.825  0.00  0.00    +0.000 HD
ENDBRANCH   2   6
BRANCH   5  11
ATOM     11  C1* UNL     1       3.609   3.770  18.405  0.00  0.00    +0.000 C 
ATOM     12  O4* UNL     1       2.730   4.539  19.259  0.00  0.00    +0.000 OA
ATOM     13  C4* UNL     1       1.917   3.625  20.032  0.00  0.00    +0.000 C 
ATOM     14  C3* UNL     1       2.259   2.212  19.561  0.00  0.00    +0.000 C 
ATOM     15  C2* UNL     1       3.655   2.353  18.968  0.00  0.00    +0.000 C 
BRANCH  14  16
ATOM     16  O3* UNL     1       1.377   1.768  18.511  0.00  0.00    +0.000 OA
ATOM     17  H3* UNL     1       1.435   0.798  18.426  0.00  0.00    +0.000 HD
ENDBRANCH  14  16
BRANCH  15  18
ATOM     18  O2* UNL     1       3.891   1.369  17.960  0.00  0.00    +0.000 OA
ATOM     19  H2* UNL     1       3.009   1.059  17.662  0.00  0.00    +0.000 HD
ENDBRANCH  15  18
BRANCH  13  20
ATOM     20  C5* UNL     1       2.188   3.838  21.525  0.00  0.00    +0.000 C 
BRANCH  20  21
ATOM     21  O5* UNL     1       1.746   2.712  22.277  0.00  0.00    +0.000 OA
ATOM     22  H5* UNL     1       1.223   2.158  21.666  0.00  0.00    +0.000 HD
ENDBRANCH  20  21
ENDBRANCH  13  20
ENDBRANCH   5  11
BRANCH   1  24
ATOM     23  C   UNL     1       3.470   7.566  17.254  0.00  0.00    +0.000 C 
ATOM     24  C   UNL     1       4.247   6.709  17.585  0.00  0.00    +0.000 C 
ENDBRANCH   1  24
TORSDOF 7
ENDMDL
MODEL 6
REMARK VINA RESULT:      -6.7      2.286      5.873
REMARK  Name = 
REMARK  7 active torsions:
REMARK  status: ('A' for Active; 'I' for Inactive)
REMARK    1  A    between atoms: C_2  and  C_3
REMARK    2  A    between atoms: C_4  and  C_5
REMARK    3  A    between atoms: N_10  and  C1*_11
REMARK    4  A    between atoms: C4*_13  and  C5*_14
REMARK    5  A    between atoms: C5*_14  and  O5*_15
REMARK    6  A    between atoms: C3*_16  and  O3*_17
REMARK    7  A    between atoms: C2*_18  and  O2*_19
REMARK                            x       y       z     vdW  Elec       q    Type
REMARK                         _______ _______ _______ _____ _____    ______ ____
ROOT
ATOM      1  C   UNL     1       4.866   5.590  18.019  0.00  0.00    +0.000 A 
ATOM      2  C   UNL     1       6.236   5.433  18.107  0.00  0.00    +0.000 A 
ATOM      3  N   UNL     1       6.512   4.143  18.513  0.00  0.00    +0.000 NA
ATOM      4  N   UNL     1       5.364   3.504  18.693  0.00  0.00    +0.000 NA
ATOM      5  N   UNL     1       4.367   4.370  18.401  0.00  0.00    +0.000 N 
ENDROOT
BRANCH   2   6
ATOM      6  C   UNL     1       7.276   6.419  17.849  0.00  0.00    +0.000 C 
ATOM      7  N   UNL     1       7.428   6.758  16.532  0.00  0.00    +0.000 N 
ATOM      8  O   UNL     1       7.986   6.929  18.707  0.00  0.00    +0.000 OA
ATOM      9  H   UNL     1       6.862   6.333  15.811  0.00  0.00    +0.000 HD
ATOM     10  H   UNL     1       8.147   7.422  16.284  0.00  0.00    +0.000 HD
ENDBRANCH   2   6
BRANCH   5  11
ATOM     11  C1* UNL     1       2.978   3.974  18.544  0.00  0.00    +0.000 C 
ATOM     12  O4* UNL     1       2.397   4.648  19.686  0.00  0.00    +0.000 OA
ATOM     13  C4* UNL     1       1.499   3.733  20.358  0.00  0.00    +0.000 C 
ATOM     14  C3* UNL     1       1.463   2.450  19.528  0.00  0.00    +0.000 C 
ATOM     15  C2* UNL     1       2.775   2.477  18.756  0.00  0.00    +0.000 C 
BRANCH  14  16
ATOM     16  O3* UNL     1       0.388   2.460  18.569  0.00  0.00    +0.000 OA
ATOM     17  H3* UNL     1      -0.199   3.218  18.745  0.00  0.00    +0.000 HD
ENDBRANCH  14  16
BRANCH  15  18
ATOM     18  O2* UNL     1       2.669   1.758  17.527  0.00  0.00    +0.000 OA
ATOM     19  H2* UNL     1       1.969   2.205  17.004  0.00  0.00    +0.000 HD
ENDBRANCH  15  18
BRANCH  13  20
ATOM     20  C5* UNL     1       1.984   3.503  21.792  0.00  0.00    +0.000 C 
BRANCH  20  21
ATOM     21  O5* UNL     1       1.466   2.278  22.302  0.00  0.00    +0.000 OA
ATOM     22  H5* UNL     1       1.143   1.770  21.532  0.00  0.00    +0.000 HD
ENDBRANCH  20  21
ENDBRANCH  13  20
ENDBRANCH   5  11
BRANCH   1  24
ATOM     23  C   UNL     1       3.453   7.693  17.337  0.00  0.00    +0.000 C 
ATOM     24  C   UNL     1       4.112   6.735  17.646  0.00  0.00    +0.000 C 
ENDBRANCH   1  24
TORSDOF 7
ENDMDL
MODEL 7
REMARK VINA RESULT:      -6.7      1.741      3.195
REMARK  Name = 
REMARK  7 active torsions:
REMARK  status: ('A' for Active; 'I' for Inactive)
REMARK    1  A    between atoms: C_2  and  C_3
REMARK    2  A    between atoms: C_4  and  C_5
REMARK    3  A    between atoms: N_10  and  C1*_11
REMARK    4  A    between atoms: C4*_13  and  C5*_14
REMARK    5  A    between atoms: C5*_14  and  O5*_15
REMARK    6  A    between atoms: C3*_16  and  O3*_17
REMARK    7  A    between atoms: C2*_18  and  O2*_19
REMARK                            x       y       z     vdW  Elec       q    Type
REMARK                         _______ _______ _______ _____ _____    ______ ____
ROOT
ATOM      1  C   UNL     1       2.986   4.599  19.278  0.00  0.00    +0.000 A 
ATOM      2  C   UNL     1       2.449   3.326  19.320  0.00  0.00    +0.000 A 
ATOM      3  N   UNL     1       3.362   2.439  18.786  0.00  0.00    +0.000 NA
ATOM      4  N   UNL     1       4.435   3.120  18.404  0.00  0.00    +0.000 NA
ATOM      5  N   UNL     1       4.214   4.423  18.694  0.00  0.00    +0.000 N 
ENDROOT
BRANCH   2   6
ATOM      6  C   UNL     1       1.143   2.913  19.812  0.00  0.00    +0.000 C 
ATOM      7  N   UNL     1       1.020   2.908  21.175  0.00  0.00    +0.000 N 
ATOM      8  O   UNL     1       0.201   2.582  19.103  0.00  0.00    +0.000 OA
ATOM      9  H   UNL     1       1.794   3.162  21.773  0.00  0.00    +0.000 HD
ATOM     10  H   UNL     1       0.144   2.611  21.581  0.00  0.00    +0.000 HD
ENDBRANCH   2   6
BRANCH   5  11
ATOM     11  C1* UNL     1       5.199   5.433  18.352  0.00  0.00    +0.000 C 
ATOM     12  O4* UNL     1       5.116   5.732  16.938  0.00  0.00    +0.000 OA
ATOM     13  C4* UNL     1       6.454   5.945  16.429  0.00  0.00    +0.000 C 
ATOM     14  C3* UNL     1       7.407   5.855  17.621  0.00  0.00    +0.000 C 
ATOM     15  C2* UNL     1       6.639   5.022  18.640  0.00  0.00    +0.000 C 
BRANCH  14  16
ATOM     16  O3* UNL     1       7.657   7.147  18.208  0.00  0.00    +0.000 OA
ATOM     17  H3* UNL     1       7.382   7.846  17.586  0.00  0.00    +0.000 HD
ENDBRANCH  14  16
BRANCH  15  18
ATOM     18  O2* UNL     1       7.043   5.334  19.974  0.00  0.00    +0.000 OA
ATOM     19  H2* UNL     1       6.230   5.308  20.523  0.00  0.00    +0.000 HD
ENDBRANCH  15  18
BRANCH  13  20
ATOM     20  C5* UNL     1       6.758   4.908  15.343  0.00  0.00    +0.000 C 
BRANCH  20  21
ATOM     21  O5* UNL     1       7.762   5.395  14.458  0.00  0.00    +0.000 OA
ATOM     22  H5* UNL     1       7.363   6.139  13.967  0.00  0.00    +0.000 HD
ENDBRANCH  20  21
ENDBRANCH  13  20
ENDBRANCH   5  11
BRANCH   1  24
ATOM     23  C   UNL     1       1.960   6.883  20.062  0.00  0.00    +0.000 C 
ATOM     24  C   UNL     1       2.421   5.829  19.710  0.00  0.00    +0.000 C 
ENDBRANCH   1  24
TORSDOF 7
ENDMDL
MODEL 8
REMARK VINA RESULT:      -6.6      1.334      1.334
REMARK  Name = 
REMARK  7 active torsions:
REMARK  status: ('A' for Active; 'I' for Inactive)
REMARK    1  A    between atoms: C_2  and  C_3
REMARK    2  A    between atoms: C_4  and  C_5
REMARK    3  A    between atoms: N_10  and  C1*_11
REMARK    4  A    between atoms: C4*_13  and  C5*_14
REMARK    5  A    between atoms: C5*_14  and  O5*_15
REMARK    6  A    between atoms: C3*_16  and  O3*_17
REMARK    7  A    between atoms: C2*_18  and  O2*_19
REMARK                            x       y       z     vdW  Elec       q    Type
REMARK                         _______ _______ _______ _____ _____    ______ ____
ROOT
ATOM      1  C   UNL     1       3.232   3.624  18.131  0.00  0.00    +0.000 A 
ATOM      2  C   UNL     1       2.069   4.159  18.653  0.00  0.00    +0.000 A 
ATOM      3  N   UNL     1       2.074   5.523  18.449  0.00  0.00    +0.000 NA
ATOM      4  N   UNL     1       3.203   5.852  17.834  0.00  0.00    +0.000 NA
ATOM      5  N   UNL     1       3.907   4.714  17.642  0.00  0.00    +0.000 N 
ENDROOT
BRANCH   2   6
ATOM      6  C   UNL     1       0.985   3.466  19.334  0.00  0.00    +0.000 C 
ATOM      7  N   UNL     1       0.743   3.898  20.610  0.00  0.00    +0.000 N 
ATOM      8  O   UNL     1       0.318   2.561  18.849  0.00  0.00    +0.000 OA
ATOM      9  H   UNL     1       1.295   4.632  21.030  0.00  0.00    +0.000 HD
ATOM     10  H   UNL     1       0.016   3.444  21.145  0.00  0.00    +0.000 HD
ENDBRANCH   2   6
BRANCH   5  11
ATOM     11  C1* UNL     1       5.220   4.753  17.023  0.00  0.00    +0.000 C 
ATOM     12  O4* UNL     1       6.221   4.340  17.984  0.00  0.00    +0.000 OA
ATOM     13  C4* UNL     1       7.407   5.147  17.794  0.00  0.00    +0.000 C 
ATOM     14  C3* UNL     1       7.148   6.050  16.588  0.00  0.00    +0.000 C 
ATOM     15  C2* UNL     1       5.628   6.132  16.514  0.00  0.00    +0.000 C 
BRANCH  14  16
ATOM     16  O3* UNL     1       7.617   5.457  15.362  0.00  0.00    +0.000 OA
ATOM     17  H3* UNL     1       7.951   6.155  14.769  0.00  0.00    +0.000 HD
ENDBRANCH  14  16
BRANCH  15  18
ATOM     18  O2* UNL     1       5.187   6.376  15.178  0.00  0.00    +0.000 OA
ATOM     19  H2* UNL     1       5.473   5.603  14.645  0.00  0.00    +0.000 HD
ENDBRANCH  15  18
BRANCH  13  20
ATOM     20  C5* UNL     1       7.701   5.933  19.076  0.00  0.00    +0.000 C 
BRANCH  20  21
ATOM     21  O5* UNL     1       7.316   5.179  20.221  0.00  0.00    +0.000 OA
ATOM     22  H5* UNL     1       7.471   5.752  20.996  0.00  0.00    +0.000 HD
ENDBRANCH  20  21
ENDBRANCH  13  20
ENDBRANCH   5  11
BRANCH   1  24
ATOM     23  C   UNL     1       4.037   1.128  18.060  0.00  0.00    +0.000 C 
ATOM     24  C   UNL     1       3.671   2.274  18.106  0.00  0.00    +0.000 C 
ENDBRANCH   1  24
TORSDOF 7
ENDMDL
MODEL 9
REMARK VINA RESULT:      -6.5      1.013      1.246
REMARK  Name = 
REMARK  7 active torsions:
REMARK  status: ('A' for Active; 'I' for Inactive)
REMARK    1  A    between atoms: C_2  and  C_3
REMARK    2  A    between atoms: C_4  and  C_5
REMARK    3  A    between atoms: N_10  and  C1*_11
REMARK    4  A    between atoms: C4*_13  and  C5*_14
REMARK    5  A    between atoms: C5*_14  and  O5*_15
REMARK    6  A    between atoms: C3*_16  and  O3*_17
REMARK    7  A    between atoms: C2*_18  and  O2*_19
REMARK                            x       y       z     vdW  Elec       q    Type
REMARK                         _______ _______ _______ _____ _____    ______ ____
ROOT
ATOM      1  C   UNL     1       3.661   3.461  19.326  0.00  0.00    +0.000 A 
ATOM      2  C   UNL     1       2.782   4.068  20.203  0.00  0.00    +0.000 A 
ATOM      3  N   UNL     1       3.082   5.413  20.277  0.00  0.00    +0.000 NA
ATOM      4  N   UNL     1       4.122   5.656  19.489  0.00  0.00    +0.000 NA
ATOM      5  N   UNL     1       4.478   4.484  18.915  0.00  0.00    +0.000 N 
ENDROOT
BRANCH   2   6
ATOM      6  C   UNL     1       1.707   3.455  20.971  0.00  0.00    +0.000 C 
ATOM      7  N   UNL     1       0.503   3.399  20.325  0.00  0.00    +0.000 N 
ATOM      8  O   UNL     1       1.822   3.016  22.109  0.00  0.00    +0.000 OA
ATOM      9  H   UNL     1       0.388   3.773  19.393  0.00  0.00    +0.000 HD
ATOM     10  H   UNL     1      -0.289   3.004  20.811  0.00  0.00    +0.000 HD
ENDBRANCH   2   6
BRANCH   5  11
ATOM     11  C1* UNL     1       5.622   4.416  18.024  0.00  0.00    +0.000 C 
ATOM     12  O4* UNL     1       6.804   4.887  18.715  0.00  0.00    +0.000 OA
ATOM     13  C4* UNL     1       7.615   5.642  17.784  0.00  0.00    +0.000 C 
ATOM     14  C3* UNL     1       6.931   5.556  16.420  0.00  0.00    +0.000 C 
ATOM     15  C2* UNL     1       5.477   5.256  16.759  0.00  0.00    +0.000 C 
BRANCH  14  16
ATOM     16  O3* UNL     1       7.435   4.458  15.634  0.00  0.00    +0.000 OA
ATOM     17  H3* UNL     1       7.959   4.804  14.888  0.00  0.00    +0.000 HD
ENDBRANCH  14  16
BRANCH  15  18
ATOM     18  O2* UNL     1       4.833   4.546  15.700  0.00  0.00    +0.000 OA
ATOM     19  H2* UNL     1       3.918   4.365  16.003  0.00  0.00    +0.000 HD
ENDBRANCH  15  18
BRANCH  13  20
ATOM     20  C5* UNL     1       7.764   7.081  18.287  0.00  0.00    +0.000 C 
BRANCH  20  21
ATOM     21  O5* UNL     1       7.725   7.996  17.196  0.00  0.00    +0.000 OA
ATOM     22  H5* UNL     1       7.439   8.855  17.563  0.00  0.00    +0.000 HD
ENDBRANCH  20  21
ENDBRANCH  13  20
ENDBRANCH   5  11
BRANCH   1  24
ATOM     23  C   UNL     1       3.838   0.950  18.589  0.00  0.00    +0.000 C 
ATOM     24  C   UNL     1       3.744   2.099  18.931  0.00  0.00    +0.000 C 
ENDBRANCH   1  24
TORSDOF 7
ENDMDL
