MODEL 1
REMARK VINA RESULT:      -7.4      0.000      0.000
REMARK  Name = 
REMARK  3 active torsions:
REMARK  status: ('A' for Active; 'I' for Inactive)
REMARK    1  A    between atoms: N_3  and  C_4
REMARK    2  A    between atoms: C_4  and  C_5
REMARK    3  A    between atoms: N_13  and  C_14
REMARK                            x       y       z     vdW  Elec       q    Type
REMARK                         _______ _______ _______ _____ _____    ______ ____
ROOT
ATOM      1  O   UNL     1       4.474   5.982  15.979  0.00  0.00    +0.000 OA
ATOM      2  C   UNL     1       5.438   5.558  16.599  0.00  0.00    +0.000 C 
ATOM      3  N   UNL     1       5.519   5.423  17.988  0.00  0.00    +0.000 N 
ATOM      4  C   UNL     1       6.874   5.103  18.373  0.00  0.00    +0.000 C 
ATOM      5  C   UNL     1       7.403   4.414  17.122  0.00  0.00    +0.000 C 
ATOM      6  N   UNL     1       6.650   5.049  16.070  0.00  0.00    +0.000 N 
ENDROOT
BRANCH   6   7
ATOM      7  C   UNL     1       6.836   4.808  14.699  0.00  0.00    +0.000 A 
ATOM      8  C   UNL     1       7.759   5.586  13.992  0.00  0.00    +0.000 A 
ATOM      9  C   UNL     1       7.977   5.370  12.629  0.00  0.00    +0.000 A 
ATOM     10  C   UNL     1       7.232   4.404  11.954  0.00  0.00    +0.000 A 
ATOM     11  C   UNL     1       6.300   3.641  12.654  0.00  0.00    +0.000 A 
ATOM     12 CL   UNL     1       5.328   2.500  11.803  0.00  0.00    +0.000 Cl
ATOM     13  C   UNL     1       6.121   3.813  14.029  0.00  0.00    +0.000 A 
ENDBRANCH   6   7
BRANCH   3  14
ATOM     14  C   UNL     1       4.477   5.821  18.924  0.00  0.00    +0.000 C 
BRANCH  14  15
ATOM     15  C   UNL     1       3.514   4.698  19.393  0.00  0.00    +0.000 C 
ATOM     16  C   UNL     1       2.417   4.439  18.345  0.00  0.00    +0.000 C 
ATOM     17  C   UNL     1       1.367   3.450  18.835  0.00  0.00    +0.000 C 
ATOM     18  C   UNL     1       0.842   3.887  20.195  0.00  0.00    +0.000 C 
ATOM     19  C   UNL     1       1.992   4.024  21.186  0.00  0.00    +0.000 C 
ATOM     20  N   UNL     1       2.974   5.005  20.734  0.00  0.00    +0.000 NA
ATOM     21  H   UNL     1       3.744   5.038  21.402  0.00  0.00    +0.000 HD
ENDBRANCH  14  15
ENDBRANCH   3  14
TORSDOF 3
ENDMDL
MODEL 2
REMARK VINA RESULT:      -7.3      2.317      7.009
REMARK  Name = 
REMARK  3 active torsions:
REMARK  status: ('A' for Active; 'I' for Inactive)
REMARK    1  A    between atoms: N_3  and  C_4
REMARK    2  A    between atoms: C_4  and  C_5
REMARK    3  A    between atoms: N_13  and  C_14
REMARK                            x       y       z     vdW  Elec       q    Type
REMARK                         _______ _______ _______ _____ _____    ______ ____
ROOT
ATOM      1  O   UNL     1       5.328   3.667  17.760  0.00  0.00    +0.000 OA
ATOM      2  C   UNL     1       5.108   4.859  17.607  0.00  0.00    +0.000 C 
ATOM      3  N   UNL     1       5.801   5.714  16.744  0.00  0.00    +0.000 N 
ATOM      4  C   UNL     1       5.415   7.083  16.992  0.00  0.00    +0.000 C 
ATOM      5  C   UNL     1       4.010   6.917  17.556  0.00  0.00    +0.000 C 
ATOM      6  N   UNL     1       4.079   5.631  18.202  0.00  0.00    +0.000 N 
ENDROOT
BRANCH   6   7
ATOM      7  C   UNL     1       3.038   5.057  18.950  0.00  0.00    +0.000 A 
ATOM      8  C   UNL     1       2.773   5.547  20.233  0.00  0.00    +0.000 A 
ATOM      9  C   UNL     1       1.740   5.006  21.003  0.00  0.00    +0.000 A 
ATOM     10  C   UNL     1       0.997   3.935  20.510  0.00  0.00    +0.000 A 
ATOM     11  C   UNL     1       1.273   3.434  19.240  0.00  0.00    +0.000 A 
ATOM     12 CL   UNL     1       0.404   2.062  18.662  0.00  0.00    +0.000 Cl
ATOM     13  C   UNL     1       2.266   4.010  18.442  0.00  0.00    +0.000 A 
ENDBRANCH   6   7
BRANCH   3  14
ATOM     14  C   UNL     1       6.938   5.321  15.923  0.00  0.00    +0.000 C 
BRANCH  14  15
ATOM     15  C   UNL     1       6.663   5.158  14.405  0.00  0.00    +0.000 C 
ATOM     16  C   UNL     1       6.040   3.783  14.103  0.00  0.00    +0.000 C 
ATOM     17  C   UNL     1       5.894   3.526  12.609  0.00  0.00    +0.000 C 
ATOM     18  C   UNL     1       7.223   3.778  11.911  0.00  0.00    +0.000 C 
ATOM     19  C   UNL     1       7.708   5.195  12.194  0.00  0.00    +0.000 C 
ATOM     20  N   UNL     1       7.889   5.423  13.624  0.00  0.00    +0.000 NA
ATOM     21  H   UNL     1       8.174   6.390  13.774  0.00  0.00    +0.000 HD
ENDBRANCH  14  15
ENDBRANCH   3  14
TORSDOF 3
ENDMDL
MODEL 3
REMARK VINA RESULT:      -7.3      0.979      1.306
REMARK  Name = 
REMARK  3 active torsions:
REMARK  status: ('A' for Active; 'I' for Inactive)
REMARK    1  A    between atoms: N_3  and  C_4
REMARK    2  A    between atoms: C_4  and  C_5
REMARK    3  A    between atoms: N_13  and  C_14
REMARK                            x       y       z     vdW  Elec       q    Type
REMARK                         _______ _______ _______ _____ _____    ______ ____
ROOT
ATOM      1  O   UNL     1       4.534   5.717  16.132  0.00  0.00    +0.000 OA
ATOM      2  C   UNL     1       5.572   5.391  16.690  0.00  0.00    +0.000 C 
ATOM      3  N   UNL     1       5.752   5.264  18.070  0.00  0.00    +0.000 N 
ATOM      4  C   UNL     1       7.153   5.081  18.369  0.00  0.00    +0.000 C 
ATOM      5  C   UNL     1       7.670   4.449  17.084  0.00  0.00    +0.000 C 
ATOM      6  N   UNL     1       6.794   5.006  16.084  0.00  0.00    +0.000 N 
ENDROOT
BRANCH   6   7
ATOM      7  C   UNL     1       6.918   4.785  14.703  0.00  0.00    +0.000 A 
ATOM      8  C   UNL     1       7.807   5.575  13.966  0.00  0.00    +0.000 A 
ATOM      9  C   UNL     1       7.964   5.379  12.592  0.00  0.00    +0.000 A 
ATOM     10  C   UNL     1       7.191   4.421  11.937  0.00  0.00    +0.000 A 
ATOM     11  C   UNL     1       6.292   3.647  12.667  0.00  0.00    +0.000 A 
ATOM     12 CL   UNL     1       5.285   2.515  11.845  0.00  0.00    +0.000 Cl
ATOM     13  C   UNL     1       6.175   3.798  14.052  0.00  0.00    +0.000 A 
ENDBRANCH   6   7
BRANCH   3  14
ATOM     14  C   UNL     1       4.735   5.555  19.071  0.00  0.00    +0.000 C 
BRANCH  14  15
ATOM     15  C   UNL     1       3.607   4.501  19.227  0.00  0.00    +0.000 C 
ATOM     16  C   UNL     1       4.165   3.073  19.088  0.00  0.00    +0.000 C 
ATOM     17  C   UNL     1       3.066   2.018  19.086  0.00  0.00    +0.000 C 
ATOM     18  C   UNL     1       2.007   2.379  18.054  0.00  0.00    +0.000 C 
ATOM     19  C   UNL     1       1.450   3.770  18.334  0.00  0.00    +0.000 C 
ATOM     20  N   UNL     1       2.499   4.784  18.291  0.00  0.00    +0.000 NA
ATOM     21  H   UNL     1       2.095   5.692  18.521  0.00  0.00    +0.000 HD
ENDBRANCH  14  15
ENDBRANCH   3  14
TORSDOF 3
ENDMDL
MODEL 4
REMARK VINA RESULT:      -7.2      2.825      7.136
REMARK  Name = 
REMARK  3 active torsions:
REMARK  status: ('A' for Active; 'I' for Inactive)
REMARK    1  A    between atoms: N_3  and  C_4
REMARK    2  A    between atoms: C_4  and  C_5
REMARK    3  A    between atoms: N_13  and  C_14
REMARK                            x       y       z     vdW  Elec       q    Type
REMARK                         _______ _______ _______ _____ _____    ______ ____
ROOT
ATOM      1  O   UNL     1       5.203   3.230  17.326  0.00  0.00    +0.000 OA
ATOM      2  C   UNL     1       4.971   4.426  17.433  0.00  0.00    +0.000 C 
ATOM      3  N   UNL     1       5.691   5.455  16.818  0.00  0.00    +0.000 N 
ATOM      4  C   UNL     1       5.272   6.732  17.346  0.00  0.00    +0.000 C 
ATOM      5  C   UNL     1       3.844   6.438  17.787  0.00  0.00    +0.000 C 
ATOM      6  N   UNL     1       3.903   5.040  18.132  0.00  0.00    +0.000 N 
ENDROOT
BRANCH   6   7
ATOM      7  C   UNL     1       2.836   4.308  18.679  0.00  0.00    +0.000 A 
ATOM      8  C   UNL     1       1.719   4.038  17.881  0.00  0.00    +0.000 A 
ATOM      9  C   UNL     1       0.642   3.306  18.388  0.00  0.00    +0.000 A 
ATOM     10  C   UNL     1       0.656   2.881  19.715  0.00  0.00    +0.000 A 
ATOM     11  C   UNL     1       1.761   3.166  20.515  0.00  0.00    +0.000 A 
ATOM     12 CL   UNL     1       1.745   2.706  22.176  0.00  0.00    +0.000 Cl
ATOM     13  C   UNL     1       2.866   3.847  19.996  0.00  0.00    +0.000 A 
ENDBRANCH   6   7
BRANCH   3  14
ATOM     14  C   UNL     1       6.873   5.262  15.990  0.00  0.00    +0.000 C 
BRANCH  14  15
ATOM     15  C   UNL     1       6.627   5.147  14.463  0.00  0.00    +0.000 C 
ATOM     16  C   UNL     1       6.051   3.767  14.099  0.00  0.00    +0.000 C 
ATOM     17  C   UNL     1       5.936   3.563  12.594  0.00  0.00    +0.000 C 
ATOM     18  C   UNL     1       7.267   3.880  11.928  0.00  0.00    +0.000 C 
ATOM     19  C   UNL     1       7.705   5.299  12.272  0.00  0.00    +0.000 C 
ATOM     20  N   UNL     1       7.856   5.478  13.713  0.00  0.00    +0.000 NA
ATOM     21  H   UNL     1       8.110   6.447  13.904  0.00  0.00    +0.000 HD
ENDBRANCH  14  15
ENDBRANCH   3  14
TORSDOF 3
ENDMDL
MODEL 5
REMARK VINA RESULT:      -7.1      1.266      1.481
REMARK  Name = 
REMARK  3 active torsions:
REMARK  status: ('A' for Active; 'I' for Inactive)
REMARK    1  A    between atoms: N_3  and  C_4
REMARK    2  A    between atoms: C_4  and  C_5
REMARK    3  A    between atoms: N_13  and  C_14
REMARK                            x       y       z     vdW  Elec       q    Type
REMARK                         _______ _______ _______ _____ _____    ______ ____
ROOT
ATOM      1  O   UNL     1       4.803   3.230  16.411  0.00  0.00    +0.000 OA
ATOM      2  C   UNL     1       5.429   4.226  16.742  0.00  0.00    +0.000 C 
ATOM      3  N   UNL     1       5.558   4.713  18.047  0.00  0.00    +0.000 N 
ATOM      4  C   UNL     1       6.176   6.018  18.026  0.00  0.00    +0.000 C 
ATOM      5  C   UNL     1       6.988   5.961  16.739  0.00  0.00    +0.000 C 
ATOM      6  N   UNL     1       6.213   5.069  15.916  0.00  0.00    +0.000 N 
ENDROOT
BRANCH   6   7
ATOM      7  C   UNL     1       6.512   4.753  14.580  0.00  0.00    +0.000 A 
ATOM      8  C   UNL     1       7.585   5.397  13.954  0.00  0.00    +0.000 A 
ATOM      9  C   UNL     1       7.917   5.103  12.629  0.00  0.00    +0.000 A 
ATOM     10  C   UNL     1       7.144   4.197  11.906  0.00  0.00    +0.000 A 
ATOM     11  C   UNL     1       6.064   3.569  12.523  0.00  0.00    +0.000 A 
ATOM     12 CL   UNL     1       5.065   2.505  11.607  0.00  0.00    +0.000 Cl
ATOM     13  C   UNL     1       5.764   3.815  13.866  0.00  0.00    +0.000 A 
ENDBRANCH   6   7
BRANCH   3  14
ATOM     14  C   UNL     1       4.915   4.132  19.217  0.00  0.00    +0.000 C 
BRANCH  14  15
ATOM     15  C   UNL     1       3.367   4.051  19.178  0.00  0.00    +0.000 C 
ATOM     16  C   UNL     1       2.748   4.704  20.426  0.00  0.00    +0.000 C 
ATOM     17  C   UNL     1       1.238   4.511  20.496  0.00  0.00    +0.000 C 
ATOM     18  C   UNL     1       0.899   3.037  20.329  0.00  0.00    +0.000 C 
ATOM     19  C   UNL     1       1.473   2.509  19.020  0.00  0.00    +0.000 C 
ATOM     20  N   UNL     1       2.926   2.655  18.976  0.00  0.00    +0.000 NA
ATOM     21  H   UNL     1       3.266   2.327  18.072  0.00  0.00    +0.000 HD
ENDBRANCH  14  15
ENDBRANCH   3  14
TORSDOF 3
ENDMDL
MODEL 6
REMARK VINA RESULT:      -7.1      1.080      1.388
REMARK  Name = 
REMARK  3 active torsions:
REMARK  status: ('A' for Active; 'I' for Inactive)
REMARK    1  A    between atoms: N_3  and  C_4
REMARK    2  A    between atoms: C_4  and  C_5
REMARK    3  A    between atoms: N_13  and  C_14
REMARK                            x       y       z     vdW  Elec       q    Type
REMARK                         _______ _______ _______ _____ _____    ______ ____
ROOT
ATOM      1  O   UNL     1       4.803   6.829  15.348  0.00  0.00    +0.000 OA
ATOM      2  C   UNL     1       5.342   6.022  16.090  0.00  0.00    +0.000 C 
ATOM      3  N   UNL     1       5.074   5.860  17.453  0.00  0.00    +0.000 N 
ATOM      4  C   UNL     1       6.051   4.975  18.044  0.00  0.00    +0.000 C 
ATOM      5  C   UNL     1       6.472   4.128  16.851  0.00  0.00    +0.000 C 
ATOM      6  N   UNL     1       6.296   5.033  15.744  0.00  0.00    +0.000 N 
ENDROOT
BRANCH   6   7
ATOM      7  C   UNL     1       6.633   4.739  14.413  0.00  0.00    +0.000 A 
ATOM      8  C   UNL     1       7.610   5.509  13.773  0.00  0.00    +0.000 A 
ATOM      9  C   UNL     1       7.978   5.241  12.452  0.00  0.00    +0.000 A 
ATOM     10  C   UNL     1       7.330   4.229  11.746  0.00  0.00    +0.000 A 
ATOM     11  C   UNL     1       6.344   3.474  12.376  0.00  0.00    +0.000 A 
ATOM     12 CL   UNL     1       5.493   2.273  11.479  0.00  0.00    +0.000 Cl
ATOM     13  C   UNL     1       6.015   3.699  13.716  0.00  0.00    +0.000 A 
ENDBRANCH   6   7
BRANCH   3  14
ATOM     14  C   UNL     1       4.139   6.674  18.218  0.00  0.00    +0.000 C 
BRANCH  14  15
ATOM     15  C   UNL     1       2.797   5.997  18.599  0.00  0.00    +0.000 C 
ATOM     16  C   UNL     1       2.746   5.683  20.105  0.00  0.00    +0.000 C 
ATOM     17  C   UNL     1       1.507   4.884  20.491  0.00  0.00    +0.000 C 
ATOM     18  C   UNL     1       1.383   3.662  19.593  0.00  0.00    +0.000 C 
ATOM     19  C   UNL     1       1.347   4.083  18.129  0.00  0.00    +0.000 C 
ATOM     20  N   UNL     1       2.555   4.810  17.752  0.00  0.00    +0.000 NA
ATOM     21  H   UNL     1       2.475   5.108  16.779  0.00  0.00    +0.000 HD
ENDBRANCH  14  15
ENDBRANCH   3  14
TORSDOF 3
ENDMDL
MODEL 7
REMARK VINA RESULT:      -6.9      5.418      6.725
REMARK  Name = 
REMARK  3 active torsions:
REMARK  status: ('A' for Active; 'I' for Inactive)
REMARK    1  A    between atoms: N_3  and  C_4
REMARK    2  A    between atoms: C_4  and  C_5
REMARK    3  A    between atoms: N_13  and  C_14
REMARK                            x       y       z     vdW  Elec       q    Type
REMARK                         _______ _______ _______ _____ _____    ______ ____
ROOT
ATOM      1  O   UNL     1       1.977   9.094  17.259  0.00  0.00    +0.000 OA
ATOM      2  C   UNL     1       1.827   8.752  18.423  0.00  0.00    +0.000 C 
ATOM      3  N   UNL     1       1.046   9.417  19.374  0.00  0.00    +0.000 N 
ATOM      4  C   UNL     1       1.282   8.854  20.684  0.00  0.00    +0.000 C 
ATOM      5  C   UNL     1       1.710   7.433  20.344  0.00  0.00    +0.000 C 
ATOM      6  N   UNL     1       2.337   7.592  19.056  0.00  0.00    +0.000 N 
ENDROOT
BRANCH   6   7
ATOM      7  C   UNL     1       2.974   6.561  18.346  0.00  0.00    +0.000 A 
ATOM      8  C   UNL     1       4.153   6.845  17.648  0.00  0.00    +0.000 A 
ATOM      9  C   UNL     1       4.819   5.843  16.938  0.00  0.00    +0.000 A 
ATOM     10  C   UNL     1       4.280   4.559  16.881  0.00  0.00    +0.000 A 
ATOM     11  C   UNL     1       3.096   4.280  17.561  0.00  0.00    +0.000 A 
ATOM     12 CL   UNL     1       2.391   2.713  17.429  0.00  0.00    +0.000 Cl
ATOM     13  C   UNL     1       2.457   5.264  18.322  0.00  0.00    +0.000 A 
ENDBRANCH   6   7
BRANCH   3  14
ATOM     14  C   UNL     1       0.328  10.661  19.137  0.00  0.00    +0.000 C 
BRANCH  14  15
ATOM     15  C   UNL     1      -1.201  10.536  18.911  0.00  0.00    +0.000 C 
ATOM     16  C   UNL     1      -1.506   9.926  17.531  0.00  0.00    +0.000 C 
ATOM     17  C   UNL     1      -2.996   9.925  17.212  0.00  0.00    +0.000 C 
ATOM     18  C   UNL     1      -3.567  11.320  17.419  0.00  0.00    +0.000 C 
ATOM     19  C   UNL     1      -3.297  11.796  18.842  0.00  0.00    +0.000 C 
ATOM     20  N   UNL     1      -1.866  11.838  19.129  0.00  0.00    +0.000 NA
ATOM     21  H   UNL     1      -1.729  12.121  20.099  0.00  0.00    +0.000 HD
ENDBRANCH  14  15
ENDBRANCH   3  14
TORSDOF 3
ENDMDL
MODEL 8
REMARK VINA RESULT:      -6.9      5.293      6.681
REMARK  Name = 
REMARK  3 active torsions:
REMARK  status: ('A' for Active; 'I' for Inactive)
REMARK    1  A    between atoms: N_3  and  C_4
REMARK    2  A    between atoms: C_4  and  C_5
REMARK    3  A    between atoms: N_13  and  C_14
REMARK                            x       y       z     vdW  Elec       q    Type
REMARK                         _______ _______ _______ _____ _____    ______ ____
ROOT
ATOM      1  O   UNL     1       2.117   8.969  17.235  0.00  0.00    +0.000 OA
ATOM      2  C   UNL     1       1.940   8.611  18.390  0.00  0.00    +0.000 C 
ATOM      3  N   UNL     1       1.168   9.282  19.343  0.00  0.00    +0.000 N 
ATOM      4  C   UNL     1       1.368   8.688  20.645  0.00  0.00    +0.000 C 
ATOM      5  C   UNL     1       1.757   7.261  20.284  0.00  0.00    +0.000 C 
ATOM      6  N   UNL     1       2.406   7.424  19.008  0.00  0.00    +0.000 N 
ENDROOT
BRANCH   6   7
ATOM      7  C   UNL     1       3.020   6.387  18.287  0.00  0.00    +0.000 A 
ATOM      8  C   UNL     1       2.392   5.138  18.225  0.00  0.00    +0.000 A 
ATOM      9  C   UNL     1       2.969   4.085  17.511  0.00  0.00    +0.000 A 
ATOM     10  C   UNL     1       4.207   4.262  16.895  0.00  0.00    +0.000 A 
ATOM     11  C   UNL     1       4.842   5.500  16.972  0.00  0.00    +0.000 A 
ATOM     12 CL   UNL     1       6.406   5.696  16.274  0.00  0.00    +0.000 Cl
ATOM     13  C   UNL     1       4.241   6.574  17.635  0.00  0.00    +0.000 A 
ENDBRANCH   6   7
BRANCH   3  14
ATOM     14  C   UNL     1       0.492  10.552  19.120  0.00  0.00    +0.000 C 
BRANCH  14  15
ATOM     15  C   UNL     1      -1.044  10.483  18.911  0.00  0.00    +0.000 C 
ATOM     16  C   UNL     1      -1.386   9.930  17.515  0.00  0.00    +0.000 C 
ATOM     17  C   UNL     1      -2.879   9.987  17.217  0.00  0.00    +0.000 C 
ATOM     18  C   UNL     1      -3.403  11.392  17.480  0.00  0.00    +0.000 C 
ATOM     19  C   UNL     1      -3.099  11.809  18.914  0.00  0.00    +0.000 C 
ATOM     20  N   UNL     1      -1.664  11.796  19.182  0.00  0.00    +0.000 NA
ATOM     21  H   UNL     1      -1.506  12.042  20.159  0.00  0.00    +0.000 HD
ENDBRANCH  14  15
ENDBRANCH   3  14
TORSDOF 3
ENDMDL
MODEL 9
REMARK VINA RESULT:      -6.8      3.212      7.254
REMARK  Name = 
REMARK  3 active torsions:
REMARK  status: ('A' for Active; 'I' for Inactive)
REMARK    1  A    between atoms: N_3  and  C_4
REMARK    2  A    between atoms: C_4  and  C_5
REMARK    3  A    between atoms: N_13  and  C_14
REMARK                            x       y       z     vdW  Elec       q    Type
REMARK                         _______ _______ _______ _____ _____    ______ ____
ROOT
ATOM      1  O   UNL     1       5.197   7.030  17.052  0.00  0.00    +0.000 OA
ATOM      2  C   UNL     1       4.659   5.948  17.235  0.00  0.00    +0.000 C 
ATOM      3  N   UNL     1       5.178   4.705  16.858  0.00  0.00    +0.000 N 
ATOM      4  C   UNL     1       4.176   3.680  17.034  0.00  0.00    +0.000 C 
ATOM      5  C   UNL     1       3.309   4.272  18.137  0.00  0.00    +0.000 C 
ATOM      6  N   UNL     1       3.444   5.690  17.917  0.00  0.00    +0.000 N 
ENDROOT
BRANCH   6   7
ATOM      7  C   UNL     1       2.759   6.679  18.642  0.00  0.00    +0.000 A 
ATOM      8  C   UNL     1       2.323   6.390  19.940  0.00  0.00    +0.000 A 
ATOM      9  C   UNL     1       1.645   7.351  20.694  0.00  0.00    +0.000 A 
ATOM     10  C   UNL     1       1.355   8.593  20.133  0.00  0.00    +0.000 A 
ATOM     11  C   UNL     1       1.773   8.875  18.834  0.00  0.00    +0.000 A 
ATOM     12 CL   UNL     1       1.350  10.383  18.116  0.00  0.00    +0.000 Cl
ATOM     13  C   UNL     1       2.504   7.939  18.097  0.00  0.00    +0.000 A 
ENDBRANCH   6   7
BRANCH   3  14
ATOM     14  C   UNL     1       6.427   4.511  16.134  0.00  0.00    +0.000 C 
BRANCH  14  15
ATOM     15  C   UNL     1       6.379   4.772  14.606  0.00  0.00    +0.000 C 
ATOM     16  C   UNL     1       5.830   3.546  13.854  0.00  0.00    +0.000 C 
ATOM     17  C   UNL     1       5.908   3.708  12.341  0.00  0.00    +0.000 C 
ATOM     18  C   UNL     1       7.320   4.108  11.939  0.00  0.00    +0.000 C 
ATOM     19  C   UNL     1       7.735   5.382  12.663  0.00  0.00    +0.000 C 
ATOM     20  N   UNL     1       7.701   5.209  14.112  0.00  0.00    +0.000 NA
ATOM     21  H   UNL     1       7.946   6.093  14.559  0.00  0.00    +0.000 HD
ENDBRANCH  14  15
ENDBRANCH   3  14
TORSDOF 3
ENDMDL
