MODEL 1
REMARK VINA RESULT:      -8.0      0.000      0.000
REMARK  Name = 
REMARK  3 active torsions:
REMARK  status: ('A' for Active; 'I' for Inactive)
REMARK    1  A    between atoms: N_12  and  C_13
REMARK    2  A    between atoms: C_13  and  C_14
REMARK    3  A    between atoms: C_14  and  C_15
REMARK                            x       y       z     vdW  Elec       q    Type
REMARK                         _______ _______ _______ _____ _____    ______ ____
ROOT
ATOM      1  O   UNL     1       4.848   3.178  16.300  0.00  0.00    +0.000 OA
ATOM      2  C   UNL     1       5.716   4.040  16.180  0.00  0.00    +0.000 A 
ATOM      3  C   UNL     1       6.310   4.237  14.854  0.00  0.00    +0.000 A 
ATOM      4  C   UNL     1       5.937   3.467  13.751  0.00  0.00    +0.000 A 
ATOM      5  C   UNL     1       6.501   3.750  12.512  0.00  0.00    +0.000 A 
ATOM      6  C   UNL     1       7.424   4.783  12.434  0.00  0.00    +0.000 A 
ATOM      7  N   UNL     1       7.815   5.528  13.495  0.00  0.00    +0.000 NA
ATOM      8  C   UNL     1       7.242   5.237  14.683  0.00  0.00    +0.000 A 
ATOM      9  N   UNL     1       7.617   6.007  15.768  0.00  0.00    +0.000 N 
ATOM     10  C   UNL     1       7.113   5.876  17.028  0.00  0.00    +0.000 A 
ATOM     11  S   UNL     1       7.694   6.949  18.178  0.00  0.00    +0.000 S 
ATOM     12  N   UNL     1       6.159   4.871  17.222  0.00  0.00    +0.000 N 
ATOM     13  H   UNL     1       8.301   6.733  15.588  0.00  0.00    +0.000 HD
ENDROOT
BRANCH  12  14
ATOM     14  C   UNL     1       5.453   4.674  18.510  0.00  0.00    +0.000 C 
BRANCH  14  15
ATOM     15  C   UNL     1       4.140   5.472  18.624  0.00  0.00    +0.000 C 
BRANCH  15  16
ATOM     16  C   UNL     1       2.967   4.648  19.126  0.00  0.00    +0.000 C 
ATOM     17  C   UNL     1       2.306   3.801  18.313  0.00  0.00    +0.000 C 
ATOM     18  C   UNL     1       1.151   2.943  18.747  0.00  0.00    +0.000 C 
ATOM     19  C   UNL     1       0.570   3.359  20.097  0.00  0.00    +0.000 C 
ATOM     20  C   UNL     1       1.681   3.665  21.094  0.00  0.00    +0.000 C 
ATOM     21  C   UNL     1       2.599   4.783  20.585  0.00  0.00    +0.000 C 
ENDBRANCH  15  16
ENDBRANCH  14  15
ENDBRANCH  12  14
TORSDOF 3
ENDMDL
MODEL 2
REMARK VINA RESULT:      -7.9      0.802      1.280
REMARK  Name = 
REMARK  3 active torsions:
REMARK  status: ('A' for Active; 'I' for Inactive)
REMARK    1  A    between atoms: N_12  and  C_13
REMARK    2  A    between atoms: C_13  and  C_14
REMARK    3  A    between atoms: C_14  and  C_15
REMARK                            x       y       z     vdW  Elec       q    Type
REMARK                         _______ _______ _______ _____ _____    ______ ____
ROOT
ATOM      1  O   UNL     1       4.163   3.958  16.106  0.00  0.00    +0.000 OA
ATOM      2  C   UNL     1       5.228   4.566  16.022  0.00  0.00    +0.000 A 
ATOM      3  C   UNL     1       5.980   4.465  14.768  0.00  0.00    +0.000 A 
ATOM      4  C   UNL     1       5.535   3.691  13.695  0.00  0.00    +0.000 A 
ATOM      5  C   UNL     1       6.270   3.690  12.516  0.00  0.00    +0.000 A 
ATOM      6  C   UNL     1       7.428   4.454  12.465  0.00  0.00    +0.000 A 
ATOM      7  N   UNL     1       7.888   5.196  13.501  0.00  0.00    +0.000 NA
ATOM      8  C   UNL     1       7.146   5.185  14.629  0.00  0.00    +0.000 A 
ATOM      9  N   UNL     1       7.595   5.957  15.685  0.00  0.00    +0.000 N 
ATOM     10  C   UNL     1       6.953   6.093  16.880  0.00  0.00    +0.000 A 
ATOM     11  S   UNL     1       7.670   7.114  18.000  0.00  0.00    +0.000 S 
ATOM     12  N   UNL     1       5.762   5.376  17.038  0.00  0.00    +0.000 N 
ATOM     13  H   UNL     1       8.455   6.473  15.531  0.00  0.00    +0.000 HD
ENDROOT
BRANCH  12  14
ATOM     14  C   UNL     1       4.907   5.499  18.242  0.00  0.00    +0.000 C 
BRANCH  14  15
ATOM     15  C   UNL     1       4.965   4.270  19.171  0.00  0.00    +0.000 C 
BRANCH  15  16
ATOM     16  C   UNL     1       3.601   3.793  19.638  0.00  0.00    +0.000 C 
ATOM     17  C   UNL     1       2.770   4.606  20.320  0.00  0.00    +0.000 C 
ATOM     18  C   UNL     1       1.401   4.206  20.796  0.00  0.00    +0.000 C 
ATOM     19  C   UNL     1       1.164   2.698  20.739  0.00  0.00    +0.000 C 
ATOM     20  C   UNL     1       1.695   2.115  19.435  0.00  0.00    +0.000 C 
ATOM     21  C   UNL     1       3.194   2.385  19.269  0.00  0.00    +0.000 C 
ENDBRANCH  15  16
ENDBRANCH  14  15
ENDBRANCH  12  14
TORSDOF 3
ENDMDL
MODEL 3
REMARK VINA RESULT:      -7.8      0.840      1.179
REMARK  Name = 
REMARK  3 active torsions:
REMARK  status: ('A' for Active; 'I' for Inactive)
REMARK    1  A    between atoms: N_12  and  C_13
REMARK    2  A    between atoms: C_13  and  C_14
REMARK    3  A    between atoms: C_14  and  C_15
REMARK                            x       y       z     vdW  Elec       q    Type
REMARK                         _______ _______ _______ _____ _____    ______ ____
ROOT
ATOM      1  O   UNL     1       4.194   3.886  16.119  0.00  0.00    +0.000 OA
ATOM      2  C   UNL     1       5.250   4.511  16.040  0.00  0.00    +0.000 A 
ATOM      3  C   UNL     1       5.988   4.455  14.775  0.00  0.00    +0.000 A 
ATOM      4  C   UNL     1       5.540   3.704  13.686  0.00  0.00    +0.000 A 
ATOM      5  C   UNL     1       6.262   3.745  12.499  0.00  0.00    +0.000 A 
ATOM      6  C   UNL     1       7.408   4.527  12.456  0.00  0.00    +0.000 A 
ATOM      7  N   UNL     1       7.870   5.247  13.507  0.00  0.00    +0.000 NA
ATOM      8  C   UNL     1       7.142   5.195  14.643  0.00  0.00    +0.000 A 
ATOM      9  N   UNL     1       7.592   5.945  15.714  0.00  0.00    +0.000 N 
ATOM     10  C   UNL     1       6.963   6.038  16.920  0.00  0.00    +0.000 A 
ATOM     11  S   UNL     1       7.679   7.039  18.058  0.00  0.00    +0.000 S 
ATOM     12  N   UNL     1       5.784   5.300  17.072  0.00  0.00    +0.000 N 
ATOM     13  H   UNL     1       8.443   6.476  15.564  0.00  0.00    +0.000 HD
ENDROOT
BRANCH  12  14
ATOM     14  C   UNL     1       4.941   5.379  18.288  0.00  0.00    +0.000 C 
BRANCH  14  15
ATOM     15  C   UNL     1       4.932   4.080  19.119  0.00  0.00    +0.000 C 
BRANCH  15  16
ATOM     16  C   UNL     1       3.596   3.789  19.780  0.00  0.00    +0.000 C 
ATOM     17  C   UNL     1       3.470   2.823  20.712  0.00  0.00    +0.000 C 
ATOM     18  C   UNL     1       2.185   2.495  21.418  0.00  0.00    +0.000 C 
ATOM     19  C   UNL     1       0.960   3.116  20.752  0.00  0.00    +0.000 C 
ATOM     20  C   UNL     1       1.235   4.560  20.348  0.00  0.00    +0.000 C 
ATOM     21  C   UNL     1       2.423   4.655  19.385  0.00  0.00    +0.000 C 
ENDBRANCH  15  16
ENDBRANCH  14  15
ENDBRANCH  12  14
TORSDOF 3
ENDMDL
MODEL 4
REMARK VINA RESULT:      -7.2      1.721      6.656
REMARK  Name = 
REMARK  3 active torsions:
REMARK  status: ('A' for Active; 'I' for Inactive)
REMARK    1  A    between atoms: N_12  and  C_13
REMARK    2  A    between atoms: C_13  and  C_14
REMARK    3  A    between atoms: C_14  and  C_15
REMARK                            x       y       z     vdW  Elec       q    Type
REMARK                         _______ _______ _______ _____ _____    ______ ____
ROOT
ATOM      1  O   UNL     1       3.549   3.243  16.526  0.00  0.00    +0.000 OA
ATOM      2  C   UNL     1       3.897   3.868  17.526  0.00  0.00    +0.000 A 
ATOM      3  C   UNL     1       2.922   4.030  18.608  0.00  0.00    +0.000 A 
ATOM      4  C   UNL     1       1.625   3.521  18.522  0.00  0.00    +0.000 A 
ATOM      5  C   UNL     1       0.773   3.663  19.611  0.00  0.00    +0.000 A 
ATOM      6  C   UNL     1       1.253   4.319  20.737  0.00  0.00    +0.000 A 
ATOM      7  N   UNL     1       2.501   4.837  20.833  0.00  0.00    +0.000 NA
ATOM      8  C   UNL     1       3.308   4.675  19.763  0.00  0.00    +0.000 A 
ATOM      9  N   UNL     1       4.591   5.181  19.859  0.00  0.00    +0.000 N 
ATOM     10  C   UNL     1       5.546   5.073  18.892  0.00  0.00    +0.000 A 
ATOM     11  S   UNL     1       7.045   5.735  19.250  0.00  0.00    +0.000 S 
ATOM     12  N   UNL     1       5.177   4.414  17.715  0.00  0.00    +0.000 N 
ATOM     13  H   UNL     1       4.828   5.641  20.731  0.00  0.00    +0.000 HD
ENDROOT
BRANCH  12  14
ATOM     14  C   UNL     1       6.134   4.137  16.618  0.00  0.00    +0.000 C 
BRANCH  14  15
ATOM     15  C   UNL     1       6.126   5.204  15.506  0.00  0.00    +0.000 C 
BRANCH  15  16
ATOM     16  C   UNL     1       6.328   4.635  14.113  0.00  0.00    +0.000 C 
ATOM     17  C   UNL     1       5.425   3.803  13.557  0.00  0.00    +0.000 C 
ATOM     18  C   UNL     1       5.551   3.218  12.179  0.00  0.00    +0.000 C 
ATOM     19  C   UNL     1       6.951   3.373  11.589  0.00  0.00    +0.000 C 
ATOM     20  C   UNL     1       7.500   4.770  11.854  0.00  0.00    +0.000 C 
ATOM     21  C   UNL     1       7.560   5.073  13.356  0.00  0.00    +0.000 C 
ENDBRANCH  15  16
ENDBRANCH  14  15
ENDBRANCH  12  14
TORSDOF 3
ENDMDL
MODEL 5
REMARK VINA RESULT:      -7.0      1.962      6.973
REMARK  Name = 
REMARK  3 active torsions:
REMARK  status: ('A' for Active; 'I' for Inactive)
REMARK    1  A    between atoms: N_12  and  C_13
REMARK    2  A    between atoms: C_13  and  C_14
REMARK    3  A    between atoms: C_14  and  C_15
REMARK                            x       y       z     vdW  Elec       q    Type
REMARK                         _______ _______ _______ _____ _____    ______ ____
ROOT
ATOM      1  O   UNL     1       2.372   3.789  16.489  0.00  0.00    +0.000 OA
ATOM      2  C   UNL     1       2.994   4.010  17.527  0.00  0.00    +0.000 A 
ATOM      3  C   UNL     1       2.388   3.587  18.793  0.00  0.00    +0.000 A 
ATOM      4  C   UNL     1       1.137   2.971  18.849  0.00  0.00    +0.000 A 
ATOM      5  C   UNL     1       0.652   2.543  20.080  0.00  0.00    +0.000 A 
ATOM      6  C   UNL     1       1.437   2.762  21.204  0.00  0.00    +0.000 A 
ATOM      7  N   UNL     1       2.644   3.375  21.174  0.00  0.00    +0.000 NA
ATOM      8  C   UNL     1       3.092   3.770  19.963  0.00  0.00    +0.000 A 
ATOM      9  N   UNL     1       4.334   4.376  19.919  0.00  0.00    +0.000 N 
ATOM     10  C   UNL     1       4.954   4.801  18.780  0.00  0.00    +0.000 A 
ATOM     11  S   UNL     1       6.477   5.476  18.970  0.00  0.00    +0.000 S 
ATOM     12  N   UNL     1       4.259   4.616  17.580  0.00  0.00    +0.000 N 
ATOM     13  H   UNL     1       4.814   4.482  20.806  0.00  0.00    +0.000 HD
ENDROOT
BRANCH  12  14
ATOM     14  C   UNL     1       4.845   4.939  16.258  0.00  0.00    +0.000 C 
BRANCH  14  15
ATOM     15  C   UNL     1       5.554   3.745  15.588  0.00  0.00    +0.000 C 
BRANCH  15  16
ATOM     16  C   UNL     1       6.261   4.104  14.293  0.00  0.00    +0.000 C 
ATOM     17  C   UNL     1       7.319   4.938  14.279  0.00  0.00    +0.000 C 
ATOM     18  C   UNL     1       8.076   5.321  13.038  0.00  0.00    +0.000 C 
ATOM     19  C   UNL     1       7.340   4.956  11.751  0.00  0.00    +0.000 C 
ATOM     20  C   UNL     1       6.736   3.559  11.849  0.00  0.00    +0.000 C 
ATOM     21  C   UNL     1       5.758   3.453  13.025  0.00  0.00    +0.000 C 
ENDBRANCH  15  16
ENDBRANCH  14  15
ENDBRANCH  12  14
TORSDOF 3
ENDMDL
MODEL 6
REMARK VINA RESULT:      -7.0      6.390      7.740
REMARK  Name = 
REMARK  3 active torsions:
REMARK  status: ('A' for Active; 'I' for Inactive)
REMARK    1  A    between atoms: N_12  and  C_13
REMARK    2  A    between atoms: C_13  and  C_14
REMARK    3  A    between atoms: C_14  and  C_15
REMARK                            x       y       z     vdW  Elec       q    Type
REMARK                         _______ _______ _______ _____ _____    ______ ____
ROOT
ATOM      1  O   UNL     1       1.935   9.443  17.312  0.00  0.00    +0.000 OA
ATOM      2  C   UNL     1       1.836   8.846  18.383  0.00  0.00    +0.000 A 
ATOM      3  C   UNL     1       2.538   7.567  18.523  0.00  0.00    +0.000 A 
ATOM      4  C   UNL     1       3.283   7.010  17.482  0.00  0.00    +0.000 A 
ATOM      5  C   UNL     1       3.970   5.823  17.707  0.00  0.00    +0.000 A 
ATOM      6  C   UNL     1       3.871   5.237  18.961  0.00  0.00    +0.000 A 
ATOM      7  N   UNL     1       3.138   5.750  19.978  0.00  0.00    +0.000 NA
ATOM      8  C   UNL     1       2.491   6.909  19.732  0.00  0.00    +0.000 A 
ATOM      9  N   UNL     1       1.758   7.454  20.771  0.00  0.00    +0.000 N 
ATOM     10  C   UNL     1       1.076   8.633  20.710  0.00  0.00    +0.000 A 
ATOM     11  S   UNL     1       0.287   9.110  22.111  0.00  0.00    +0.000 S 
ATOM     12  N   UNL     1       1.118   9.321  19.492  0.00  0.00    +0.000 N 
ATOM     13  H   UNL     1       1.759   6.934  21.642  0.00  0.00    +0.000 HD
ENDROOT
BRANCH  12  14
ATOM     14  C   UNL     1       0.507  10.657  19.306  0.00  0.00    +0.000 C 
BRANCH  14  15
ATOM     15  C   UNL     1      -1.005  10.694  19.605  0.00  0.00    +0.000 C 
BRANCH  15  16
ATOM     16  C   UNL     1      -1.872  10.718  18.358  0.00  0.00    +0.000 C 
ATOM     17  C   UNL     1      -1.612   9.917  17.307  0.00  0.00    +0.000 C 
ATOM     18  C   UNL     1      -2.438   9.876  16.051  0.00  0.00    +0.000 C 
ATOM     19  C   UNL     1      -3.397  11.058  15.927  0.00  0.00    +0.000 C 
ATOM     20  C   UNL     1      -4.085  11.341  17.258  0.00  0.00    +0.000 C 
ATOM     21  C   UNL     1      -3.066  11.645  18.362  0.00  0.00    +0.000 C 
ENDBRANCH  15  16
ENDBRANCH  14  15
ENDBRANCH  12  14
TORSDOF 3
ENDMDL
MODEL 7
REMARK VINA RESULT:      -6.9      3.681      6.999
REMARK  Name = 
REMARK  3 active torsions:
REMARK  status: ('A' for Active; 'I' for Inactive)
REMARK    1  A    between atoms: N_12  and  C_13
REMARK    2  A    between atoms: C_13  and  C_14
REMARK    3  A    between atoms: C_14  and  C_15
REMARK                            x       y       z     vdW  Elec       q    Type
REMARK                         _______ _______ _______ _____ _____    ______ ____
ROOT
ATOM      1  O   UNL     1       3.144   6.438  17.422  0.00  0.00    +0.000 OA
ATOM      2  C   UNL     1       2.727   6.310  18.571  0.00  0.00    +0.000 A 
ATOM      3  C   UNL     1       2.097   7.472  19.206  0.00  0.00    +0.000 A 
ATOM      4  C   UNL     1       1.981   8.702  18.557  0.00  0.00    +0.000 A 
ATOM      5  C   UNL     1       1.319   9.741  19.200  0.00  0.00    +0.000 A 
ATOM      6  C   UNL     1       0.812   9.508  20.471  0.00  0.00    +0.000 A 
ATOM      7  N   UNL     1       0.931   8.329  21.126  0.00  0.00    +0.000 NA
ATOM      8  C   UNL     1       1.570   7.335  20.472  0.00  0.00    +0.000 A 
ATOM      9  N   UNL     1       1.677   6.120  21.123  0.00  0.00    +0.000 N 
ATOM     10  C   UNL     1       2.255   5.002  20.597  0.00  0.00    +0.000 A 
ATOM     11  S   UNL     1       2.235   3.631  21.562  0.00  0.00    +0.000 S 
ATOM     12  N   UNL     1       2.789   5.117  19.309  0.00  0.00    +0.000 N 
ATOM     13  H   UNL     1       1.268   6.070  22.049  0.00  0.00    +0.000 HD
ENDROOT
BRANCH  12  14
ATOM     14  C   UNL     1       3.360   3.965  18.574  0.00  0.00    +0.000 C 
BRANCH  14  15
ATOM     15  C   UNL     1       4.820   3.650  18.956  0.00  0.00    +0.000 C 
BRANCH  15  16
ATOM     16  C   UNL     1       5.827   4.627  18.376  0.00  0.00    +0.000 C 
ATOM     17  C   UNL     1       6.635   5.356  19.172  0.00  0.00    +0.000 C 
ATOM     18  C   UNL     1       7.666   6.326  18.666  0.00  0.00    +0.000 C 
ATOM     19  C   UNL     1       7.490   6.671  17.189  0.00  0.00    +0.000 C 
ATOM     20  C   UNL     1       7.188   5.419  16.372  0.00  0.00    +0.000 C 
ATOM     21  C   UNL     1       5.919   4.718  16.871  0.00  0.00    +0.000 C 
ENDBRANCH  15  16
ENDBRANCH  14  15
ENDBRANCH  12  14
TORSDOF 3
ENDMDL
MODEL 8
REMARK VINA RESULT:      -6.9      2.723      6.844
REMARK  Name = 
REMARK  3 active torsions:
REMARK  status: ('A' for Active; 'I' for Inactive)
REMARK    1  A    between atoms: N_12  and  C_13
REMARK    2  A    between atoms: C_13  and  C_14
REMARK    3  A    between atoms: C_14  and  C_15
REMARK                            x       y       z     vdW  Elec       q    Type
REMARK                         _______ _______ _______ _____ _____    ______ ____
ROOT
ATOM      1  O   UNL     1       4.834   6.967  16.272  0.00  0.00    +0.000 OA
ATOM      2  C   UNL     1       4.391   6.446  17.294  0.00  0.00    +0.000 A 
ATOM      3  C   UNL     1       3.384   7.186  18.060  0.00  0.00    +0.000 A 
ATOM      4  C   UNL     1       2.942   8.453  17.677  0.00  0.00    +0.000 A 
ATOM      5  C   UNL     1       1.942   9.069  18.420  0.00  0.00    +0.000 A 
ATOM      6  C   UNL     1       1.436   8.395  19.523  0.00  0.00    +0.000 A 
ATOM      7  N   UNL     1       1.865   7.174  19.923  0.00  0.00    +0.000 NA
ATOM      8  C   UNL     1       2.830   6.597  19.175  0.00  0.00    +0.000 A 
ATOM      9  N   UNL     1       3.259   5.341  19.562  0.00  0.00    +0.000 N 
ATOM     10  C   UNL     1       4.194   4.599  18.903  0.00  0.00    +0.000 A 
ATOM     11  S   UNL     1       4.528   3.085  19.541  0.00  0.00    +0.000 S 
ATOM     12  N   UNL     1       4.764   5.176  17.763  0.00  0.00    +0.000 N 
ATOM     13  H   UNL     1       2.815   4.949  20.386  0.00  0.00    +0.000 HD
ENDROOT
BRANCH  12  14
ATOM     14  C   UNL     1       5.719   4.453  16.892  0.00  0.00    +0.000 C 
BRANCH  14  15
ATOM     15  C   UNL     1       5.088   3.917  15.591  0.00  0.00    +0.000 C 
BRANCH  15  16
ATOM     16  C   UNL     1       5.939   4.157  14.357  0.00  0.00    +0.000 C 
ATOM     17  C   UNL     1       7.044   4.928  14.405  0.00  0.00    +0.000 C 
ATOM     18  C   UNL     1       7.940   5.192  13.228  0.00  0.00    +0.000 C 
ATOM     19  C   UNL     1       7.312   4.793  11.894  0.00  0.00    +0.000 C 
ATOM     20  C   UNL     1       6.615   3.442  12.006  0.00  0.00    +0.000 C 
ATOM     21  C   UNL     1       5.523   3.461  13.081  0.00  0.00    +0.000 C 
ENDBRANCH  15  16
ENDBRANCH  14  15
ENDBRANCH  12  14
TORSDOF 3
ENDMDL
MODEL 9
REMARK VINA RESULT:      -6.7      3.623      6.875
REMARK  Name = 
REMARK  3 active torsions:
REMARK  status: ('A' for Active; 'I' for Inactive)
REMARK    1  A    between atoms: N_12  and  C_13
REMARK    2  A    between atoms: C_13  and  C_14
REMARK    3  A    between atoms: C_14  and  C_15
REMARK                            x       y       z     vdW  Elec       q    Type
REMARK                         _______ _______ _______ _____ _____    ______ ____
ROOT
ATOM      1  O   UNL     1       2.990   6.267  17.322  0.00  0.00    +0.000 OA
ATOM      2  C   UNL     1       2.636   6.188  18.497  0.00  0.00    +0.000 A 
ATOM      3  C   UNL     1       2.085   7.390  19.131  0.00  0.00    +0.000 A 
ATOM      4  C   UNL     1       1.976   8.605  18.451  0.00  0.00    +0.000 A 
ATOM      5  C   UNL     1       1.389   9.686  19.097  0.00  0.00    +0.000 A 
ATOM      6  C   UNL     1       0.948   9.509  20.401  0.00  0.00    +0.000 A 
ATOM      7  N   UNL     1       1.063   8.345  21.085  0.00  0.00    +0.000 NA
ATOM      8  C   UNL     1       1.628   7.310  20.427  0.00  0.00    +0.000 A 
ATOM      9  N   UNL     1       1.729   6.111  21.109  0.00  0.00    +0.000 N 
ATOM     10  C   UNL     1       2.235   4.958  20.586  0.00  0.00    +0.000 A 
ATOM     11  S   UNL     1       2.223   3.617  21.593  0.00  0.00    +0.000 S 
ATOM     12  N   UNL     1       2.698   5.016  19.267  0.00  0.00    +0.000 N 
ATOM     13  H   UNL     1       1.372   6.103  22.058  0.00  0.00    +0.000 HD
ENDROOT
BRANCH  12  14
ATOM     14  C   UNL     1       3.185   3.822  18.537  0.00  0.00    +0.000 C 
BRANCH  14  15
ATOM     15  C   UNL     1       4.708   3.609  18.645  0.00  0.00    +0.000 C 
BRANCH  15  16
ATOM     16  C   UNL     1       5.481   4.114  17.440  0.00  0.00    +0.000 C 
ATOM     17  C   UNL     1       5.142   3.752  16.187  0.00  0.00    +0.000 C 
ATOM     18  C   UNL     1       5.851   4.228  14.950  0.00  0.00    +0.000 C 
ATOM     19  C   UNL     1       7.197   4.886  15.246  0.00  0.00    +0.000 C 
ATOM     20  C   UNL     1       7.091   5.821  16.445  0.00  0.00    +0.000 C 
ATOM     21  C   UNL     1       6.619   5.074  17.698  0.00  0.00    +0.000 C 
ENDBRANCH  15  16
ENDBRANCH  14  15
ENDBRANCH  12  14
TORSDOF 3
ENDMDL
