MODEL 1
REMARK VINA RESULT:      -7.8      0.000      0.000
REMARK  Name = 
REMARK  9 active torsions:
REMARK  status: ('A' for Active; 'I' for Inactive)
REMARK    1  A    between atoms: C_1  and  O_2
REMARK    2  A    between atoms: O_2  and  C_3
REMARK    3  A    between atoms: C_6  and  C_7
REMARK    4  A    between atoms: C_7  and  C_8
REMARK    5  A    between atoms: C_11  and  C_12
REMARK    6  A    between atoms: N_16  and  CA_17
REMARK    7  A    between atoms: CA_17  and  CB_18
REMARK    8  A    between atoms: CA_17  and  C_19
REMARK    9  A    between atoms: C_19  and  O_20
REMARK                            x       y       z     vdW  Elec       q    Type
REMARK                         _______ _______ _______ _____ _____    ______ ____
ROOT
ATOM      1  C   UNK A   0       7.420   6.530  17.800  0.00  0.00    +0.000 A 
ATOM      2  N   UNK A   0       6.670   7.150  16.876  0.00  0.00    +0.000 NA
ATOM      3  O   UNK A   0       7.078   8.487  16.974  0.00  0.00    +0.000 OA
ATOM      4  C   UNK A   0       8.014   8.539  17.967  0.00  0.00    +0.000 A 
ATOM      5  N   UNK A   0       8.252   7.362  18.511  0.00  0.00    +0.000 NA
ENDROOT
BRANCH   4   6
ATOM      6  C   UNK A   0       8.585   9.834  18.301  0.00  0.00    +0.000 A 
ATOM      7  C   UNK A   0       9.462   9.947  19.377  0.00  0.00    +0.000 A 
ATOM      8  C   UNK A   0      10.014  11.185  19.705  0.00  0.00    +0.000 A 
ATOM      9  C   UNK A   0       9.722  12.301  18.924  0.00  0.00    +0.000 A 
ATOM     10  N   ALA A   1      10.352  13.500  19.267  0.00  0.00    +0.000 N 
ATOM     11  N   UNK A   0       8.877  12.217  17.878  0.00  0.00    +0.000 NA
ATOM     12  C   UNK A   0       8.317  11.005  17.603  0.00  0.00    +0.000 A 
ATOM     13  H   ALA A   1      10.016  13.824  20.168  0.00  0.00    +0.000 HD
BRANCH  10  14
ATOM     14  CA  ALA A   1      10.439  14.558  18.245  0.00  0.00    +0.000 C 
ATOM     15  CB  ALA A   1      10.669  15.939  18.849  0.00  0.00    +0.000 C 
BRANCH  14  16
ATOM     16  C   ALA A   1      11.621  14.194  17.318  0.00  0.00    +0.000 C 
BRANCH  16  17
ATOM     17  O   ALA A   1      11.139  13.787  16.036  0.00  0.00    +0.000 OA
ATOM     18  H   ALA A   1      11.007  14.621  15.542  0.00  0.00    +0.000 HD
ENDBRANCH  16  17
ENDBRANCH  14  16
ENDBRANCH  10  14
ENDBRANCH   4   6
BRANCH   1  19
ATOM     19  C   UNK A   0       7.252   5.096  18.152  0.00  0.00    +0.000 C 
BRANCH  19  23
ATOM     20  C   UNK A   0       2.991   4.332  18.173  0.00  0.00    +0.000 A 
ATOM     21  C   UNK A   0       3.596   4.986  19.243  0.00  0.00    +0.000 A 
ATOM     22  C   UNK A   0       4.972   5.226  19.249  0.00  0.00    +0.000 A 
ATOM     23  C   UNK A   0       5.773   4.794  18.179  0.00  0.00    +0.000 A 
ATOM     24  C   UNK A   0       5.163   4.111  17.121  0.00  0.00    +0.000 A 
ATOM     25  C   UNK A   0       3.779   3.881  17.112  0.00  0.00    +0.000 A 
BRANCH  20  27
ATOM     26  C   UNK A   0       1.209   2.857  18.685  0.00  0.00    +0.000 C 
ATOM     27  O   UNK A   0       1.639   4.153  18.286  0.00  0.00    +0.000 OA
ENDBRANCH  20  27
ENDBRANCH  19  23
ENDBRANCH   1  19
TORSDOF 7
ENDMDL
MODEL 2
REMARK VINA RESULT:      -7.6      5.957      7.655
REMARK  Name = 
REMARK  9 active torsions:
REMARK  status: ('A' for Active; 'I' for Inactive)
REMARK    1  A    between atoms: C_1  and  O_2
REMARK    2  A    between atoms: O_2  and  C_3
REMARK    3  A    between atoms: C_6  and  C_7
REMARK    4  A    between atoms: C_7  and  C_8
REMARK    5  A    between atoms: C_11  and  C_12
REMARK    6  A    between atoms: N_16  and  CA_17
REMARK    7  A    between atoms: CA_17  and  CB_18
REMARK    8  A    between atoms: CA_17  and  C_19
REMARK    9  A    between atoms: C_19  and  O_20
REMARK                            x       y       z     vdW  Elec       q    Type
REMARK                         _______ _______ _______ _____ _____    ______ ____
ROOT
ATOM      1  C   UNK A   0       3.416   4.678  19.673  0.00  0.00    +0.000 A 
ATOM      2  N   UNK A   0       2.581   4.608  20.721  0.00  0.00    +0.000 NA
ATOM      3  O   UNK A   0       1.911   5.838  20.681  0.00  0.00    +0.000 OA
ATOM      4  C   UNK A   0       2.433   6.534  19.627  0.00  0.00    +0.000 A 
ATOM      5  N   UNK A   0       3.368   5.865  18.982  0.00  0.00    +0.000 NA
ENDROOT
BRANCH   4   6
ATOM      6  C   UNK A   0       1.930   7.875  19.378  0.00  0.00    +0.000 A 
ATOM      7  C   UNK A   0       2.144   8.475  18.139  0.00  0.00    +0.000 A 
ATOM      8  C   UNK A   0       1.666   9.763  17.892  0.00  0.00    +0.000 A 
ATOM      9  C   UNK A   0       0.933  10.428  18.871  0.00  0.00    +0.000 A 
ATOM     10  N   ALA A   1       0.430  11.690  18.543  0.00  0.00    +0.000 N 
ATOM     11  N   UNK A   0       0.713   9.869  20.077  0.00  0.00    +0.000 NA
ATOM     12  C   UNK A   0       1.227   8.628  20.311  0.00  0.00    +0.000 A 
ATOM     13  H   ALA A   1       1.195  12.347  18.419  0.00  0.00    +0.000 HD
BRANCH  10  14
ATOM     14  CA  ALA A   1      -0.691  12.221  19.337  0.00  0.00    +0.000 C 
ATOM     15  CB  ALA A   1      -0.452  13.651  19.806  0.00  0.00    +0.000 C 
BRANCH  14  16
ATOM     16  C   ALA A   1      -1.945  12.175  18.433  0.00  0.00    +0.000 C 
BRANCH  16  17
ATOM     17  O   ALA A   1      -1.569  12.254  17.057  0.00  0.00    +0.000 OA
ATOM     18  H   ALA A   1      -1.825  13.157  16.780  0.00  0.00    +0.000 HD
ENDBRANCH  16  17
ENDBRANCH  14  16
ENDBRANCH  10  14
ENDBRANCH   4   6
BRANCH   1  19
ATOM     19  C   UNK A   0       4.434   3.636  19.376  0.00  0.00    +0.000 C 
BRANCH  19  23
ATOM     20  C   UNK A   0       6.801   4.864  15.966  0.00  0.00    +0.000 A 
ATOM     21  C   UNK A   0       7.261   5.086  17.261  0.00  0.00    +0.000 A 
ATOM     22  C   UNK A   0       6.499   4.703  18.367  0.00  0.00    +0.000 A 
ATOM     23  C   UNK A   0       5.242   4.101  18.189  0.00  0.00    +0.000 A 
ATOM     24  C   UNK A   0       4.773   3.908  16.884  0.00  0.00    +0.000 A 
ATOM     25  C   UNK A   0       5.545   4.284  15.775  0.00  0.00    +0.000 A 
BRANCH  20  27
ATOM     26  C   UNK A   0       7.331   4.827  13.657  0.00  0.00    +0.000 C 
ATOM     27  O   UNK A   0       7.637   5.287  14.968  0.00  0.00    +0.000 OA
ENDBRANCH  20  27
ENDBRANCH  19  23
ENDBRANCH   1  19
TORSDOF 7
ENDMDL
MODEL 3
REMARK VINA RESULT:      -7.3      5.873      7.742
REMARK  Name = 
REMARK  9 active torsions:
REMARK  status: ('A' for Active; 'I' for Inactive)
REMARK    1  A    between atoms: C_1  and  O_2
REMARK    2  A    between atoms: O_2  and  C_3
REMARK    3  A    between atoms: C_6  and  C_7
REMARK    4  A    between atoms: C_7  and  C_8
REMARK    5  A    between atoms: C_11  and  C_12
REMARK    6  A    between atoms: N_16  and  CA_17
REMARK    7  A    between atoms: CA_17  and  CB_18
REMARK    8  A    between atoms: CA_17  and  C_19
REMARK    9  A    between atoms: C_19  and  O_20
REMARK                            x       y       z     vdW  Elec       q    Type
REMARK                         _______ _______ _______ _____ _____    ______ ____
ROOT
ATOM      1  C   UNK A   0       3.450   4.726  19.655  0.00  0.00    +0.000 A 
ATOM      2  N   UNK A   0       2.552   4.657  20.650  0.00  0.00    +0.000 NA
ATOM      3  O   UNK A   0       1.893   5.891  20.575  0.00  0.00    +0.000 OA
ATOM      4  C   UNK A   0       2.481   6.589  19.558  0.00  0.00    +0.000 A 
ATOM      5  N   UNK A   0       3.450   5.917  18.967  0.00  0.00    +0.000 NA
ENDROOT
BRANCH   4   6
ATOM      6  C   UNK A   0       2.002   7.934  19.285  0.00  0.00    +0.000 A 
ATOM      7  C   UNK A   0       2.290   8.537  18.063  0.00  0.00    +0.000 A 
ATOM      8  C   UNK A   0       1.836   9.828  17.793  0.00  0.00    +0.000 A 
ATOM      9  C   UNK A   0       1.051  10.494  18.731  0.00  0.00    +0.000 A 
ATOM     10  N   ALA A   1       0.576  11.761  18.379  0.00  0.00    +0.000 N 
ATOM     11  N   UNK A   0       0.759   9.933  19.920  0.00  0.00    +0.000 NA
ATOM     12  C   UNK A   0       1.250   8.688  20.179  0.00  0.00    +0.000 A 
ATOM     13  H   ALA A   1       1.350  12.413  18.301  0.00  0.00    +0.000 HD
BRANCH  10  14
ATOM     14  CA  ALA A   1      -0.587  12.295  19.108  0.00  0.00    +0.000 C 
ATOM     15  CB  ALA A   1      -0.531  13.810  19.270  0.00  0.00    +0.000 C 
BRANCH  14  16
ATOM     16  C   ALA A   1      -1.846  11.908  18.299  0.00  0.00    +0.000 C 
BRANCH  16  17
ATOM     17  O   ALA A   1      -3.020  12.412  18.936  0.00  0.00    +0.000 OA
ATOM     18  H   ALA A   1      -3.756  11.896  18.548  0.00  0.00    +0.000 HD
ENDBRANCH  16  17
ENDBRANCH  14  16
ENDBRANCH  10  14
ENDBRANCH   4   6
BRANCH   1  19
ATOM     19  C   UNK A   0       4.479   3.680  19.415  0.00  0.00    +0.000 C 
BRANCH  19  23
ATOM     20  C   UNK A   0       6.817   5.019  16.028  0.00  0.00    +0.000 A 
ATOM     21  C   UNK A   0       5.586   4.398  15.834  0.00  0.00    +0.000 A 
ATOM     22  C   UNK A   0       4.831   3.952  16.921  0.00  0.00    +0.000 A 
ATOM     23  C   UNK A   0       5.311   4.110  18.232  0.00  0.00    +0.000 A 
ATOM     24  C   UNK A   0       6.563   4.709  18.417  0.00  0.00    +0.000 A 
ATOM     25  C   UNK A   0       7.315   5.166  17.324  0.00  0.00    +0.000 A 
BRANCH  20  27
ATOM     26  C   UNK A   0       7.146   4.674  13.706  0.00  0.00    +0.000 C 
ATOM     27  O   UNK A   0       7.462   5.407  14.884  0.00  0.00    +0.000 OA
ENDBRANCH  20  27
ENDBRANCH  19  23
ENDBRANCH   1  19
TORSDOF 7
ENDMDL
MODEL 4
REMARK VINA RESULT:      -7.3      1.257      1.357
REMARK  Name = 
REMARK  9 active torsions:
REMARK  status: ('A' for Active; 'I' for Inactive)
REMARK    1  A    between atoms: C_1  and  O_2
REMARK    2  A    between atoms: O_2  and  C_3
REMARK    3  A    between atoms: C_6  and  C_7
REMARK    4  A    between atoms: C_7  and  C_8
REMARK    5  A    between atoms: C_11  and  C_12
REMARK    6  A    between atoms: N_16  and  CA_17
REMARK    7  A    between atoms: CA_17  and  CB_18
REMARK    8  A    between atoms: CA_17  and  C_19
REMARK    9  A    between atoms: C_19  and  O_20
REMARK                            x       y       z     vdW  Elec       q    Type
REMARK                         _______ _______ _______ _____ _____    ______ ____
ROOT
ATOM      1  C   UNK A   0       7.233   6.609  17.237  0.00  0.00    +0.000 A 
ATOM      2  N   UNK A   0       7.865   6.193  18.345  0.00  0.00    +0.000 NA
ATOM      3  O   UNK A   0       8.422   7.372  18.859  0.00  0.00    +0.000 OA
ATOM      4  C   UNK A   0       8.089   8.373  17.992  0.00  0.00    +0.000 A 
ATOM      5  N   UNK A   0       7.364   7.951  16.974  0.00  0.00    +0.000 NA
ENDROOT
BRANCH   4   6
ATOM      6  C   UNK A   0       8.575   9.714  18.276  0.00  0.00    +0.000 A 
ATOM      7  C   UNK A   0       9.444   9.923  19.344  0.00  0.00    +0.000 A 
ATOM      8  C   UNK A   0       9.915  11.206  19.625  0.00  0.00    +0.000 A 
ATOM      9  C   UNK A   0       9.550  12.270  18.804  0.00  0.00    +0.000 A 
ATOM     10  N   ALA A   1      10.102  13.520  19.100  0.00  0.00    +0.000 N 
ATOM     11  N   UNK A   0       8.711  12.094  17.765  0.00  0.00    +0.000 NA
ATOM     12  C   UNK A   0       8.230  10.839  17.536  0.00  0.00    +0.000 A 
ATOM     13  H   ALA A   1       9.746  13.855  19.991  0.00  0.00    +0.000 HD
BRANCH  10  14
ATOM     14  CA  ALA A   1      10.118  14.542  18.040  0.00  0.00    +0.000 C 
ATOM     15  CB  ALA A   1       9.210  15.726  18.353  0.00  0.00    +0.000 C 
BRANCH  14  16
ATOM     16  C   ALA A   1      11.579  15.032  17.907  0.00  0.00    +0.000 C 
BRANCH  16  17
ATOM     17  O   ALA A   1      11.630  16.459  17.952  0.00  0.00    +0.000 OA
ATOM     18  H   ALA A   1      10.858  16.719  18.493  0.00  0.00    +0.000 HD
ENDBRANCH  16  17
ENDBRANCH  14  16
ENDBRANCH  10  14
ENDBRANCH   4   6
BRANCH   1  19
ATOM     19  C   UNK A   0       6.584   5.679  16.276  0.00  0.00    +0.000 C 
BRANCH  19  23
ATOM     20  C   UNK A   0       2.674   4.599  17.787  0.00  0.00    +0.000 A 
ATOM     21  C   UNK A   0       3.147   5.901  17.920  0.00  0.00    +0.000 A 
ATOM     22  C   UNK A   0       4.412   6.255  17.446  0.00  0.00    +0.000 A 
ATOM     23  C   UNK A   0       5.237   5.294  16.839  0.00  0.00    +0.000 A 
ATOM     24  C   UNK A   0       4.767   3.979  16.735  0.00  0.00    +0.000 A 
ATOM     25  C   UNK A   0       3.492   3.629  17.203  0.00  0.00    +0.000 A 
BRANCH  20  27
ATOM     26  C   UNK A   0       1.355   3.579  19.471  0.00  0.00    +0.000 C 
ATOM     27  O   UNK A   0       1.422   4.376  18.294  0.00  0.00    +0.000 OA
ENDBRANCH  20  27
ENDBRANCH  19  23
ENDBRANCH   1  19
TORSDOF 7
ENDMDL
MODEL 5
REMARK VINA RESULT:      -7.2      6.052      7.804
REMARK  Name = 
REMARK  9 active torsions:
REMARK  status: ('A' for Active; 'I' for Inactive)
REMARK    1  A    between atoms: C_1  and  O_2
REMARK    2  A    between atoms: O_2  and  C_3
REMARK    3  A    between atoms: C_6  and  C_7
REMARK    4  A    between atoms: C_7  and  C_8
REMARK    5  A    between atoms: C_11  and  C_12
REMARK    6  A    between atoms: N_16  and  CA_17
REMARK    7  A    between atoms: CA_17  and  CB_18
REMARK    8  A    between atoms: CA_17  and  C_19
REMARK    9  A    between atoms: C_19  and  O_20
REMARK                            x       y       z     vdW  Elec       q    Type
REMARK                         _______ _______ _______ _____ _____    ______ ____
ROOT
ATOM      1  C   UNK A   0       3.612   4.414  18.245  0.00  0.00    +0.000 A 
ATOM      2  N   UNK A   0       3.932   4.463  19.547  0.00  0.00    +0.000 NA
ATOM      3  O   UNK A   0       3.400   5.690  19.963  0.00  0.00    +0.000 OA
ATOM      4  C   UNK A   0       2.836   6.267  18.860  0.00  0.00    +0.000 A 
ATOM      5  N   UNK A   0       2.949   5.523  17.777  0.00  0.00    +0.000 NA
ENDROOT
BRANCH   4   6
ATOM      6  C   UNK A   0       2.233   7.582  19.009  0.00  0.00    +0.000 A 
ATOM      7  C   UNK A   0       2.182   8.447  17.919  0.00  0.00    +0.000 A 
ATOM      8  C   UNK A   0       1.606   9.711  18.053  0.00  0.00    +0.000 A 
ATOM      9  C   UNK A   0       1.039  10.086  19.268  0.00  0.00    +0.000 A 
ATOM     10  N   ALA A   1       0.424  11.340  19.323  0.00  0.00    +0.000 N 
ATOM     11  N   UNK A   0       1.075   9.267  20.337  0.00  0.00    +0.000 NA
ATOM     12  C   UNK A   0       1.682   8.054  20.194  0.00  0.00    +0.000 A 
ATOM     13  H   ALA A   1       1.120  12.073  19.220  0.00  0.00    +0.000 HD
BRANCH  10  14
ATOM     14  CA  ALA A   1      -0.553  11.590  20.397  0.00  0.00    +0.000 C 
ATOM     15  CB  ALA A   1      -0.049  12.596  21.425  0.00  0.00    +0.000 C 
BRANCH  14  16
ATOM     16  C   ALA A   1      -1.834  12.135  19.724  0.00  0.00    +0.000 C 
BRANCH  16  17
ATOM     17  O   ALA A   1      -1.530  12.663  18.432  0.00  0.00    +0.000 OA
ATOM     18  H   ALA A   1      -1.203  13.570  18.604  0.00  0.00    +0.000 HD
ENDBRANCH  16  17
ENDBRANCH  14  16
ENDBRANCH  10  14
ENDBRANCH   4   6
BRANCH   1  19
ATOM     19  C   UNK A   0       4.077   3.334  17.335  0.00  0.00    +0.000 C 
BRANCH  19  23
ATOM     20  C   UNK A   0       7.191   5.048  14.864  0.00  0.00    +0.000 A 
ATOM     21  C   UNK A   0       6.145   4.335  14.286  0.00  0.00    +0.000 A 
ATOM     22  C   UNK A   0       5.142   3.769  15.077  0.00  0.00    +0.000 A 
ATOM     23  C   UNK A   0       5.184   3.896  16.475  0.00  0.00    +0.000 A 
ATOM     24  C   UNK A   0       6.255   4.589  17.051  0.00  0.00    +0.000 A 
ATOM     25  C   UNK A   0       7.255   5.166  16.254  0.00  0.00    +0.000 A 
BRANCH  20  27
ATOM     26  C   UNK A   0       7.839   5.343  12.604  0.00  0.00    +0.000 C 
ATOM     27  O   UNK A   0       8.112   5.550  13.985  0.00  0.00    +0.000 OA
ENDBRANCH  20  27
ENDBRANCH  19  23
ENDBRANCH   1  19
TORSDOF 7
ENDMDL
MODEL 6
REMARK VINA RESULT:      -7.1      7.783     10.781
REMARK  Name = 
REMARK  9 active torsions:
REMARK  status: ('A' for Active; 'I' for Inactive)
REMARK    1  A    between atoms: C_1  and  O_2
REMARK    2  A    between atoms: O_2  and  C_3
REMARK    3  A    between atoms: C_6  and  C_7
REMARK    4  A    between atoms: C_7  and  C_8
REMARK    5  A    between atoms: C_11  and  C_12
REMARK    6  A    between atoms: N_16  and  CA_17
REMARK    7  A    between atoms: CA_17  and  CB_18
REMARK    8  A    between atoms: CA_17  and  C_19
REMARK    9  A    between atoms: C_19  and  O_20
REMARK                            x       y       z     vdW  Elec       q    Type
REMARK                         _______ _______ _______ _____ _____    ______ ____
ROOT
ATOM      1  C   UNK A   0       1.707   9.277  18.114  0.00  0.00    +0.000 A 
ATOM      2  N   UNK A   0       1.906  10.480  18.676  0.00  0.00    +0.000 NA
ATOM      3  O   UNK A   0       0.642  11.080  18.607  0.00  0.00    +0.000 OA
ATOM      4  C   UNK A   0      -0.184  10.186  17.987  0.00  0.00    +0.000 A 
ATOM      5  N   UNK A   0       0.429   9.065  17.656  0.00  0.00    +0.000 NA
ENDROOT
BRANCH   4   6
ATOM      6  C   UNK A   0      -1.565  10.576  17.756  0.00  0.00    +0.000 A 
ATOM      7  C   UNK A   0      -2.228  10.132  16.614  0.00  0.00    +0.000 A 
ATOM      8  C   UNK A   0      -3.553  10.503  16.384  0.00  0.00    +0.000 A 
ATOM      9  C   UNK A   0      -4.227  11.280  17.324  0.00  0.00    +0.000 A 
ATOM     10  N   ALA A   1      -5.570  11.569  17.066  0.00  0.00    +0.000 N 
ATOM     11  N   UNK A   0      -3.607  11.722  18.435  0.00  0.00    +0.000 NA
ATOM     12  C   UNK A   0      -2.299  11.382  18.617  0.00  0.00    +0.000 A 
ATOM     13  H   ALA A   1      -5.646  12.172  16.252  0.00  0.00    +0.000 HD
BRANCH  10  14
ATOM     14  CA  ALA A   1      -6.423  11.977  18.195  0.00  0.00    +0.000 C 
ATOM     15  CB  ALA A   1      -7.517  12.954  17.779  0.00  0.00    +0.000 C 
BRANCH  14  16
ATOM     16  C   ALA A   1      -7.066  10.692  18.764  0.00  0.00    +0.000 C 
BRANCH  16  17
ATOM     17  O   ALA A   1      -7.748  10.977  19.986  0.00  0.00    +0.000 OA
ATOM     18  H   ALA A   1      -7.063  11.360  20.571  0.00  0.00    +0.000 HD
ENDBRANCH  16  17
ENDBRANCH  14  16
ENDBRANCH  10  14
ENDBRANCH   4   6
BRANCH   1  19
ATOM     19  C   UNK A   0       2.807   8.314  17.849  0.00  0.00    +0.000 C 
BRANCH  19  23
ATOM     20  C   UNK A   0       1.783   4.659  19.931  0.00  0.00    +0.000 A 
ATOM     21  C   UNK A   0       1.870   5.864  20.622  0.00  0.00    +0.000 A 
ATOM     22  C   UNK A   0       2.211   7.046  19.960  0.00  0.00    +0.000 A 
ATOM     23  C   UNK A   0       2.490   7.033  18.584  0.00  0.00    +0.000 A 
ATOM     24  C   UNK A   0       2.430   5.813  17.901  0.00  0.00    +0.000 A 
ATOM     25  C   UNK A   0       2.076   4.629  18.566  0.00  0.00    +0.000 A 
BRANCH  20  27
ATOM     26  C   UNK A   0       1.660   2.298  20.096  0.00  0.00    +0.000 C 
ATOM     27  O   UNK A   0       1.445   3.572  20.691  0.00  0.00    +0.000 OA
ENDBRANCH  20  27
ENDBRANCH  19  23
ENDBRANCH   1  19
TORSDOF 7
ENDMDL
MODEL 7
REMARK VINA RESULT:      -7.0      5.691      7.225
REMARK  Name = 
REMARK  9 active torsions:
REMARK  status: ('A' for Active; 'I' for Inactive)
REMARK    1  A    between atoms: C_1  and  O_2
REMARK    2  A    between atoms: O_2  and  C_3
REMARK    3  A    between atoms: C_6  and  C_7
REMARK    4  A    between atoms: C_7  and  C_8
REMARK    5  A    between atoms: C_11  and  C_12
REMARK    6  A    between atoms: N_16  and  CA_17
REMARK    7  A    between atoms: CA_17  and  CB_18
REMARK    8  A    between atoms: CA_17  and  C_19
REMARK    9  A    between atoms: C_19  and  O_20
REMARK                            x       y       z     vdW  Elec       q    Type
REMARK                         _______ _______ _______ _____ _____    ______ ____
ROOT
ATOM      1  C   UNK A   0       3.424   4.508  19.730  0.00  0.00    +0.000 A 
ATOM      2  N   UNK A   0       2.323   4.131  20.398  0.00  0.00    +0.000 NA
ATOM      3  O   UNK A   0       1.595   5.322  20.518  0.00  0.00    +0.000 OA
ATOM      4  C   UNK A   0       2.346   6.301  19.932  0.00  0.00    +0.000 A 
ATOM      5  N   UNK A   0       3.484   5.850  19.440  0.00  0.00    +0.000 NA
ENDROOT
BRANCH   4   6
ATOM      6  C   UNK A   0       1.830   7.660  19.947  0.00  0.00    +0.000 A 
ATOM      7  C   UNK A   0       1.283   8.180  21.118  0.00  0.00    +0.000 A 
ATOM      8  C   UNK A   0       0.784   9.482  21.141  0.00  0.00    +0.000 A 
ATOM      9  C   UNK A   0       0.878  10.278  20.002  0.00  0.00    +0.000 A 
ATOM     10  N   ALA A   1       0.415  11.593  20.105  0.00  0.00    +0.000 N 
ATOM     11  N   UNK A   0       1.402   9.799  18.857  0.00  0.00    +0.000 NA
ATOM     12  C   UNK A   0       1.843   8.509  18.847  0.00  0.00    +0.000 A 
ATOM     13  H   ALA A   1      -0.591  11.598  20.241  0.00  0.00    +0.000 HD
BRANCH  10  14
ATOM     14  CA  ALA A   1       0.890  12.578  19.118  0.00  0.00    +0.000 C 
ATOM     15  CB  ALA A   1      -0.252  13.286  18.399  0.00  0.00    +0.000 C 
BRANCH  14  16
ATOM     16  C   ALA A   1       1.740  13.615  19.887  0.00  0.00    +0.000 C 
BRANCH  16  17
ATOM     17  O   ALA A   1       1.983  13.167  21.221  0.00  0.00    +0.000 OA
ATOM     18  H   ALA A   1       1.151  12.729  21.493  0.00  0.00    +0.000 HD
ENDBRANCH  16  17
ENDBRANCH  14  16
ENDBRANCH  10  14
ENDBRANCH   4   6
BRANCH   1  19
ATOM     19  C   UNK A   0       4.567   3.595  19.469  0.00  0.00    +0.000 C 
BRANCH  19  23
ATOM     20  C   UNK A   0       6.680   4.914  15.929  0.00  0.00    +0.000 A 
ATOM     21  C   UNK A   0       7.202   5.163  17.195  0.00  0.00    +0.000 A 
ATOM     22  C   UNK A   0       6.521   4.751  18.343  0.00  0.00    +0.000 A 
ATOM     23  C   UNK A   0       5.285   4.091  18.237  0.00  0.00    +0.000 A 
ATOM     24  C   UNK A   0       4.753   3.871  16.961  0.00  0.00    +0.000 A 
ATOM     25  C   UNK A   0       5.444   4.276  15.809  0.00  0.00    +0.000 A 
BRANCH  20  27
ATOM     26  C   UNK A   0       7.149   4.813  13.608  0.00  0.00    +0.000 C 
ATOM     27  O   UNK A   0       7.439   5.370  14.884  0.00  0.00    +0.000 OA
ENDBRANCH  20  27
ENDBRANCH  19  23
ENDBRANCH   1  19
TORSDOF 7
ENDMDL
MODEL 8
REMARK VINA RESULT:      -7.0      1.857      2.202
REMARK  Name = 
REMARK  9 active torsions:
REMARK  status: ('A' for Active; 'I' for Inactive)
REMARK    1  A    between atoms: C_1  and  O_2
REMARK    2  A    between atoms: O_2  and  C_3
REMARK    3  A    between atoms: C_6  and  C_7
REMARK    4  A    between atoms: C_7  and  C_8
REMARK    5  A    between atoms: C_11  and  C_12
REMARK    6  A    between atoms: N_16  and  CA_17
REMARK    7  A    between atoms: CA_17  and  CB_18
REMARK    8  A    between atoms: CA_17  and  C_19
REMARK    9  A    between atoms: C_19  and  O_20
REMARK                            x       y       z     vdW  Elec       q    Type
REMARK                         _______ _______ _______ _____ _____    ______ ____
ROOT
ATOM      1  C   UNK A   0       7.206   6.707  17.274  0.00  0.00    +0.000 A 
ATOM      2  N   UNK A   0       7.867   6.261  18.353  0.00  0.00    +0.000 NA
ATOM      3  O   UNK A   0       8.441   7.424  18.883  0.00  0.00    +0.000 OA
ATOM      4  C   UNK A   0       8.088   8.449  18.051  0.00  0.00    +0.000 A 
ATOM      5  N   UNK A   0       7.335   8.056  17.042  0.00  0.00    +0.000 NA
ENDROOT
BRANCH   4   6
ATOM      6  C   UNK A   0       8.586   9.780  18.356  0.00  0.00    +0.000 A 
ATOM      7  C   UNK A   0       8.285  10.844  17.508  0.00  0.00    +0.000 A 
ATOM      8  C   UNK A   0       8.760  12.124  17.793  0.00  0.00    +0.000 A 
ATOM      9  C   UNK A   0       9.497  12.346  18.954  0.00  0.00    +0.000 A 
ATOM     10  N   ALA A   1       9.894  13.660  19.215  0.00  0.00    +0.000 N 
ATOM     11  N   UNK A   0       9.802  11.334  19.790  0.00  0.00    +0.000 NA
ATOM     12  C   UNK A   0       9.363  10.084  19.468  0.00  0.00    +0.000 A 
ATOM     13  H   ALA A   1      10.567  13.965  18.518  0.00  0.00    +0.000 HD
BRANCH  10  14
ATOM     14  CA  ALA A   1      10.260  14.015  20.596  0.00  0.00    +0.000 C 
ATOM     15  CB  ALA A   1      11.214  15.203  20.663  0.00  0.00    +0.000 C 
BRANCH  14  16
ATOM     16  C   ALA A   1       8.948  14.363  21.337  0.00  0.00    +0.000 C 
BRANCH  16  17
ATOM     17  O   ALA A   1       8.555  15.705  21.045  0.00  0.00    +0.000 OA
ATOM     18  H   ALA A   1       8.946  16.242  21.764  0.00  0.00    +0.000 HD
ENDBRANCH  16  17
ENDBRANCH  14  16
ENDBRANCH  10  14
ENDBRANCH   4   6
BRANCH   1  19
ATOM     19  C   UNK A   0       6.528   5.804  16.307  0.00  0.00    +0.000 C 
BRANCH  19  23
ATOM     20  C   UNK A   0       2.745   4.521  17.974  0.00  0.00    +0.000 A 
ATOM     21  C   UNK A   0       3.088   5.870  17.958  0.00  0.00    +0.000 A 
ATOM     22  C   UNK A   0       4.312   6.292  17.433  0.00  0.00    +0.000 A 
ATOM     23  C   UNK A   0       5.227   5.354  16.925  0.00  0.00    +0.000 A 
ATOM     24  C   UNK A   0       4.888   3.997  16.971  0.00  0.00    +0.000 A 
ATOM     25  C   UNK A   0       3.653   3.577  17.490  0.00  0.00    +0.000 A 
BRANCH  20  27
ATOM     26  C   UNK A   0       1.161   2.860  18.562  0.00  0.00    +0.000 C 
ATOM     27  O   UNK A   0       1.522   4.235  18.518  0.00  0.00    +0.000 OA
ENDBRANCH  20  27
ENDBRANCH  19  23
ENDBRANCH   1  19
TORSDOF 7
ENDMDL
MODEL 9
REMARK VINA RESULT:      -7.0      5.934      9.076
REMARK  Name = 
REMARK  9 active torsions:
REMARK  status: ('A' for Active; 'I' for Inactive)
REMARK    1  A    between atoms: C_1  and  O_2
REMARK    2  A    between atoms: O_2  and  C_3
REMARK    3  A    between atoms: C_6  and  C_7
REMARK    4  A    between atoms: C_7  and  C_8
REMARK    5  A    between atoms: C_11  and  C_12
REMARK    6  A    between atoms: N_16  and  CA_17
REMARK    7  A    between atoms: CA_17  and  CB_18
REMARK    8  A    between atoms: CA_17  and  C_19
REMARK    9  A    between atoms: C_19  and  O_20
REMARK                            x       y       z     vdW  Elec       q    Type
REMARK                         _______ _______ _______ _____ _____    ______ ____
ROOT
ATOM      1  C   UNK A   0       1.335   9.987  18.889  0.00  0.00    +0.000 A 
ATOM      2  N   UNK A   0       0.992   9.276  19.974  0.00  0.00    +0.000 NA
ATOM      3  O   UNK A   0       1.631   8.047  19.769  0.00  0.00    +0.000 OA
ATOM      4  C   UNK A   0       2.274   8.135  18.567  0.00  0.00    +0.000 A 
ATOM      5  N   UNK A   0       2.114   9.307  17.983  0.00  0.00    +0.000 NA
ENDROOT
BRANCH   4   6
ATOM      6  C   UNK A   0       2.999   6.968  18.092  0.00  0.00    +0.000 A 
ATOM      7  C   UNK A   0       2.430   5.703  18.213  0.00  0.00    +0.000 A 
ATOM      8  C   UNK A   0       3.119   4.577  17.761  0.00  0.00    +0.000 A 
ATOM      9  C   UNK A   0       4.359   4.727  17.145  0.00  0.00    +0.000 A 
ATOM     10  N   ALA A   1       4.973   3.569  16.659  0.00  0.00    +0.000 N 
ATOM     11  N   UNK A   0       4.931   5.940  17.016  0.00  0.00    +0.000 NA
ATOM     12  C   UNK A   0       4.257   7.021  17.504  0.00  0.00    +0.000 A 
ATOM     13  H   ALA A   1       5.233   2.964  17.432  0.00  0.00    +0.000 HD
BRANCH  10  14
ATOM     14  CA  ALA A   1       6.021   3.714  15.635  0.00  0.00    +0.000 C 
ATOM     15  CB  ALA A   1       5.525   4.437  14.387  0.00  0.00    +0.000 C 
BRANCH  14  16
ATOM     16  C   ALA A   1       7.173   4.521  16.277  0.00  0.00    +0.000 C 
BRANCH  16  17
ATOM     17  O   ALA A   1       7.497   5.653  15.468  0.00  0.00    +0.000 OA
ATOM     18  H   ALA A   1       7.689   5.281  14.583  0.00  0.00    +0.000 HD
ENDBRANCH  16  17
ENDBRANCH  14  16
ENDBRANCH  10  14
ENDBRANCH   4   6
BRANCH   1  19
ATOM     19  C   UNK A   0       0.787  11.338  18.597  0.00  0.00    +0.000 C 
BRANCH  19  23
ATOM     20  C   UNK A   0      -3.495  10.879  18.159  0.00  0.00    +0.000 A 
ATOM     21  C   UNK A   0      -2.621  10.059  17.450  0.00  0.00    +0.000 A 
ATOM     22  C   UNK A   0      -1.238  10.208  17.577  0.00  0.00    +0.000 A 
ATOM     23  C   UNK A   0      -0.705  11.203  18.412  0.00  0.00    +0.000 A 
ATOM     24  C   UNK A   0      -1.590  12.043  19.099  0.00  0.00    +0.000 A 
ATOM     25  C   UNK A   0      -2.979  11.884  18.979  0.00  0.00    +0.000 A 
BRANCH  20  27
ATOM     26  C   UNK A   0      -5.569  11.695  17.356  0.00  0.00    +0.000 C 
ATOM     27  O   UNK A   0      -4.825  10.637  17.947  0.00  0.00    +0.000 OA
ENDBRANCH  20  27
ENDBRANCH  19  23
ENDBRANCH   1  19
TORSDOF 7
ENDMDL
