MODEL 1
REMARK VINA RESULT:      -8.0      0.000      0.000
REMARK  Name = 
REMARK  4 active torsions:
REMARK  status: ('A' for Active; 'I' for Inactive)
REMARK    1  A    between atoms: C_1  and  C_2
REMARK    2  A    between atoms: C_5  and  C_6
REMARK    3  A    between atoms: C_7  and  N_8
REMARK    4  A    between atoms: C_9  and  C_11
REMARK                            x       y       z     vdW  Elec       q    Type
REMARK                         _______ _______ _______ _____ _____    ______ ____
ROOT
ATOM      1  N   UNL     1       5.149   3.597  18.983  0.00  0.00    +0.000 N 
ATOM      2  C   UNL     1       5.671   4.861  19.192  0.00  0.00    +0.000 C 
ATOM      3  O   UNL     1       5.056   5.784  19.725  0.00  0.00    +0.000 OA
ATOM      4  H   UNL     1       5.817   2.843  18.904  0.00  0.00    +0.000 HD
ENDROOT
BRANCH   2   5
ATOM      5  C   UNL     1       7.167   4.982  18.791  0.00  0.00    +0.000 C 
ATOM      6  C   UNL     1       7.493   6.440  18.494  0.00  0.00    +0.000 C 
ATOM      7  O   UNL     1       6.648   6.931  17.444  0.00  0.00    +0.000 OA
ATOM      8  C   UNL     1       6.441   5.984  16.468  0.00  0.00    +0.000 A 
ATOM      9  C   UNL     1       5.581   6.323  15.428  0.00  0.00    +0.000 A 
ATOM     10  C   UNL     1       5.374   5.423  14.383  0.00  0.00    +0.000 A 
ATOM     11  C   UNL     1       6.068   4.210  14.352  0.00  0.00    +0.000 A 
ATOM     12  C   UNL     1       6.883   3.842  15.423  0.00  0.00    +0.000 A 
ATOM     13  C   UNL     1       6.994   4.699  16.514  0.00  0.00    +0.000 A 
ATOM     14  O   UNL     1       7.570   4.196  17.658  0.00  0.00    +0.000 OA
ENDBRANCH   2   5
BRANCH   1  21
ATOM     15  C   UNL     1       1.437   2.426  22.072  0.00  0.00    +0.000 C 
ATOM     16  C   UNL     1       1.955   2.671  20.690  0.00  0.00    +0.000 A 
ATOM     17  C   UNL     1       1.089   2.669  19.593  0.00  0.00    +0.000 A 
ATOM     18  C   UNL     1       1.565   2.961  18.313  0.00  0.00    +0.000 A 
ATOM     19  C   UNL     1       2.913   3.283  18.104  0.00  0.00    +0.000 A 
ATOM     20  C   UNL     1       3.397   3.542  16.705  0.00  0.00    +0.000 C 
ATOM     21  C   UNL     1       3.797   3.258  19.192  0.00  0.00    +0.000 A 
ATOM     22  C   UNL     1       3.319   2.945  20.474  0.00  0.00    +0.000 A 
ENDBRANCH   1  21
TORSDOF 2
ENDMDL
MODEL 2
REMARK VINA RESULT:      -7.3      3.816      4.114
REMARK  Name = 
REMARK  4 active torsions:
REMARK  status: ('A' for Active; 'I' for Inactive)
REMARK    1  A    between atoms: C_1  and  C_2
REMARK    2  A    between atoms: C_5  and  C_6
REMARK    3  A    between atoms: C_7  and  N_8
REMARK    4  A    between atoms: C_9  and  C_11
REMARK                            x       y       z     vdW  Elec       q    Type
REMARK                         _______ _______ _______ _____ _____    ______ ____
ROOT
ATOM      1  N   UNL     1       3.053   6.284  19.777  0.00  0.00    +0.000 N 
ATOM      2  C   UNL     1       2.812   5.128  19.057  0.00  0.00    +0.000 C 
ATOM      3  O   UNL     1       1.878   4.986  18.268  0.00  0.00    +0.000 OA
ATOM      4  H   UNL     1       4.006   6.434  20.079  0.00  0.00    +0.000 HD
ENDROOT
BRANCH   2   5
ATOM      5  C   UNL     1       3.908   4.044  19.251  0.00  0.00    +0.000 C 
ATOM      6  C   UNL     1       5.186   4.703  19.755  0.00  0.00    +0.000 C 
ATOM      7  O   UNL     1       5.625   5.703  18.825  0.00  0.00    +0.000 OA
ATOM      8  C   UNL     1       5.436   5.309  17.521  0.00  0.00    +0.000 A 
ATOM      9  C   UNL     1       5.764   6.225  16.527  0.00  0.00    +0.000 A 
ATOM     10  C   UNL     1       5.643   5.861  15.186  0.00  0.00    +0.000 A 
ATOM     11  C   UNL     1       5.247   4.566  14.842  0.00  0.00    +0.000 A 
ATOM     12  C   UNL     1       4.859   3.666  15.835  0.00  0.00    +0.000 A 
ATOM     13  C   UNL     1       4.876   4.076  17.164  0.00  0.00    +0.000 A 
ATOM     14  O   UNL     1       4.234   3.276  18.082  0.00  0.00    +0.000 OA
ENDBRANCH   2   5
BRANCH   1  21
ATOM     15  C   UNL     1      -0.315   8.974  22.251  0.00  0.00    +0.000 C 
ATOM     16  C   UNL     1       0.500   8.714  21.023  0.00  0.00    +0.000 A 
ATOM     17  C   UNL     1       0.475   9.606  19.947  0.00  0.00    +0.000 A 
ATOM     18  C   UNL     1       1.285   9.394  18.831  0.00  0.00    +0.000 A 
ATOM     19  C   UNL     1       2.155   8.297  18.771  0.00  0.00    +0.000 A 
ATOM     20  C   UNL     1       2.974   8.076  17.531  0.00  0.00    +0.000 C 
ATOM     21  C   UNL     1       2.167   7.379  19.831  0.00  0.00    +0.000 A 
ATOM     22  C   UNL     1       1.336   7.585  20.944  0.00  0.00    +0.000 A 
ENDBRANCH   1  21
TORSDOF 2
ENDMDL
MODEL 3
REMARK VINA RESULT:      -7.3      2.226      3.523
REMARK  Name = 
REMARK  4 active torsions:
REMARK  status: ('A' for Active; 'I' for Inactive)
REMARK    1  A    between atoms: C_1  and  C_2
REMARK    2  A    between atoms: C_5  and  C_6
REMARK    3  A    between atoms: C_7  and  N_8
REMARK    4  A    between atoms: C_9  and  C_11
REMARK                            x       y       z     vdW  Elec       q    Type
REMARK                         _______ _______ _______ _____ _____    ______ ____
ROOT
ATOM      1  N   UNL     1       4.016   5.713  17.449  0.00  0.00    +0.000 N 
ATOM      2  C   UNL     1       4.262   4.723  16.514  0.00  0.00    +0.000 C 
ATOM      3  O   UNL     1       3.695   3.631  16.498  0.00  0.00    +0.000 OA
ATOM      4  H   UNL     1       4.226   6.660  17.166  0.00  0.00    +0.000 HD
ENDROOT
BRANCH   2   5
ATOM      5  C   UNL     1       5.253   5.162  15.401  0.00  0.00    +0.000 C 
ATOM      6  C   UNL     1       6.274   4.056  15.169  0.00  0.00    +0.000 C 
ATOM      7  O   UNL     1       6.977   3.770  16.386  0.00  0.00    +0.000 OA
ATOM      8  C   UNL     1       7.244   4.913  17.104  0.00  0.00    +0.000 A 
ATOM      9  C   UNL     1       7.866   4.756  18.338  0.00  0.00    +0.000 A 
ATOM     10  C   UNL     1       8.208   5.883  19.086  0.00  0.00    +0.000 A 
ATOM     11  C   UNL     1       7.978   7.163  18.575  0.00  0.00    +0.000 A 
ATOM     12  C   UNL     1       7.300   7.322  17.366  0.00  0.00    +0.000 A 
ATOM     13  C   UNL     1       6.862   6.193  16.682  0.00  0.00    +0.000 A 
ATOM     14  O   UNL     1       5.967   6.382  15.654  0.00  0.00    +0.000 OA
ENDBRANCH   2   5
BRANCH   1  21
ATOM     15  C   UNL     1       2.510   2.870  21.237  0.00  0.00    +0.000 C 
ATOM     16  C   UNL     1       2.453   4.150  20.464  0.00  0.00    +0.000 A 
ATOM     17  C   UNL     1       1.688   5.226  20.921  0.00  0.00    +0.000 A 
ATOM     18  C   UNL     1       1.688   6.440  20.233  0.00  0.00    +0.000 A 
ATOM     19  C   UNL     1       2.470   6.614  19.083  0.00  0.00    +0.000 A 
ATOM     20  C   UNL     1       2.405   7.920  18.341  0.00  0.00    +0.000 C 
ATOM     21  C   UNL     1       3.218   5.532  18.597  0.00  0.00    +0.000 A 
ATOM     22  C   UNL     1       3.200   4.307  19.281  0.00  0.00    +0.000 A 
ENDBRANCH   1  21
TORSDOF 2
ENDMDL
MODEL 4
REMARK VINA RESULT:      -7.2      1.807      3.221
REMARK  Name = 
REMARK  4 active torsions:
REMARK  status: ('A' for Active; 'I' for Inactive)
REMARK    1  A    between atoms: C_1  and  C_2
REMARK    2  A    between atoms: C_5  and  C_6
REMARK    3  A    between atoms: C_7  and  N_8
REMARK    4  A    between atoms: C_9  and  C_11
REMARK                            x       y       z     vdW  Elec       q    Type
REMARK                         _______ _______ _______ _____ _____    ______ ____
ROOT
ATOM      1  N   UNL     1       3.950   4.364  17.596  0.00  0.00    +0.000 N 
ATOM      2  C   UNL     1       4.280   5.538  16.941  0.00  0.00    +0.000 C 
ATOM      3  O   UNL     1       3.834   6.645  17.240  0.00  0.00    +0.000 OA
ATOM      4  H   UNL     1       4.624   3.614  17.539  0.00  0.00    +0.000 HD
ENDROOT
BRANCH   2   5
ATOM      5  C   UNL     1       5.368   5.346  15.849  0.00  0.00    +0.000 C 
ATOM      6  C   UNL     1       6.161   4.079  16.145  0.00  0.00    +0.000 C 
ATOM      7  O   UNL     1       6.761   4.164  17.445  0.00  0.00    +0.000 OA
ATOM      8  C   UNL     1       7.224   5.430  17.714  0.00  0.00    +0.000 A 
ATOM      9  C   UNL     1       7.768   5.652  18.975  0.00  0.00    +0.000 A 
ATOM     10  C   UNL     1       8.301   6.903  19.286  0.00  0.00    +0.000 A 
ATOM     11  C   UNL     1       8.339   7.911  18.319  0.00  0.00    +0.000 A 
ATOM     12  C   UNL     1       7.739   7.711  17.076  0.00  0.00    +0.000 A 
ATOM     13  C   UNL     1       7.110   6.498  16.815  0.00  0.00    +0.000 A 
ATOM     14  O   UNL     1       6.299   6.431  15.705  0.00  0.00    +0.000 OA
ENDBRANCH   2   5
BRANCH   1  21
ATOM     15  C   UNL     1       1.196   6.443  21.173  0.00  0.00    +0.000 C 
ATOM     16  C   UNL     1       1.572   5.259  20.339  0.00  0.00    +0.000 A 
ATOM     17  C   UNL     1       0.858   4.062  20.436  0.00  0.00    +0.000 A 
ATOM     18  C   UNL     1       1.171   2.981  19.611  0.00  0.00    +0.000 A 
ATOM     19  C   UNL     1       2.191   3.077  18.654  0.00  0.00    +0.000 A 
ATOM     20  C   UNL     1       2.530   1.875  17.819  0.00  0.00    +0.000 C 
ATOM     21  C   UNL     1       2.935   4.263  18.568  0.00  0.00    +0.000 A 
ATOM     22  C   UNL     1       2.630   5.342  19.413  0.00  0.00    +0.000 A 
ENDBRANCH   1  21
TORSDOF 2
ENDMDL
MODEL 5
REMARK VINA RESULT:      -6.8      1.837      3.479
REMARK  Name = 
REMARK  4 active torsions:
REMARK  status: ('A' for Active; 'I' for Inactive)
REMARK    1  A    between atoms: C_1  and  C_2
REMARK    2  A    between atoms: C_5  and  C_6
REMARK    3  A    between atoms: C_7  and  N_8
REMARK    4  A    between atoms: C_9  and  C_11
REMARK                            x       y       z     vdW  Elec       q    Type
REMARK                         _______ _______ _______ _____ _____    ______ ____
ROOT
ATOM      1  N   UNL     1       3.484   5.293  17.091  0.00  0.00    +0.000 N 
ATOM      2  C   UNL     1       4.363   4.433  16.458  0.00  0.00    +0.000 C 
ATOM      3  O   UNL     1       4.398   3.217  16.645  0.00  0.00    +0.000 OA
ATOM      4  H   UNL     1       3.278   6.158  16.611  0.00  0.00    +0.000 HD
ENDROOT
BRANCH   2   5
ATOM      5  C   UNL     1       5.242   5.134  15.385  0.00  0.00    +0.000 C 
ATOM      6  C   UNL     1       6.372   4.200  14.971  0.00  0.00    +0.000 C 
ATOM      7  O   UNL     1       7.161   3.842  16.115  0.00  0.00    +0.000 OA
ATOM      8  C   UNL     1       7.327   4.901  16.975  0.00  0.00    +0.000 A 
ATOM      9  C   UNL     1       8.021   4.657  18.156  0.00  0.00    +0.000 A 
ATOM     10  C   UNL     1       8.266   5.707  19.041  0.00  0.00    +0.000 A 
ATOM     11  C   UNL     1       7.866   7.007  18.720  0.00  0.00    +0.000 A 
ATOM     12  C   UNL     1       7.117   7.243  17.566  0.00  0.00    +0.000 A 
ATOM     13  C   UNL     1       6.781   6.171  16.746  0.00  0.00    +0.000 A 
ATOM     14  O   UNL     1       5.822   6.386  15.782  0.00  0.00    +0.000 OA
ENDBRANCH   2   5
BRANCH   1  21
ATOM     15  C   UNL     1       0.538   1.926  19.256  0.00  0.00    +0.000 C 
ATOM     16  C   UNL     1       1.178   3.279  19.236  0.00  0.00    +0.000 A 
ATOM     17  C   UNL     1       1.034   4.152  20.318  0.00  0.00    +0.000 A 
ATOM     18  C   UNL     1       1.684   5.387  20.324  0.00  0.00    +0.000 A 
ATOM     19  C   UNL     1       2.511   5.769  19.259  0.00  0.00    +0.000 A 
ATOM     20  C   UNL     1       3.154   7.127  19.279  0.00  0.00    +0.000 C 
ATOM     21  C   UNL     1       2.640   4.914  18.155  0.00  0.00    +0.000 A 
ATOM     22  C   UNL     1       1.968   3.681  18.143  0.00  0.00    +0.000 A 
ENDBRANCH   1  21
TORSDOF 2
ENDMDL
MODEL 6
REMARK VINA RESULT:      -6.7      2.142      5.976
REMARK  Name = 
REMARK  4 active torsions:
REMARK  status: ('A' for Active; 'I' for Inactive)
REMARK    1  A    between atoms: C_1  and  C_2
REMARK    2  A    between atoms: C_5  and  C_6
REMARK    3  A    between atoms: C_7  and  N_8
REMARK    4  A    between atoms: C_9  and  C_11
REMARK                            x       y       z     vdW  Elec       q    Type
REMARK                         _______ _______ _______ _____ _____    ______ ____
ROOT
ATOM      1  N   UNL     1       6.557   5.721  15.127  0.00  0.00    +0.000 N 
ATOM      2  C   UNL     1       7.094   5.259  16.315  0.00  0.00    +0.000 C 
ATOM      3  O   UNL     1       7.776   4.240  16.416  0.00  0.00    +0.000 OA
ATOM      4  H   UNL     1       6.359   6.711  15.078  0.00  0.00    +0.000 HD
ENDROOT
BRANCH   2   5
ATOM      5  C   UNL     1       6.851   6.219  17.513  0.00  0.00    +0.000 C 
ATOM      6  C   UNL     1       7.207   5.505  18.811  0.00  0.00    +0.000 C 
ATOM      7  O   UNL     1       6.420   4.314  18.951  0.00  0.00    +0.000 OA
ATOM      8  C   UNL     1       5.129   4.499  18.514  0.00  0.00    +0.000 A 
ATOM      9  C   UNL     1       4.286   3.392  18.539  0.00  0.00    +0.000 A 
ATOM     10  C   UNL     1       2.952   3.532  18.157  0.00  0.00    +0.000 A 
ATOM     11  C   UNL     1       2.450   4.788  17.804  0.00  0.00    +0.000 A 
ATOM     12  C   UNL     1       3.307   5.886  17.719  0.00  0.00    +0.000 A 
ATOM     13  C   UNL     1       4.659   5.711  17.993  0.00  0.00    +0.000 A 
ATOM     14  O   UNL     1       5.515   6.729  17.637  0.00  0.00    +0.000 OA
ENDBRANCH   2   5
BRANCH   1  21
ATOM     15  C   UNL     1       4.272   2.757  11.857  0.00  0.00    +0.000 C 
ATOM     16  C   UNL     1       5.476   3.529  12.298  0.00  0.00    +0.000 A 
ATOM     17  C   UNL     1       6.602   3.628  11.476  0.00  0.00    +0.000 A 
ATOM     18  C   UNL     1       7.697   4.401  11.863  0.00  0.00    +0.000 A 
ATOM     19  C   UNL     1       7.686   5.111  13.071  0.00  0.00    +0.000 A 
ATOM     20  C   UNL     1       8.904   5.892  13.476  0.00  0.00    +0.000 C 
ATOM     21  C   UNL     1       6.574   4.995  13.919  0.00  0.00    +0.000 A 
ATOM     22  C   UNL     1       5.482   4.201  13.535  0.00  0.00    +0.000 A 
ENDBRANCH   1  21
TORSDOF 2
ENDMDL
MODEL 7
REMARK VINA RESULT:      -6.6      1.370      3.012
REMARK  Name = 
REMARK  4 active torsions:
REMARK  status: ('A' for Active; 'I' for Inactive)
REMARK    1  A    between atoms: C_1  and  C_2
REMARK    2  A    between atoms: C_5  and  C_6
REMARK    3  A    between atoms: C_7  and  N_8
REMARK    4  A    between atoms: C_9  and  C_11
REMARK                            x       y       z     vdW  Elec       q    Type
REMARK                         _______ _______ _______ _____ _____    ______ ____
ROOT
ATOM      1  N   UNL     1       3.798   4.033  17.366  0.00  0.00    +0.000 N 
ATOM      2  C   UNL     1       4.131   5.354  17.120  0.00  0.00    +0.000 C 
ATOM      3  O   UNL     1       3.807   6.295  17.844  0.00  0.00    +0.000 OA
ATOM      4  H   UNL     1       4.403   3.334  16.958  0.00  0.00    +0.000 HD
ENDROOT
BRANCH   2   5
ATOM      5  C   UNL     1       5.062   5.533  15.889  0.00  0.00    +0.000 C 
ATOM      6  C   UNL     1       5.952   4.306  15.747  0.00  0.00    +0.000 C 
ATOM      7  O   UNL     1       6.726   4.116  16.940  0.00  0.00    +0.000 OA
ATOM      8  C   UNL     1       7.157   5.311  17.466  0.00  0.00    +0.000 A 
ATOM      9  C   UNL     1       7.863   5.259  18.664  0.00  0.00    +0.000 A 
ATOM     10  C   UNL     1       8.370   6.435  19.218  0.00  0.00    +0.000 A 
ATOM     11  C   UNL     1       8.218   7.651  18.546  0.00  0.00    +0.000 A 
ATOM     12  C   UNL     1       7.458   7.715  17.377  0.00  0.00    +0.000 A 
ATOM     13  C   UNL     1       6.862   6.555  16.894  0.00  0.00    +0.000 A 
ATOM     14  O   UNL     1       5.905   6.695  15.914  0.00  0.00    +0.000 OA
ENDBRANCH   2   5
BRANCH   1  21
ATOM     15  C   UNL     1       2.993   2.129  21.885  0.00  0.00    +0.000 C 
ATOM     16  C   UNL     1       2.480   2.677  20.590  0.00  0.00    +0.000 A 
ATOM     17  C   UNL     1       1.112   2.885  20.396  0.00  0.00    +0.000 A 
ATOM     18  C   UNL     1       0.643   3.456  19.212  0.00  0.00    +0.000 A 
ATOM     19  C   UNL     1       1.531   3.852  18.203  0.00  0.00    +0.000 A 
ATOM     20  C   UNL     1       0.984   4.417  16.923  0.00  0.00    +0.000 C 
ATOM     21  C   UNL     1       2.904   3.621  18.374  0.00  0.00    +0.000 A 
ATOM     22  C   UNL     1       3.370   3.028  19.558  0.00  0.00    +0.000 A 
ENDBRANCH   1  21
TORSDOF 2
ENDMDL
MODEL 8
REMARK VINA RESULT:      -6.6      2.094      6.018
REMARK  Name = 
REMARK  4 active torsions:
REMARK  status: ('A' for Active; 'I' for Inactive)
REMARK    1  A    between atoms: C_1  and  C_2
REMARK    2  A    between atoms: C_5  and  C_6
REMARK    3  A    between atoms: C_7  and  N_8
REMARK    4  A    between atoms: C_9  and  C_11
REMARK                            x       y       z     vdW  Elec       q    Type
REMARK                         _______ _______ _______ _____ _____    ______ ____
ROOT
ATOM      1  N   UNL     1       4.031   5.158  17.684  0.00  0.00    +0.000 N 
ATOM      2  C   UNL     1       3.763   3.837  17.373  0.00  0.00    +0.000 C 
ATOM      3  O   UNL     1       4.612   2.946  17.351  0.00  0.00    +0.000 OA
ATOM      4  H   UNL     1       3.257   5.701  18.040  0.00  0.00    +0.000 HD
ENDROOT
BRANCH   2   5
ATOM      5  C   UNL     1       2.251   3.550  17.162  0.00  0.00    +0.000 C 
ATOM      6  C   UNL     1       1.456   4.824  17.417  0.00  0.00    +0.000 C 
ATOM      7  O   UNL     1       1.697   5.299  18.749  0.00  0.00    +0.000 OA
ATOM      8  C   UNL     1       1.788   4.265  19.652  0.00  0.00    +0.000 A 
ATOM      9  C   UNL     1       2.087   4.598  20.969  0.00  0.00    +0.000 A 
ATOM     10  C   UNL     1       2.140   3.597  21.939  0.00  0.00    +0.000 A 
ATOM     11  C   UNL     1       1.840   2.275  21.601  0.00  0.00    +0.000 A 
ATOM     12  C   UNL     1       1.600   1.929  20.271  0.00  0.00    +0.000 A 
ATOM     13  C   UNL     1       1.661   2.917  19.294  0.00  0.00    +0.000 A 
ATOM     14  O   UNL     1       1.697   2.508  17.980  0.00  0.00    +0.000 OA
ENDBRANCH   2   5
BRANCH   1  21
ATOM     15  C   UNL     1       8.269   5.446  20.263  0.00  0.00    +0.000 C 
ATOM     16  C   UNL     1       7.422   5.850  19.098  0.00  0.00    +0.000 A 
ATOM     17  C   UNL     1       7.936   6.673  18.093  0.00  0.00    +0.000 A 
ATOM     18  C   UNL     1       7.164   6.995  16.976  0.00  0.00    +0.000 A 
ATOM     19  C   UNL     1       5.868   6.485  16.826  0.00  0.00    +0.000 A 
ATOM     20  C   UNL     1       5.050   6.896  15.634  0.00  0.00    +0.000 C 
ATOM     21  C   UNL     1       5.329   5.683  17.843  0.00  0.00    +0.000 A 
ATOM     22  C   UNL     1       6.102   5.377  18.974  0.00  0.00    +0.000 A 
ENDBRANCH   1  21
TORSDOF 2
ENDMDL
MODEL 9
REMARK VINA RESULT:      -6.6      1.669      1.756
REMARK  Name = 
REMARK  4 active torsions:
REMARK  status: ('A' for Active; 'I' for Inactive)
REMARK    1  A    between atoms: C_1  and  C_2
REMARK    2  A    between atoms: C_5  and  C_6
REMARK    3  A    between atoms: C_7  and  N_8
REMARK    4  A    between atoms: C_9  and  C_11
REMARK                            x       y       z     vdW  Elec       q    Type
REMARK                         _______ _______ _______ _____ _____    ______ ____
ROOT
ATOM      1  N   UNL     1       4.883   5.475  19.235  0.00  0.00    +0.000 N 
ATOM      2  C   UNL     1       5.826   4.512  18.923  0.00  0.00    +0.000 C 
ATOM      3  O   UNL     1       5.592   3.305  18.879  0.00  0.00    +0.000 OA
ATOM      4  H   UNL     1       5.059   6.406  18.883  0.00  0.00    +0.000 HD
ENDROOT
BRANCH   2   5
ATOM      5  C   UNL     1       7.202   5.108  18.517  0.00  0.00    +0.000 C 
ATOM      6  C   UNL     1       7.050   6.603  18.269  0.00  0.00    +0.000 C 
ATOM      7  O   UNL     1       6.077   6.838  17.242  0.00  0.00    +0.000 OA
ATOM      8  C   UNL     1       6.160   5.905  16.236  0.00  0.00    +0.000 A 
ATOM      9  C   UNL     1       5.220   5.990  15.213  0.00  0.00    +0.000 A 
ATOM     10  C   UNL     1       5.288   5.103  14.138  0.00  0.00    +0.000 A 
ATOM     11  C   UNL     1       6.326   4.170  14.061  0.00  0.00    +0.000 A 
ATOM     12  C   UNL     1       7.233   4.043  15.114  0.00  0.00    +0.000 A 
ATOM     13  C   UNL     1       7.088   4.856  16.233  0.00  0.00    +0.000 A 
ATOM     14  O   UNL     1       7.812   4.524  17.356  0.00  0.00    +0.000 OA
ENDBRANCH   2   5
BRANCH   1  21
ATOM     15  C   UNL     1       1.800   2.559  21.821  0.00  0.00    +0.000 C 
ATOM     16  C   UNL     1       2.047   3.763  20.968  0.00  0.00    +0.000 A 
ATOM     17  C   UNL     1       1.022   4.677  20.709  0.00  0.00    +0.000 A 
ATOM     18  C   UNL     1       1.273   5.832  19.967  0.00  0.00    +0.000 A 
ATOM     19  C   UNL     1       2.558   6.111  19.483  0.00  0.00    +0.000 A 
ATOM     20  C   UNL     1       2.776   7.340  18.645  0.00  0.00    +0.000 C 
ATOM     21  C   UNL     1       3.588   5.186  19.709  0.00  0.00    +0.000 A 
ATOM     22  C   UNL     1       3.328   4.016  20.440  0.00  0.00    +0.000 A 
ENDBRANCH   1  21
TORSDOF 2
ENDMDL
