MODEL 1
REMARK VINA RESULT:      -9.2      0.000      0.000
REMARK  Name = 
REMARK  2 active torsions:
REMARK  status: ('A' for Active; 'I' for Inactive)
REMARK    1  A    between atoms: C_11  and  C_12
REMARK    2  A    between atoms: C_14  and  C_15
REMARK                            x       y       z     vdW  Elec       q    Type
REMARK                         _______ _______ _______ _____ _____    ______ ____
ROOT
ATOM      1  C   UNL     1       4.667   3.777  17.633  0.00  0.00    +0.000 A 
ATOM      2  N   UNL     1       4.703   3.613  16.281  0.00  0.00    +0.000 NA
ATOM      3  C   UNL     1       5.772   4.277  15.856  0.00  0.00    +0.000 A 
ATOM      4  N   UNL     1       6.375   4.955  16.920  0.00  0.00    +0.000 N 
ATOM      5  C   UNL     1       7.425   5.880  16.958  0.00  0.00    +0.000 A 
ATOM      6  C   UNL     1       7.847   6.366  18.139  0.00  0.00    +0.000 A 
ATOM      7  C   UNL     1       7.188   5.927  19.357  0.00  0.00    +0.000 A 
ATOM      8  C   UNL     1       6.149   5.071  19.326  0.00  0.00    +0.000 A 
ATOM      9  C   UNL     1       5.697   4.569  18.074  0.00  0.00    +0.000 A 
ENDROOT
BRANCH   1  20
ATOM     10  O   UNL     1       1.688   1.979  20.244  0.00  0.00    +0.000 OA
ATOM     11  C   UNL     1       1.817   3.178  20.095  0.00  0.00    +0.000 C 
ATOM     12  N   UNL     1       1.160   4.187  20.782  0.00  0.00    +0.000 N 
ATOM     13  C   UNL     1       1.570   5.445  20.346  0.00  0.00    +0.000 A 
ATOM     14  C   UNL     1       1.114   6.668  20.801  0.00  0.00    +0.000 A 
ATOM     15  C   UNL     1       1.639   7.812  20.198  0.00  0.00    +0.000 A 
ATOM     16  C   UNL     1       2.584   7.710  19.162  0.00  0.00    +0.000 A 
ATOM     17  C   UNL     1       3.036   6.461  18.722  0.00  0.00    +0.000 A 
ATOM     18  C   UNL     1       2.530   5.329  19.336  0.00  0.00    +0.000 A 
ATOM     19  C   UNL     1       2.753   3.892  19.161  0.00  0.00    +0.000 C 
ATOM     20  C   UNL     1       3.639   3.208  18.424  0.00  0.00    +0.000 C 
ATOM     21  H   UNL     1       0.470   4.005  21.493  0.00  0.00    +0.000 HD
ENDBRANCH   1  20
BRANCH   3  22
ATOM     22  C   UNL     1       6.213   4.301  14.452  0.00  0.00    +0.000 A 
ATOM     23  C   UNL     1       5.549   3.500  13.511  0.00  0.00    +0.000 A 
ATOM     24  C   UNL     1       5.946   3.484  12.171  0.00  0.00    +0.000 A 
ATOM     25  C   UNL     1       7.014   4.275  11.751  0.00  0.00    +0.000 A 
ATOM     26  C   UNL     1       7.698   5.059  12.675  0.00  0.00    +0.000 A 
ATOM     27  C   UNL     1       7.314   5.055  14.019  0.00  0.00    +0.000 A 
ENDBRANCH   3  22
TORSDOF 2
ENDMDL
MODEL 2
REMARK VINA RESULT:      -8.6      2.757      5.132
REMARK  Name = 
REMARK  2 active torsions:
REMARK  status: ('A' for Active; 'I' for Inactive)
REMARK    1  A    between atoms: C_11  and  C_12
REMARK    2  A    between atoms: C_14  and  C_15
REMARK                            x       y       z     vdW  Elec       q    Type
REMARK                         _______ _______ _______ _____ _____    ______ ____
ROOT
ATOM      1  C   UNL     1       2.018   6.128  20.330  0.00  0.00    +0.000 A 
ATOM      2  N   UNL     1       3.175   6.567  19.758  0.00  0.00    +0.000 NA
ATOM      3  C   UNL     1       3.649   5.544  19.055  0.00  0.00    +0.000 A 
ATOM      4  N   UNL     1       2.853   4.412  19.251  0.00  0.00    +0.000 N 
ATOM      5  C   UNL     1       3.012   3.081  18.845  0.00  0.00    +0.000 A 
ATOM      6  C   UNL     1       2.065   2.174  19.138  0.00  0.00    +0.000 A 
ATOM      7  C   UNL     1       0.893   2.595  19.886  0.00  0.00    +0.000 A 
ATOM      8  C   UNL     1       0.752   3.862  20.317  0.00  0.00    +0.000 A 
ATOM      9  C   UNL     1       1.764   4.818  20.018  0.00  0.00    +0.000 A 
ENDROOT
BRANCH   1  20
ATOM     10  O   UNL     1      -0.156   8.725  23.063  0.00  0.00    +0.000 OA
ATOM     11  C   UNL     1       0.273   9.088  21.986  0.00  0.00    +0.000 C 
ATOM     12  N   UNL     1       0.273  10.375  21.471  0.00  0.00    +0.000 N 
ATOM     13  C   UNL     1       0.857  10.414  20.207  0.00  0.00    +0.000 A 
ATOM     14  C   UNL     1       1.011  11.526  19.400  0.00  0.00    +0.000 A 
ATOM     15  C   UNL     1       1.596  11.333  18.148  0.00  0.00    +0.000 A 
ATOM     16  C   UNL     1       1.999  10.052  17.732  0.00  0.00    +0.000 A 
ATOM     17  C   UNL     1       1.839   8.942  18.569  0.00  0.00    +0.000 A 
ATOM     18  C   UNL     1       1.278   9.139  19.818  0.00  0.00    +0.000 A 
ATOM     19  C   UNL     1       0.959   8.254  20.941  0.00  0.00    +0.000 C 
ATOM     20  C   UNL     1       1.242   6.964  21.171  0.00  0.00    +0.000 C 
ATOM     21  H   UNL     1      -0.118  11.162  21.965  0.00  0.00    +0.000 HD
ENDBRANCH   1  20
BRANCH   3  22
ATOM     22  C   UNL     1       4.862   5.618  18.224  0.00  0.00    +0.000 A 
ATOM     23  C   UNL     1       4.737   5.879  16.851  0.00  0.00    +0.000 A 
ATOM     24  C   UNL     1       5.864   5.944  16.026  0.00  0.00    +0.000 A 
ATOM     25  C   UNL     1       7.135   5.751  16.565  0.00  0.00    +0.000 A 
ATOM     26  C   UNL     1       7.275   5.470  17.920  0.00  0.00    +0.000 A 
ATOM     27  C   UNL     1       6.146   5.384  18.739  0.00  0.00    +0.000 A 
ENDBRANCH   3  22
TORSDOF 2
ENDMDL
MODEL 3
REMARK VINA RESULT:      -8.3      2.221      7.052
REMARK  Name = 
REMARK  2 active torsions:
REMARK  status: ('A' for Active; 'I' for Inactive)
REMARK    1  A    between atoms: C_11  and  C_12
REMARK    2  A    between atoms: C_14  and  C_15
REMARK                            x       y       z     vdW  Elec       q    Type
REMARK                         _______ _______ _______ _____ _____    ______ ____
ROOT
ATOM      1  C   UNL     1       4.448   5.635  19.493  0.00  0.00    +0.000 A 
ATOM      2  N   UNL     1       3.920   6.881  19.333  0.00  0.00    +0.000 NA
ATOM      3  C   UNL     1       2.614   6.759  19.543  0.00  0.00    +0.000 A 
ATOM      4  N   UNL     1       2.279   5.416  19.741  0.00  0.00    +0.000 N 
ATOM      5  C   UNL     1       1.041   4.774  19.862  0.00  0.00    +0.000 A 
ATOM      6  C   UNL     1       0.993   3.450  20.088  0.00  0.00    +0.000 A 
ATOM      7  C   UNL     1       2.237   2.706  20.189  0.00  0.00    +0.000 A 
ATOM      8  C   UNL     1       3.430   3.308  20.031  0.00  0.00    +0.000 A 
ATOM      9  C   UNL     1       3.478   4.708  19.778  0.00  0.00    +0.000 A 
ENDROOT
BRANCH   1  20
ATOM     10  O   UNL     1       8.664   4.638  19.088  0.00  0.00    +0.000 OA
ATOM     11  C   UNL     1       7.880   4.644  18.159  0.00  0.00    +0.000 C 
ATOM     12  N   UNL     1       8.117   4.236  16.856  0.00  0.00    +0.000 N 
ATOM     13  C   UNL     1       6.979   4.379  16.065  0.00  0.00    +0.000 A 
ATOM     14  C   UNL     1       6.862   4.083  14.721  0.00  0.00    +0.000 A 
ATOM     15  C   UNL     1       5.631   4.337  14.113  0.00  0.00    +0.000 A 
ATOM     16  C   UNL     1       4.565   4.882  14.849  0.00  0.00    +0.000 A 
ATOM     17  C   UNL     1       4.704   5.168  16.212  0.00  0.00    +0.000 A 
ATOM     18  C   UNL     1       5.919   4.896  16.817  0.00  0.00    +0.000 A 
ATOM     19  C   UNL     1       6.434   5.051  18.179  0.00  0.00    +0.000 C 
ATOM     20  C   UNL     1       5.833   5.388  19.329  0.00  0.00    +0.000 C 
ATOM     21  H   UNL     1       9.013   3.894  16.544  0.00  0.00    +0.000 HD
ENDBRANCH   1  20
BRANCH   3  22
ATOM     22  C   UNL     1       1.676   7.893  19.529  0.00  0.00    +0.000 A 
ATOM     23  C   UNL     1       1.470   8.598  18.333  0.00  0.00    +0.000 A 
ATOM     24  C   UNL     1       0.597   9.689  18.281  0.00  0.00    +0.000 A 
ATOM     25  C   UNL     1      -0.085  10.090  19.428  0.00  0.00    +0.000 A 
ATOM     26  C   UNL     1       0.123   9.416  20.628  0.00  0.00    +0.000 A 
ATOM     27  C   UNL     1       1.013   8.340  20.682  0.00  0.00    +0.000 A 
ENDBRANCH   3  22
TORSDOF 2
ENDMDL
MODEL 4
REMARK VINA RESULT:      -8.0      3.926      7.997
REMARK  Name = 
REMARK  2 active torsions:
REMARK  status: ('A' for Active; 'I' for Inactive)
REMARK    1  A    between atoms: C_11  and  C_12
REMARK    2  A    between atoms: C_14  and  C_15
REMARK                            x       y       z     vdW  Elec       q    Type
REMARK                         _______ _______ _______ _____ _____    ______ ____
ROOT
ATOM      1  C   UNL     1       1.587   8.795  18.558  0.00  0.00    +0.000 A 
ATOM      2  N   UNL     1       0.565   9.186  17.744  0.00  0.00    +0.000 NA
ATOM      3  C   UNL     1      -0.366   9.699  18.542  0.00  0.00    +0.000 A 
ATOM      4  N   UNL     1       0.009   9.551  19.880  0.00  0.00    +0.000 N 
ATOM      5  C   UNL     1      -0.681   9.803  21.073  0.00  0.00    +0.000 A 
ATOM      6  C   UNL     1      -0.070   9.607  22.254  0.00  0.00    +0.000 A 
ATOM      7  C   UNL     1       1.300   9.122  22.267  0.00  0.00    +0.000 A 
ATOM      8  C   UNL     1       1.955   8.837  21.126  0.00  0.00    +0.000 A 
ATOM      9  C   UNL     1       1.301   9.032  19.878  0.00  0.00    +0.000 A 
ENDROOT
BRANCH   1  20
ATOM     10  O   UNL     1       5.316   7.054  17.146  0.00  0.00    +0.000 OA
ATOM     11  C   UNL     1       4.518   6.462  17.847  0.00  0.00    +0.000 C 
ATOM     12  N   UNL     1       4.671   5.211  18.423  0.00  0.00    +0.000 N 
ATOM     13  C   UNL     1       3.549   4.857  19.170  0.00  0.00    +0.000 A 
ATOM     14  C   UNL     1       3.355   3.679  19.865  0.00  0.00    +0.000 A 
ATOM     15  C   UNL     1       2.134   3.516  20.522  0.00  0.00    +0.000 A 
ATOM     16  C   UNL     1       1.146   4.514  20.462  0.00  0.00    +0.000 A 
ATOM     17  C   UNL     1       1.367   5.703  19.757  0.00  0.00    +0.000 A 
ATOM     18  C   UNL     1       2.587   5.871  19.124  0.00  0.00    +0.000 A 
ATOM     19  C   UNL     1       3.174   6.942  18.316  0.00  0.00    +0.000 C 
ATOM     20  C   UNL     1       2.756   8.185  18.040  0.00  0.00    +0.000 C 
ATOM     21  H   UNL     1       5.495   4.645  18.293  0.00  0.00    +0.000 HD
ENDBRANCH   1  20
BRANCH   3  22
ATOM     22  C   UNL     1      -1.617  10.301  18.053  0.00  0.00    +0.000 A 
ATOM     23  C   UNL     1      -2.153   9.870  16.830  0.00  0.00    +0.000 A 
ATOM     24  C   UNL     1      -3.332  10.427  16.325  0.00  0.00    +0.000 A 
ATOM     25  C   UNL     1      -3.995  11.422  17.040  0.00  0.00    +0.000 A 
ATOM     26  C   UNL     1      -3.466  11.877  18.244  0.00  0.00    +0.000 A 
ATOM     27  C   UNL     1      -2.275  11.335  18.736  0.00  0.00    +0.000 A 
ENDBRANCH   3  22
TORSDOF 2
ENDMDL
MODEL 5
REMARK VINA RESULT:      -8.0      6.673      9.779
REMARK  Name = 
REMARK  2 active torsions:
REMARK  status: ('A' for Active; 'I' for Inactive)
REMARK    1  A    between atoms: C_11  and  C_12
REMARK    2  A    between atoms: C_14  and  C_15
REMARK                            x       y       z     vdW  Elec       q    Type
REMARK                         _______ _______ _______ _____ _____    ______ ____
ROOT
ATOM      1  C   UNL     1      -1.573  11.819  18.845  0.00  0.00    +0.000 A 
ATOM      2  N   UNL     1      -1.159  10.520  18.838  0.00  0.00    +0.000 NA
ATOM      3  C   UNL     1       0.168  10.556  18.889  0.00  0.00    +0.000 A 
ATOM      4  N   UNL     1       0.619  11.877  18.829  0.00  0.00    +0.000 N 
ATOM      5  C   UNL     1       1.906  12.417  18.715  0.00  0.00    +0.000 A 
ATOM      6  C   UNL     1       2.076  13.751  18.715  0.00  0.00    +0.000 A 
ATOM      7  C   UNL     1       0.909  14.609  18.820  0.00  0.00    +0.000 A 
ATOM      8  C   UNL     1      -0.335  14.100  18.887  0.00  0.00    +0.000 A 
ATOM      9  C   UNL     1      -0.513  12.688  18.873  0.00  0.00    +0.000 A 
ENDROOT
BRANCH   1  20
ATOM     10  O   UNL     1      -5.846  12.614  18.644  0.00  0.00    +0.000 OA
ATOM     11  C   UNL     1      -5.202  12.649  19.674  0.00  0.00    +0.000 C 
ATOM     12  N   UNL     1      -5.684  12.820  20.962  0.00  0.00    +0.000 N 
ATOM     13  C   UNL     1      -4.650  12.799  21.896  0.00  0.00    +0.000 A 
ATOM     14  C   UNL     1      -4.767  12.952  23.265  0.00  0.00    +0.000 A 
ATOM     15  C   UNL     1      -3.590  12.932  24.015  0.00  0.00    +0.000 A 
ATOM     16  C   UNL     1      -2.341  12.773  23.389  0.00  0.00    +0.000 A 
ATOM     17  C   UNL     1      -2.247  12.612  22.002  0.00  0.00    +0.000 A 
ATOM     18  C   UNL     1      -3.417  12.611  21.263  0.00  0.00    +0.000 A 
ATOM     19  C   UNL     1      -3.719  12.472  19.836  0.00  0.00    +0.000 C 
ATOM     20  C   UNL     1      -2.947  12.160  18.786  0.00  0.00    +0.000 C 
ATOM     21  H   UNL     1      -6.662  12.951  21.168  0.00  0.00    +0.000 HD
ENDBRANCH   1  20
BRANCH   3  22
ATOM     22  C   UNL     1       1.014   9.353  18.965  0.00  0.00    +0.000 A 
ATOM     23  C   UNL     1       1.154   8.690  20.193  0.00  0.00    +0.000 A 
ATOM     24  C   UNL     1       1.959   7.553  20.310  0.00  0.00    +0.000 A 
ATOM     25  C   UNL     1       2.634   7.061  19.195  0.00  0.00    +0.000 A 
ATOM     26  C   UNL     1       2.524   7.718  17.974  0.00  0.00    +0.000 A 
ATOM     27  C   UNL     1       1.737   8.868  17.865  0.00  0.00    +0.000 A 
ENDBRANCH   3  22
TORSDOF 2
ENDMDL
MODEL 6
REMARK VINA RESULT:      -7.9      8.596     12.285
REMARK  Name = 
REMARK  2 active torsions:
REMARK  status: ('A' for Active; 'I' for Inactive)
REMARK    1  A    between atoms: C_11  and  C_12
REMARK    2  A    between atoms: C_14  and  C_15
REMARK                            x       y       z     vdW  Elec       q    Type
REMARK                         _______ _______ _______ _____ _____    ______ ____
ROOT
ATOM      1  C   UNL     1      -1.732  11.686  19.981  0.00  0.00    +0.000 A 
ATOM      2  N   UNL     1      -2.180  12.727  20.739  0.00  0.00    +0.000 NA
ATOM      3  C   UNL     1      -1.733  12.506  21.971  0.00  0.00    +0.000 A 
ATOM      4  N   UNL     1      -1.079  11.272  22.034  0.00  0.00    +0.000 N 
ATOM      5  C   UNL     1      -0.565  10.545  23.115  0.00  0.00    +0.000 A 
ATOM      6  C   UNL     1       0.062   9.376  22.899  0.00  0.00    +0.000 A 
ATOM      7  C   UNL     1       0.183   8.883  21.538  0.00  0.00    +0.000 A 
ATOM      8  C   UNL     1      -0.345   9.553  20.498  0.00  0.00    +0.000 A 
ATOM      9  C   UNL     1      -1.021  10.784  20.731  0.00  0.00    +0.000 A 
ENDROOT
BRANCH   1  20
ATOM     10  O   UNL     1      -2.633  11.124  15.762  0.00  0.00    +0.000 OA
ATOM     11  C   UNL     1      -3.479  11.329  16.610  0.00  0.00    +0.000 C 
ATOM     12  N   UNL     1      -4.855  11.306  16.449  0.00  0.00    +0.000 N 
ATOM     13  C   UNL     1      -5.510  11.581  17.648  0.00  0.00    +0.000 A 
ATOM     14  C   UNL     1      -6.876  11.653  17.847  0.00  0.00    +0.000 A 
ATOM     15  C   UNL     1      -7.319  11.978  19.130  0.00  0.00    +0.000 A 
ATOM     16  C   UNL     1      -6.402  12.230  20.166  0.00  0.00    +0.000 A 
ATOM     17  C   UNL     1      -5.024  12.144  19.942  0.00  0.00    +0.000 A 
ATOM     18  C   UNL     1      -4.587  11.802  18.674  0.00  0.00    +0.000 A 
ATOM     19  C   UNL     1      -3.266  11.616  18.070  0.00  0.00    +0.000 C 
ATOM     20  C   UNL     1      -2.035  11.587  18.602  0.00  0.00    +0.000 C 
ATOM     21  H   UNL     1      -5.299  11.123  15.563  0.00  0.00    +0.000 HD
ENDBRANCH   1  20
BRANCH   3  22
ATOM     22  C   UNL     1      -1.942  13.435  23.093  0.00  0.00    +0.000 A 
ATOM     23  C   UNL     1      -3.162  13.409  23.786  0.00  0.00    +0.000 A 
ATOM     24  C   UNL     1      -3.405  14.284  24.848  0.00  0.00    +0.000 A 
ATOM     25  C   UNL     1      -2.426  15.197  25.237  0.00  0.00    +0.000 A 
ATOM     26  C   UNL     1      -1.219  15.251  24.547  0.00  0.00    +0.000 A 
ATOM     27  C   UNL     1      -0.988  14.391  23.470  0.00  0.00    +0.000 A 
ENDBRANCH   3  22
TORSDOF 2
ENDMDL
MODEL 7
REMARK VINA RESULT:      -7.8      2.889      4.983
REMARK  Name = 
REMARK  2 active torsions:
REMARK  status: ('A' for Active; 'I' for Inactive)
REMARK    1  A    between atoms: C_11  and  C_12
REMARK    2  A    between atoms: C_14  and  C_15
REMARK                            x       y       z     vdW  Elec       q    Type
REMARK                         _______ _______ _______ _____ _____    ______ ____
ROOT
ATOM      1  C   UNL     1       2.335   6.306  20.099  0.00  0.00    +0.000 A 
ATOM      2  N   UNL     1       3.292   6.608  19.177  0.00  0.00    +0.000 NA
ATOM      3  C   UNL     1       3.360   5.563  18.359  0.00  0.00    +0.000 A 
ATOM      4  N   UNL     1       2.518   4.542  18.808  0.00  0.00    +0.000 N 
ATOM      5  C   UNL     1       2.343   3.221  18.376  0.00  0.00    +0.000 A 
ATOM      6  C   UNL     1       1.423   2.439  18.967  0.00  0.00    +0.000 A 
ATOM      7  C   UNL     1       0.633   2.982  20.059  0.00  0.00    +0.000 A 
ATOM      8  C   UNL     1       0.824   4.236  20.509  0.00  0.00    +0.000 A 
ATOM      9  C   UNL     1       1.808   5.058  19.890  0.00  0.00    +0.000 A 
ENDROOT
BRANCH   1  20
ATOM     10  O   UNL     1       1.568   9.134  23.316  0.00  0.00    +0.000 OA
ATOM     11  C   UNL     1       1.258   9.330  22.157  0.00  0.00    +0.000 C 
ATOM     12  N   UNL     1       0.730  10.491  21.613  0.00  0.00    +0.000 N 
ATOM     13  C   UNL     1       0.506  10.352  20.245  0.00  0.00    +0.000 A 
ATOM     14  C   UNL     1      -0.022  11.302  19.392  0.00  0.00    +0.000 A 
ATOM     15  C   UNL     1      -0.194  10.938  18.055  0.00  0.00    +0.000 A 
ATOM     16  C   UNL     1       0.150   9.649  17.610  0.00  0.00    +0.000 A 
ATOM     17  C   UNL     1       0.690   8.705  18.491  0.00  0.00    +0.000 A 
ATOM     18  C   UNL     1       0.879   9.075  19.811  0.00  0.00    +0.000 A 
ATOM     19  C   UNL     1       1.403   8.390  20.995  0.00  0.00    +0.000 C 
ATOM     20  C   UNL     1       2.005   7.201  21.146  0.00  0.00    +0.000 C 
ATOM     21  H   UNL     1       0.533  11.313  22.162  0.00  0.00    +0.000 HD
ENDBRANCH   1  20
BRANCH   3  22
ATOM     22  C   UNL     1       4.233   5.508  17.175  0.00  0.00    +0.000 A 
ATOM     23  C   UNL     1       4.738   4.269  16.753  0.00  0.00    +0.000 A 
ATOM     24  C   UNL     1       5.581   4.177  15.641  0.00  0.00    +0.000 A 
ATOM     25  C   UNL     1       5.928   5.326  14.932  0.00  0.00    +0.000 A 
ATOM     26  C   UNL     1       5.453   6.565  15.350  0.00  0.00    +0.000 A 
ATOM     27  C   UNL     1       4.629   6.657  16.475  0.00  0.00    +0.000 A 
ENDBRANCH   3  22
TORSDOF 2
ENDMDL
MODEL 8
REMARK VINA RESULT:      -7.8      6.494      9.503
REMARK  Name = 
REMARK  2 active torsions:
REMARK  status: ('A' for Active; 'I' for Inactive)
REMARK    1  A    between atoms: C_11  and  C_12
REMARK    2  A    between atoms: C_14  and  C_15
REMARK                            x       y       z     vdW  Elec       q    Type
REMARK                         _______ _______ _______ _____ _____    ______ ____
ROOT
ATOM      1  C   UNL     1      -0.665  11.851  20.390  0.00  0.00    +0.000 A 
ATOM      2  N   UNL     1      -0.383  10.528  20.227  0.00  0.00    +0.000 NA
ATOM      3  C   UNL     1       0.750  10.474  19.535  0.00  0.00    +0.000 A 
ATOM      4  N   UNL     1       1.151  11.761  19.163  0.00  0.00    +0.000 N 
ATOM      5  C   UNL     1       2.182  12.210  18.329  0.00  0.00    +0.000 A 
ATOM      6  C   UNL     1       2.383  13.528  18.163  0.00  0.00    +0.000 A 
ATOM      7  C   UNL     1       1.510  14.466  18.847  0.00  0.00    +0.000 A 
ATOM      8  C   UNL     1       0.490  14.043  19.617  0.00  0.00    +0.000 A 
ATOM      9  C   UNL     1       0.271  12.647  19.781  0.00  0.00    +0.000 A 
ENDROOT
BRANCH   1  20
ATOM     10  O   UNL     1      -4.143  13.426  22.477  0.00  0.00    +0.000 OA
ATOM     11  C   UNL     1      -4.169  13.025  21.330  0.00  0.00    +0.000 C 
ATOM     12  N   UNL     1      -5.229  13.093  20.440  0.00  0.00    +0.000 N 
ATOM     13  C   UNL     1      -4.891  12.539  19.207  0.00  0.00    +0.000 A 
ATOM     14  C   UNL     1      -5.708  12.427  18.098  0.00  0.00    +0.000 A 
ATOM     15  C   UNL     1      -5.173  11.802  16.969  0.00  0.00    +0.000 A 
ATOM     16  C   UNL     1      -3.860  11.302  16.979  0.00  0.00    +0.000 A 
ATOM     17  C   UNL     1      -3.049  11.432  18.112  0.00  0.00    +0.000 A 
ATOM     18  C   UNL     1      -3.574  12.070  19.222  0.00  0.00    +0.000 A 
ATOM     19  C   UNL     1      -3.051  12.391  20.552  0.00  0.00    +0.000 C 
ATOM     20  C   UNL     1      -1.824  12.284  21.080  0.00  0.00    +0.000 C 
ATOM     21  H   UNL     1      -6.124  13.489  20.683  0.00  0.00    +0.000 HD
ENDBRANCH   1  20
BRANCH   3  22
ATOM     22  C   UNL     1       1.441   9.219  19.197  0.00  0.00    +0.000 A 
ATOM     23  C   UNL     1       1.615   8.244  20.190  0.00  0.00    +0.000 A 
ATOM     24  C   UNL     1       2.277   7.044  19.913  0.00  0.00    +0.000 A 
ATOM     25  C   UNL     1       2.774   6.803  18.633  0.00  0.00    +0.000 A 
ATOM     26  C   UNL     1       2.630   7.768  17.642  0.00  0.00    +0.000 A 
ATOM     27  C   UNL     1       1.987   8.976  17.928  0.00  0.00    +0.000 A 
ENDBRANCH   3  22
TORSDOF 2
ENDMDL
MODEL 9
REMARK VINA RESULT:      -7.8      2.797      4.890
REMARK  Name = 
REMARK  2 active torsions:
REMARK  status: ('A' for Active; 'I' for Inactive)
REMARK    1  A    between atoms: C_11  and  C_12
REMARK    2  A    between atoms: C_14  and  C_15
REMARK                            x       y       z     vdW  Elec       q    Type
REMARK                         _______ _______ _______ _____ _____    ______ ____
ROOT
ATOM      1  C   UNL     1       1.974   6.036  20.370  0.00  0.00    +0.000 A 
ATOM      2  N   UNL     1       2.614   6.466  19.246  0.00  0.00    +0.000 NA
ATOM      3  C   UNL     1       3.302   5.425  18.791  0.00  0.00    +0.000 A 
ATOM      4  N   UNL     1       3.189   4.347  19.673  0.00  0.00    +0.000 N 
ATOM      5  C   UNL     1       3.825   3.100  19.706  0.00  0.00    +0.000 A 
ATOM      6  C   UNL     1       3.504   2.210  20.661  0.00  0.00    +0.000 A 
ATOM      7  C   UNL     1       2.507   2.570  21.654  0.00  0.00    +0.000 A 
ATOM      8  C   UNL     1       1.922   3.782  21.656  0.00  0.00    +0.000 A 
ATOM      9  C   UNL     1       2.273   4.727  20.652  0.00  0.00    +0.000 A 
ENDROOT
BRANCH   1  20
ATOM     10  O   UNL     1      -0.362   8.717  22.876  0.00  0.00    +0.000 OA
ATOM     11  C   UNL     1       0.152   9.052  21.827  0.00  0.00    +0.000 C 
ATOM     12  N   UNL     1       0.208  10.327  21.287  0.00  0.00    +0.000 N 
ATOM     13  C   UNL     1       0.886  10.332  20.070  0.00  0.00    +0.000 A 
ATOM     14  C   UNL     1       1.115  11.424  19.254  0.00  0.00    +0.000 A 
ATOM     15  C   UNL     1       1.790  11.196  18.054  0.00  0.00    +0.000 A 
ATOM     16  C   UNL     1       2.205   9.902  17.696  0.00  0.00    +0.000 A 
ATOM     17  C   UNL     1       1.967   8.812  18.541  0.00  0.00    +0.000 A 
ATOM     18  C   UNL     1       1.316   9.043  19.740  0.00  0.00    +0.000 A 
ATOM     19  C   UNL     1       0.903   8.187  20.854  0.00  0.00    +0.000 C 
ATOM     20  C   UNL     1       1.149   6.899  21.131  0.00  0.00    +0.000 C 
ATOM     21  H   UNL     1      -0.207  11.130  21.734  0.00  0.00    +0.000 HD
ENDBRANCH   1  20
BRANCH   3  22
ATOM     22  C   UNL     1       4.088   5.447  17.546  0.00  0.00    +0.000 A 
ATOM     23  C   UNL     1       4.496   6.680  17.016  0.00  0.00    +0.000 A 
ATOM     24  C   UNL     1       5.233   6.745  15.829  0.00  0.00    +0.000 A 
ATOM     25  C   UNL     1       5.575   5.573  15.157  0.00  0.00    +0.000 A 
ATOM     26  C   UNL     1       5.160   4.343  15.657  0.00  0.00    +0.000 A 
ATOM     27  C   UNL     1       4.404   4.283  16.832  0.00  0.00    +0.000 A 
ENDBRANCH   3  22
TORSDOF 2
ENDMDL
