MODEL 1
REMARK VINA RESULT:      -7.8      0.000      0.000
REMARK  Name = 
REMARK  2 active torsions:
REMARK  status: ('A' for Active; 'I' for Inactive)
REMARK    1  A    between atoms: C_6  and  C_7
REMARK    2  A    between atoms: C_10  and  C_11
REMARK                            x       y       z     vdW  Elec       q    Type
REMARK                         _______ _______ _______ _____ _____    ______ ____
ROOT
ATOM      1  C   UNL     1       5.205   4.960  15.823  0.00  0.00    +0.000 A 
ATOM      2  C   UNL     1       5.393   6.111  16.552  0.00  0.00    +0.000 A 
ATOM      3  N   UNL     1       4.540   6.001  17.612  0.00  0.00    +0.000 N 
ATOM      4  C   UNL     1       3.867   4.804  17.513  0.00  0.00    +0.000 A 
ATOM      5  N   UNL     1       4.256   4.162  16.424  0.00  0.00    +0.000 NA
ATOM      6  H   UNL     1       4.446   6.659  18.370  0.00  0.00    +0.000 HD
ENDROOT
BRANCH   1  12
ATOM      7 CL   UNL     1       5.271   2.285  11.402  0.00  0.00    +0.000 Cl
ATOM      8  C   UNL     1       5.976   3.409  12.500  0.00  0.00    +0.000 A 
ATOM      9  C   UNL     1       7.176   4.034  12.164  0.00  0.00    +0.000 A 
ATOM     10  C   UNL     1       7.746   4.951  13.042  0.00  0.00    +0.000 A 
ATOM     11  C   UNL     1       7.107   5.247  14.248  0.00  0.00    +0.000 A 
ATOM     12  C   UNL     1       5.892   4.629  14.588  0.00  0.00    +0.000 A 
ATOM     13  C   UNL     1       5.336   3.693  13.708  0.00  0.00    +0.000 A 
ENDBRANCH   1  12
BRANCH   4  14
ATOM     14  C   UNL     1       2.932   4.339  18.540  0.00  0.00    +0.000 A 
ATOM     15  C   UNL     1       1.978   3.346  18.266  0.00  0.00    +0.000 A 
ATOM     16  C   UNL     1       1.034   2.977  19.228  0.00  0.00    +0.000 A 
ATOM     17  C   UNL     1       1.038   3.591  20.478  0.00  0.00    +0.000 A 
ATOM     18  C   UNL     1       1.999   4.555  20.776  0.00  0.00    +0.000 A 
ATOM     19  C   UNL     1       2.946   4.921  19.814  0.00  0.00    +0.000 A 
ENDBRANCH   4  14
TORSDOF 2
ENDMDL
MODEL 2
REMARK VINA RESULT:      -7.7      0.682      1.326
REMARK  Name = 
REMARK  2 active torsions:
REMARK  status: ('A' for Active; 'I' for Inactive)
REMARK    1  A    between atoms: C_6  and  C_7
REMARK    2  A    between atoms: C_10  and  C_11
REMARK                            x       y       z     vdW  Elec       q    Type
REMARK                         _______ _______ _______ _____ _____    ______ ____
ROOT
ATOM      1  C   UNL     1       5.687   4.449  16.117  0.00  0.00    +0.000 A 
ATOM      2  C   UNL     1       6.461   4.734  17.218  0.00  0.00    +0.000 A 
ATOM      3  N   UNL     1       5.591   4.733  18.270  0.00  0.00    +0.000 N 
ATOM      4  C   UNL     1       4.330   4.446  17.799  0.00  0.00    +0.000 A 
ATOM      5  N   UNL     1       4.371   4.278  16.488  0.00  0.00    +0.000 NA
ATOM      6  H   UNL     1       5.831   4.872  19.240  0.00  0.00    +0.000 HD
ENDROOT
BRANCH   1  12
ATOM      7 CL   UNL     1       5.156   2.447  11.383  0.00  0.00    +0.000 Cl
ATOM      8  C   UNL     1       5.972   3.455  12.515  0.00  0.00    +0.000 A 
ATOM      9  C   UNL     1       7.062   4.216  12.094  0.00  0.00    +0.000 A 
ATOM     10  C   UNL     1       7.720   5.041  13.001  0.00  0.00    +0.000 A 
ATOM     11  C   UNL     1       7.278   5.109  14.324  0.00  0.00    +0.000 A 
ATOM     12  C   UNL     1       6.173   4.354  14.753  0.00  0.00    +0.000 A 
ATOM     13  C   UNL     1       5.530   3.512  13.838  0.00  0.00    +0.000 A 
ENDBRANCH   1  12
BRANCH   4  14
ATOM     14  C   UNL     1       3.175   4.288  18.686  0.00  0.00    +0.000 A 
ATOM     15  C   UNL     1       3.109   4.942  19.927  0.00  0.00    +0.000 A 
ATOM     16  C   UNL     1       2.044   4.711  20.801  0.00  0.00    +0.000 A 
ATOM     17  C   UNL     1       1.028   3.828  20.442  0.00  0.00    +0.000 A 
ATOM     18  C   UNL     1       1.064   3.196  19.200  0.00  0.00    +0.000 A 
ATOM     19  C   UNL     1       2.128   3.431  18.324  0.00  0.00    +0.000 A 
ENDBRANCH   4  14
TORSDOF 2
ENDMDL
MODEL 3
REMARK VINA RESULT:      -7.7      1.032      1.043
REMARK  Name = 
REMARK  2 active torsions:
REMARK  status: ('A' for Active; 'I' for Inactive)
REMARK    1  A    between atoms: C_6  and  C_7
REMARK    2  A    between atoms: C_10  and  C_11
REMARK                            x       y       z     vdW  Elec       q    Type
REMARK                         _______ _______ _______ _____ _____    ______ ____
ROOT
ATOM      1  C   UNL     1       5.888   4.209  16.324  0.00  0.00    +0.000 A 
ATOM      2  C   UNL     1       6.741   4.355  17.393  0.00  0.00    +0.000 A 
ATOM      3  N   UNL     1       5.941   4.271  18.497  0.00  0.00    +0.000 N 
ATOM      4  C   UNL     1       4.643   4.072  18.086  0.00  0.00    +0.000 A 
ATOM      5  N   UNL     1       4.593   4.040  16.764  0.00  0.00    +0.000 NA
ATOM      6  H   UNL     1       6.248   4.301  19.457  0.00  0.00    +0.000 HD
ENDROOT
BRANCH   1  12
ATOM      7 CL   UNL     1       5.024   2.667  11.469  0.00  0.00    +0.000 Cl
ATOM      8  C   UNL     1       5.923   3.560  12.634  0.00  0.00    +0.000 A 
ATOM      9  C   UNL     1       6.991   4.354  12.214  0.00  0.00    +0.000 A 
ATOM     10  C   UNL     1       7.715   5.086  13.149  0.00  0.00    +0.000 A 
ATOM     11  C   UNL     1       7.363   5.031  14.499  0.00  0.00    +0.000 A 
ATOM     12  C   UNL     1       6.282   4.242  14.928  0.00  0.00    +0.000 A 
ATOM     13  C   UNL     1       5.570   3.494  13.983  0.00  0.00    +0.000 A 
ENDBRANCH   1  12
BRANCH   4  14
ATOM     14  C   UNL     1       3.542   3.856  19.028  0.00  0.00    +0.000 A 
ATOM     15  C   UNL     1       2.827   2.648  19.055  0.00  0.00    +0.000 A 
ATOM     16  C   UNL     1       1.723   2.489  19.896  0.00  0.00    +0.000 A 
ATOM     17  C   UNL     1       1.325   3.535  20.726  0.00  0.00    +0.000 A 
ATOM     18  C   UNL     1       2.045   4.728  20.734  0.00  0.00    +0.000 A 
ATOM     19  C   UNL     1       3.152   4.885  19.895  0.00  0.00    +0.000 A 
ENDBRANCH   4  14
TORSDOF 2
ENDMDL
MODEL 4
REMARK VINA RESULT:      -7.7      2.246      6.930
REMARK  Name = 
REMARK  2 active torsions:
REMARK  status: ('A' for Active; 'I' for Inactive)
REMARK    1  A    between atoms: C_6  and  C_7
REMARK    2  A    between atoms: C_10  and  C_11
REMARK                            x       y       z     vdW  Elec       q    Type
REMARK                         _______ _______ _______ _____ _____    ______ ____
ROOT
ATOM      1  C   UNL     1       4.158   5.387  17.333  0.00  0.00    +0.000 A 
ATOM      2  C   UNL     1       4.860   6.568  17.268  0.00  0.00    +0.000 A 
ATOM      3  N   UNL     1       5.678   6.433  16.183  0.00  0.00    +0.000 N 
ATOM      4  C   UNL     1       5.457   5.198  15.616  0.00  0.00    +0.000 A 
ATOM      5  N   UNL     1       4.539   4.547  16.310  0.00  0.00    +0.000 NA
ATOM      6  H   UNL     1       6.308   7.133  15.822  0.00  0.00    +0.000 HD
ENDROOT
BRANCH   1  12
ATOM      7 CL   UNL     1       0.410   2.217  18.949  0.00  0.00    +0.000 Cl
ATOM      8  C   UNL     1       1.409   3.605  19.152  0.00  0.00    +0.000 A 
ATOM      9  C   UNL     1       1.292   4.368  20.314  0.00  0.00    +0.000 A 
ATOM     10  C   UNL     1       2.104   5.486  20.489  0.00  0.00    +0.000 A 
ATOM     11  C   UNL     1       3.035   5.828  19.508  0.00  0.00    +0.000 A 
ATOM     12  C   UNL     1       3.166   5.058  18.340  0.00  0.00    +0.000 A 
ATOM     13  C   UNL     1       2.333   3.947  18.163  0.00  0.00    +0.000 A 
ENDBRANCH   1  12
BRANCH   4  14
ATOM     14  C   UNL     1       6.118   4.769  14.381  0.00  0.00    +0.000 A 
ATOM     15  C   UNL     1       7.302   5.377  13.934  0.00  0.00    +0.000 A 
ATOM     16  C   UNL     1       7.871   5.019  12.710  0.00  0.00    +0.000 A 
ATOM     17  C   UNL     1       7.267   4.042  11.921  0.00  0.00    +0.000 A 
ATOM     18  C   UNL     1       6.110   3.407  12.367  0.00  0.00    +0.000 A 
ATOM     19  C   UNL     1       5.543   3.763  13.594  0.00  0.00    +0.000 A 
ENDBRANCH   4  14
TORSDOF 2
ENDMDL
MODEL 5
REMARK VINA RESULT:      -7.7      2.809      7.073
REMARK  Name = 
REMARK  2 active torsions:
REMARK  status: ('A' for Active; 'I' for Inactive)
REMARK    1  A    between atoms: C_6  and  C_7
REMARK    2  A    between atoms: C_10  and  C_11
REMARK                            x       y       z     vdW  Elec       q    Type
REMARK                         _______ _______ _______ _____ _____    ______ ____
ROOT
ATOM      1  C   UNL     1       4.883   4.688  17.810  0.00  0.00    +0.000 A 
ATOM      2  C   UNL     1       6.192   4.418  18.134  0.00  0.00    +0.000 A 
ATOM      3  N   UNL     1       6.823   4.242  16.937  0.00  0.00    +0.000 N 
ATOM      4  C   UNL     1       5.904   4.411  15.926  0.00  0.00    +0.000 A 
ATOM      5  N   UNL     1       4.716   4.676  16.443  0.00  0.00    +0.000 NA
ATOM      6  H   UNL     1       7.806   4.064  16.803  0.00  0.00    +0.000 HD
ENDROOT
BRANCH   1  12
ATOM      7 CL   UNL     1       1.932   2.930  21.671  0.00  0.00    +0.000 Cl
ATOM      8  C   UNL     1       2.412   4.172  20.580  0.00  0.00    +0.000 A 
ATOM      9  C   UNL     1       1.809   5.427  20.663  0.00  0.00    +0.000 A 
ATOM     10  C   UNL     1       2.199   6.439  19.791  0.00  0.00    +0.000 A 
ATOM     11  C   UNL     1       3.199   6.195  18.847  0.00  0.00    +0.000 A 
ATOM     12  C   UNL     1       3.818   4.937  18.764  0.00  0.00    +0.000 A 
ATOM     13  C   UNL     1       3.406   3.919  19.633  0.00  0.00    +0.000 A 
ENDBRANCH   1  12
BRANCH   4  14
ATOM     14  C   UNL     1       6.275   4.369  14.509  0.00  0.00    +0.000 A 
ATOM     15  C   UNL     1       5.600   3.539  13.600  0.00  0.00    +0.000 A 
ATOM     16  C   UNL     1       6.023   3.441  12.272  0.00  0.00    +0.000 A 
ATOM     17  C   UNL     1       7.120   4.180  11.835  0.00  0.00    +0.000 A 
ATOM     18  C   UNL     1       7.779   5.033  12.718  0.00  0.00    +0.000 A 
ATOM     19  C   UNL     1       7.354   5.133  14.046  0.00  0.00    +0.000 A 
ENDBRANCH   4  14
TORSDOF 2
ENDMDL
MODEL 6
REMARK VINA RESULT:      -7.6      2.760      7.110
REMARK  Name = 
REMARK  2 active torsions:
REMARK  status: ('A' for Active; 'I' for Inactive)
REMARK    1  A    between atoms: C_6  and  C_7
REMARK    2  A    between atoms: C_10  and  C_11
REMARK                            x       y       z     vdW  Elec       q    Type
REMARK                         _______ _______ _______ _____ _____    ______ ____
ROOT
ATOM      1  C   UNL     1       4.902   4.632  17.867  0.00  0.00    +0.000 A 
ATOM      2  C   UNL     1       6.221   4.487  18.229  0.00  0.00    +0.000 A 
ATOM      3  N   UNL     1       6.892   4.311  17.054  0.00  0.00    +0.000 N 
ATOM      4  C   UNL     1       5.986   4.357  16.018  0.00  0.00    +0.000 A 
ATOM      5  N   UNL     1       4.768   4.545  16.499  0.00  0.00    +0.000 NA
ATOM      6  H   UNL     1       7.889   4.209  16.948  0.00  0.00    +0.000 HD
ENDROOT
BRANCH   1  12
ATOM      7 CL   UNL     1       1.625   2.620  21.319  0.00  0.00    +0.000 Cl
ATOM      8  C   UNL     1       2.242   3.950  20.418  0.00  0.00    +0.000 A 
ATOM      9  C   UNL     1       1.711   5.223  20.625  0.00  0.00    +0.000 A 
ATOM     10  C   UNL     1       2.212   6.305  19.907  0.00  0.00    +0.000 A 
ATOM     11  C   UNL     1       3.250   6.111  18.993  0.00  0.00    +0.000 A 
ATOM     12  C   UNL     1       3.798   4.833  18.788  0.00  0.00    +0.000 A 
ATOM     13  C   UNL     1       3.274   3.748  19.500  0.00  0.00    +0.000 A 
ENDBRANCH   1  12
BRANCH   4  14
ATOM     14  C   UNL     1       6.392   4.283  14.613  0.00  0.00    +0.000 A 
ATOM     15  C   UNL     1       7.450   5.060  14.114  0.00  0.00    +0.000 A 
ATOM     16  C   UNL     1       7.767   5.047  12.754  0.00  0.00    +0.000 A 
ATOM     17  C   UNL     1       7.035   4.250  11.876  0.00  0.00    +0.000 A 
ATOM     18  C   UNL     1       6.003   3.450  12.362  0.00  0.00    +0.000 A 
ATOM     19  C   UNL     1       5.688   3.460  13.724  0.00  0.00    +0.000 A 
ENDBRANCH   4  14
TORSDOF 2
ENDMDL
MODEL 7
REMARK VINA RESULT:      -7.5      1.744      2.102
REMARK  Name = 
REMARK  2 active torsions:
REMARK  status: ('A' for Active; 'I' for Inactive)
REMARK    1  A    between atoms: C_6  and  C_7
REMARK    2  A    between atoms: C_10  and  C_11
REMARK                            x       y       z     vdW  Elec       q    Type
REMARK                         _______ _______ _______ _____ _____    ______ ____
ROOT
ATOM      1  C   UNL     1       5.689   4.102  16.324  0.00  0.00    +0.000 A 
ATOM      2  C   UNL     1       6.538   4.267  17.394  0.00  0.00    +0.000 A 
ATOM      3  N   UNL     1       5.747   4.126  18.497  0.00  0.00    +0.000 N 
ATOM      4  C   UNL     1       4.457   3.875  18.086  0.00  0.00    +0.000 A 
ATOM      5  N   UNL     1       4.405   3.865  16.764  0.00  0.00    +0.000 NA
ATOM      6  H   UNL     1       6.055   4.152  19.457  0.00  0.00    +0.000 HD
ENDROOT
BRANCH   1  12
ATOM      7 CL   UNL     1       8.876   6.024  12.739  0.00  0.00    +0.000 Cl
ATOM      8  C   UNL     1       7.542   5.040  13.205  0.00  0.00    +0.000 A 
ATOM      9  C   UNL     1       6.881   4.280  12.240  0.00  0.00    +0.000 A 
ATOM     10  C   UNL     1       5.809   3.475  12.612  0.00  0.00    +0.000 A 
ATOM     11  C   UNL     1       5.409   3.424  13.949  0.00  0.00    +0.000 A 
ATOM     12  C   UNL     1       6.076   4.179  14.928  0.00  0.00    +0.000 A 
ATOM     13  C   UNL     1       7.142   5.001  14.542  0.00  0.00    +0.000 A 
ENDBRANCH   1  12
BRANCH   4  14
ATOM     14  C   UNL     1       3.371   3.591  19.027  0.00  0.00    +0.000 A 
ATOM     15  C   UNL     1       2.072   4.081  18.816  0.00  0.00    +0.000 A 
ATOM     16  C   UNL     1       1.069   3.878  19.766  0.00  0.00    +0.000 A 
ATOM     17  C   UNL     1       1.350   3.177  20.936  0.00  0.00    +0.000 A 
ATOM     18  C   UNL     1       2.626   2.658  21.145  0.00  0.00    +0.000 A 
ATOM     19  C   UNL     1       3.629   2.857  20.192  0.00  0.00    +0.000 A 
ENDBRANCH   4  14
TORSDOF 2
ENDMDL
MODEL 8
REMARK VINA RESULT:      -7.5      2.844      7.153
REMARK  Name = 
REMARK  2 active torsions:
REMARK  status: ('A' for Active; 'I' for Inactive)
REMARK    1  A    between atoms: C_6  and  C_7
REMARK    2  A    between atoms: C_10  and  C_11
REMARK                            x       y       z     vdW  Elec       q    Type
REMARK                         _______ _______ _______ _____ _____    ______ ____
ROOT
ATOM      1  C   UNL     1       4.615   4.340  17.803  0.00  0.00    +0.000 A 
ATOM      2  C   UNL     1       5.937   4.352  18.185  0.00  0.00    +0.000 A 
ATOM      3  N   UNL     1       6.642   4.301  17.017  0.00  0.00    +0.000 N 
ATOM      4  C   UNL     1       5.753   4.266  15.967  0.00  0.00    +0.000 A 
ATOM      5  N   UNL     1       4.514   4.282  16.431  0.00  0.00    +0.000 NA
ATOM      6  H   UNL     1       7.646   4.330  16.927  0.00  0.00    +0.000 HD
ENDROOT
BRANCH   1  12
ATOM      7 CL   UNL     1       1.518   7.093  20.891  0.00  0.00    +0.000 Cl
ATOM      8  C   UNL     1       1.994   5.607  20.162  0.00  0.00    +0.000 A 
ATOM      9  C   UNL     1       1.247   4.455  20.407  0.00  0.00    +0.000 A 
ATOM     10  C   UNL     1       1.620   3.253  19.812  0.00  0.00    +0.000 A 
ATOM     11  C   UNL     1       2.731   3.210  18.968  0.00  0.00    +0.000 A 
ATOM     12  C   UNL     1       3.482   4.370  18.709  0.00  0.00    +0.000 A 
ATOM     13  C   UNL     1       3.111   5.571  19.326  0.00  0.00    +0.000 A 
ENDBRANCH   1  12
BRANCH   4  14
ATOM     14  C   UNL     1       6.185   4.290  14.568  0.00  0.00    +0.000 A 
ATOM     15  C   UNL     1       5.561   3.494  13.594  0.00  0.00    +0.000 A 
ATOM     16  C   UNL     1       6.042   3.459  12.283  0.00  0.00    +0.000 A 
ATOM     17  C   UNL     1       7.148   4.227  11.928  0.00  0.00    +0.000 A 
ATOM     18  C   UNL     1       7.758   5.047  12.875  0.00  0.00    +0.000 A 
ATOM     19  C   UNL     1       7.274   5.085  14.186  0.00  0.00    +0.000 A 
ENDBRANCH   4  14
TORSDOF 2
ENDMDL
MODEL 9
REMARK VINA RESULT:      -7.5      2.856      7.138
REMARK  Name = 
REMARK  2 active torsions:
REMARK  status: ('A' for Active; 'I' for Inactive)
REMARK    1  A    between atoms: C_6  and  C_7
REMARK    2  A    between atoms: C_10  and  C_11
REMARK                            x       y       z     vdW  Elec       q    Type
REMARK                         _______ _______ _______ _____ _____    ______ ____
ROOT
ATOM      1  C   UNL     1       4.395   3.869  17.530  0.00  0.00    +0.000 A 
ATOM      2  C   UNL     1       5.624   4.211  18.045  0.00  0.00    +0.000 A 
ATOM      3  N   UNL     1       6.433   4.363  16.956  0.00  0.00    +0.000 N 
ATOM      4  C   UNL     1       5.693   4.122  15.820  0.00  0.00    +0.000 A 
ATOM      5  N   UNL     1       4.451   3.813  16.155  0.00  0.00    +0.000 NA
ATOM      6  H   UNL     1       7.399   4.649  16.969  0.00  0.00    +0.000 HD
ENDROOT
BRANCH   1  12
ATOM      7 CL   UNL     1       2.276   3.044  22.170  0.00  0.00    +0.000 Cl
ATOM      8  C   UNL     1       2.156   3.207  20.461  0.00  0.00    +0.000 A 
ATOM      9  C   UNL     1       0.904   3.126  19.852  0.00  0.00    +0.000 A 
ATOM     10  C   UNL     1       0.797   3.267  18.471  0.00  0.00    +0.000 A 
ATOM     11  C   UNL     1       1.942   3.499  17.707  0.00  0.00    +0.000 A 
ATOM     12  C   UNL     1       3.206   3.592  18.315  0.00  0.00    +0.000 A 
ATOM     13  C   UNL     1       3.306   3.430  19.702  0.00  0.00    +0.000 A 
ENDBRANCH   1  12
BRANCH   4  14
ATOM     14  C   UNL     1       6.244   4.282  14.472  0.00  0.00    +0.000 A 
ATOM     15  C   UNL     1       5.759   3.531  13.389  0.00  0.00    +0.000 A 
ATOM     16  C   UNL     1       6.354   3.628  12.129  0.00  0.00    +0.000 A 
ATOM     17  C   UNL     1       7.436   4.484  11.935  0.00  0.00    +0.000 A 
ATOM     18  C   UNL     1       7.907   5.259  12.992  0.00  0.00    +0.000 A 
ATOM     19  C   UNL     1       7.309   5.165  14.252  0.00  0.00    +0.000 A 
ENDBRANCH   4  14
TORSDOF 2
ENDMDL
