MODEL 1
REMARK VINA RESULT:      -8.2      0.000      0.000
REMARK  Name = 
REMARK  7 active torsions:
REMARK  status: ('A' for Active; 'I' for Inactive)
REMARK    1  A    between atoms: N_1  and  CA_2
REMARK    2  A    between atoms: CA_2  and  C_3
REMARK    3  A    between atoms: CA_2  and  C_26
REMARK    4  A    between atoms: C_3  and  C_4
REMARK    5  A    between atoms: C_4  and  C_5
REMARK    6  A    between atoms: C_8  and  C_9
REMARK    7  A    between atoms: C_26  and  OXT_28
REMARK                            x       y       z     vdW  Elec       q    Type
REMARK                         _______ _______ _______ _____ _____    ______ ____
ROOT
ATOM      1  C   UNL     1       3.424   6.529  18.758  0.00  0.00    +0.000 C 
ATOM      2  O   UNL     1       4.166   5.727  19.336  0.00  0.00    +0.000 OA
ATOM      3  N   UNL     1       2.294   7.075  19.368  0.00  0.00    +0.000 N 
ATOM      4  C   UNL     1       1.521   6.351  20.296  0.00  0.00    +0.000 A 
ATOM      5  N   UNL     1       0.675   6.917  21.107  0.00  0.00    +0.000 NA
ATOM      6  C   UNL     1       0.564   8.306  21.134  0.00  0.00    +0.000 A 
ATOM      7  C   UNL     1      -0.251   8.912  22.090  0.00  0.00    +0.000 A 
ATOM      8  C   UNL     1      -0.356  10.304  22.153  0.00  0.00    +0.000 A 
ATOM      9  C   UNL     1       0.361  11.102  21.263  0.00  0.00    +0.000 A 
ATOM     10  C   UNL     1       1.164  10.502  20.296  0.00  0.00    +0.000 A 
ATOM     11  C   UNL     1       1.249   9.107  20.236  0.00  0.00    +0.000 A 
ATOM     12  C   UNL     1       2.047   8.438  19.206  0.00  0.00    +0.000 A 
ATOM     13  O   UNL     1       2.345   9.114  18.225  0.00  0.00    +0.000 OA
ENDROOT
BRANCH   4  14
ATOM     14  C   UNL     1       1.590   4.848  20.394  0.00  0.00    +0.000 A 
ATOM     15  C   UNL     1       0.893   4.098  19.430  0.00  0.00    +0.000 A 
ATOM     16  C   UNL     1       0.992   2.710  19.410  0.00  0.00    +0.000 A 
ATOM     17  F   UNL     1       0.343   2.016  18.466  0.00  0.00    +0.000 F 
ATOM     18  C   UNL     1       1.764   2.036  20.341  0.00  0.00    +0.000 A 
ATOM     19  C   UNL     1       2.457   2.777  21.287  0.00  0.00    +0.000 A 
ATOM     20  F   UNL     1       3.219   2.142  22.187  0.00  0.00    +0.000 F 
ATOM     21  C   UNL     1       2.399   4.171  21.312  0.00  0.00    +0.000 A 
ENDBRANCH   4  14
BRANCH   1  22
ATOM     22  C   UNL     1       3.868   7.054  17.393  0.00  0.00    +0.000 C 
BRANCH  22  23
ATOM     23  C   UNL     1       4.917   6.124  16.772  0.00  0.00    +0.000 C 
BRANCH  23  24
ATOM     24  CA  UNL     1       6.299   6.231  17.421  0.00  0.00    +0.000 C 
BRANCH  24  25
ATOM     25  N   UNL     1       7.193   7.189  16.707  0.00  0.00    +0.000 NA
ATOM     26  H1  UNL     1       8.051   6.699  16.444  0.00  0.00    +0.000 HD
ATOM     27  H2  UNL     1       7.501   7.899  17.382  0.00  0.00    +0.000 HD
ENDBRANCH  24  25
BRANCH  24  28
ATOM     28  C   UNL     1       7.008   4.859  17.449  0.00  0.00    +0.000 C 
ATOM     29  O   UNL     1       7.882   4.486  16.686  0.00  0.00    +0.000 OA
BRANCH  28  30
ATOM     30  OXT UNL     1       6.508   4.079  18.447  0.00  0.00    +0.000 OA
ATOM     31  HXT UNL     1       5.596   4.418  18.628  0.00  0.00    +0.000 HD
ENDBRANCH  28  30
ENDBRANCH  24  28
ENDBRANCH  23  24
ENDBRANCH  22  23
ENDBRANCH   1  22
TORSDOF 7
ENDMDL
MODEL 2
REMARK VINA RESULT:      -8.0      1.147      1.917
REMARK  Name = 
REMARK  7 active torsions:
REMARK  status: ('A' for Active; 'I' for Inactive)
REMARK    1  A    between atoms: N_1  and  CA_2
REMARK    2  A    between atoms: CA_2  and  C_3
REMARK    3  A    between atoms: CA_2  and  C_26
REMARK    4  A    between atoms: C_3  and  C_4
REMARK    5  A    between atoms: C_4  and  C_5
REMARK    6  A    between atoms: C_8  and  C_9
REMARK    7  A    between atoms: C_26  and  OXT_28
REMARK                            x       y       z     vdW  Elec       q    Type
REMARK                         _______ _______ _______ _____ _____    ______ ____
ROOT
ATOM      1  C   UNL     1       3.916   6.557  17.968  0.00  0.00    +0.000 C 
ATOM      2  O   UNL     1       4.599   5.831  18.698  0.00  0.00    +0.000 OA
ATOM      3  N   UNL     1       2.768   7.208  18.423  0.00  0.00    +0.000 N 
ATOM      4  C   UNL     1       1.921   6.639  19.394  0.00  0.00    +0.000 A 
ATOM      5  N   UNL     1       1.046   7.332  20.063  0.00  0.00    +0.000 NA
ATOM      6  C   UNL     1       0.974   8.712  19.887  0.00  0.00    +0.000 A 
ATOM      7  C   UNL     1       0.122   9.465  20.696  0.00  0.00    +0.000 A 
ATOM      8  C   UNL     1       0.055  10.854  20.557  0.00  0.00    +0.000 A 
ATOM      9  C   UNL     1       0.846  11.503  19.609  0.00  0.00    +0.000 A 
ATOM     10  C   UNL     1       1.687  10.755  18.788  0.00  0.00    +0.000 A 
ATOM     11  C   UNL     1       1.734   9.364  18.930  0.00  0.00    +0.000 A 
ATOM     12  C   UNL     1       2.571   8.539  18.056  0.00  0.00    +0.000 A 
ATOM     13  O   UNL     1       2.946   9.062  17.011  0.00  0.00    +0.000 OA
ENDROOT
BRANCH   4  14
ATOM     14  C   UNL     1       1.940   5.165  19.707  0.00  0.00    +0.000 A 
ATOM     15  C   UNL     1       2.177   4.784  21.040  0.00  0.00    +0.000 A 
ATOM     16  C   UNL     1       2.115   3.444  21.412  0.00  0.00    +0.000 A 
ATOM     17  F   UNL     1       2.316   3.105  22.692  0.00  0.00    +0.000 F 
ATOM     18  C   UNL     1       1.834   2.457  20.482  0.00  0.00    +0.000 A 
ATOM     19  C   UNL     1       1.594   2.835  19.169  0.00  0.00    +0.000 A 
ATOM     20  F   UNL     1       1.308   1.894  18.259  0.00  0.00    +0.000 F 
ATOM     21  C   UNL     1       1.620   4.173  18.774  0.00  0.00    +0.000 A 
ENDBRANCH   4  14
BRANCH   1  22
ATOM     22  C   UNL     1       4.455   6.873  16.573  0.00  0.00    +0.000 C 
BRANCH  22  23
ATOM     23  C   UNL     1       5.108   5.634  15.952  0.00  0.00    +0.000 C 
BRANCH  23  24
ATOM     24  CA  UNL     1       6.633   5.607  16.085  0.00  0.00    +0.000 C 
BRANCH  24  25
ATOM     25  N   UNL     1       7.318   5.436  14.771  0.00  0.00    +0.000 NA
ATOM     26  H1  UNL     1       6.620   5.512  14.028  0.00  0.00    +0.000 HD
ATOM     27  H2  UNL     1       7.652   4.467  14.710  0.00  0.00    +0.000 HD
ENDBRANCH  24  25
BRANCH  24  28
ATOM     28  C   UNL     1       7.092   4.456  17.007  0.00  0.00    +0.000 C 
ATOM     29  O   UNL     1       8.241   4.210  17.332  0.00  0.00    +0.000 OA
BRANCH  28  30
ATOM     30  OXT UNL     1       6.028   3.709  17.409  0.00  0.00    +0.000 OA
ATOM     31  HXT UNL     1       5.700   3.243  16.600  0.00  0.00    +0.000 HD
ENDBRANCH  28  30
ENDBRANCH  24  28
ENDBRANCH  23  24
ENDBRANCH  22  23
ENDBRANCH   1  22
TORSDOF 7
ENDMDL
MODEL 3
REMARK VINA RESULT:      -7.9      0.678      1.502
REMARK  Name = 
REMARK  7 active torsions:
REMARK  status: ('A' for Active; 'I' for Inactive)
REMARK    1  A    between atoms: N_1  and  CA_2
REMARK    2  A    between atoms: CA_2  and  C_3
REMARK    3  A    between atoms: CA_2  and  C_26
REMARK    4  A    between atoms: C_3  and  C_4
REMARK    5  A    between atoms: C_4  and  C_5
REMARK    6  A    between atoms: C_8  and  C_9
REMARK    7  A    between atoms: C_26  and  OXT_28
REMARK                            x       y       z     vdW  Elec       q    Type
REMARK                         _______ _______ _______ _____ _____    ______ ____
ROOT
ATOM      1  C   UNL     1       3.643   6.620  18.469  0.00  0.00    +0.000 C 
ATOM      2  O   UNL     1       4.398   5.800  19.004  0.00  0.00    +0.000 OA
ATOM      3  N   UNL     1       2.472   7.067  19.080  0.00  0.00    +0.000 N 
ATOM      4  C   UNL     1       1.698   6.237  19.913  0.00  0.00    +0.000 A 
ATOM      5  N   UNL     1       0.802   6.697  20.737  0.00  0.00    +0.000 NA
ATOM      6  C   UNL     1       0.632   8.073  20.878  0.00  0.00    +0.000 A 
ATOM      7  C   UNL     1      -0.239   8.562  21.851  0.00  0.00    +0.000 A 
ATOM      8  C   UNL     1      -0.404   9.939  22.029  0.00  0.00    +0.000 A 
ATOM      9  C   UNL     1       0.310  10.838  21.238  0.00  0.00    +0.000 A 
ATOM     10  C   UNL     1       1.170  10.356  20.254  0.00  0.00    +0.000 A 
ATOM     11  C   UNL     1       1.314   8.975  20.079  0.00  0.00    +0.000 A 
ATOM     12  C   UNL     1       2.174   8.429  19.026  0.00  0.00    +0.000 A 
ATOM     13  O   UNL     1       2.477   9.198  18.118  0.00  0.00    +0.000 OA
ENDROOT
BRANCH   4  14
ATOM     14  C   UNL     1       1.825   4.735  19.886  0.00  0.00    +0.000 A 
ATOM     15  C   UNL     1       1.761   4.052  21.114  0.00  0.00    +0.000 A 
ATOM     16  C   UNL     1       1.779   2.661  21.149  0.00  0.00    +0.000 A 
ATOM     17  F   UNL     1       1.690   2.029  22.327  0.00  0.00    +0.000 F 
ATOM     18  C   UNL     1       1.873   1.919  19.984  0.00  0.00    +0.000 A 
ATOM     19  C   UNL     1       1.928   2.593  18.773  0.00  0.00    +0.000 A 
ATOM     20  F   UNL     1       2.007   1.890  17.635  0.00  0.00    +0.000 F 
ATOM     21  C   UNL     1       1.883   3.986  18.706  0.00  0.00    +0.000 A 
ENDBRANCH   4  14
BRANCH   1  22
ATOM     22  C   UNL     1       4.112   7.277  17.172  0.00  0.00    +0.000 C 
BRANCH  22  23
ATOM     23  C   UNL     1       5.192   6.427  16.494  0.00  0.00    +0.000 C 
BRANCH  23  24
ATOM     24  CA  UNL     1       6.508   6.364  17.274  0.00  0.00    +0.000 C 
BRANCH  24  25
ATOM     25  N   UNL     1       7.494   7.385  16.815  0.00  0.00    +0.000 NA
ATOM     26  H1  UNL     1       7.648   7.261  15.812  0.00  0.00    +0.000 HD
ATOM     27  H2  UNL     1       8.402   7.165  17.242  0.00  0.00    +0.000 HD
ENDBRANCH  24  25
BRANCH  24  28
ATOM     28  C   UNL     1       7.171   4.976  17.136  0.00  0.00    +0.000 C 
ATOM     29  O   UNL     1       7.812   4.578  16.178  0.00  0.00    +0.000 OA
BRANCH  28  30
ATOM     30  OXT UNL     1       6.927   4.214  18.237  0.00  0.00    +0.000 OA
ATOM     31  HXT UNL     1       6.357   3.465  17.931  0.00  0.00    +0.000 HD
ENDBRANCH  28  30
ENDBRANCH  24  28
ENDBRANCH  23  24
ENDBRANCH  22  23
ENDBRANCH   1  22
TORSDOF 7
ENDMDL
MODEL 4
REMARK VINA RESULT:      -7.9      1.409      1.561
REMARK  Name = 
REMARK  7 active torsions:
REMARK  status: ('A' for Active; 'I' for Inactive)
REMARK    1  A    between atoms: N_1  and  CA_2
REMARK    2  A    between atoms: CA_2  and  C_3
REMARK    3  A    between atoms: CA_2  and  C_26
REMARK    4  A    between atoms: C_3  and  C_4
REMARK    5  A    between atoms: C_4  and  C_5
REMARK    6  A    between atoms: C_8  and  C_9
REMARK    7  A    between atoms: C_26  and  OXT_28
REMARK                            x       y       z     vdW  Elec       q    Type
REMARK                         _______ _______ _______ _____ _____    ______ ____
ROOT
ATOM      1  C   UNL     1       3.771   6.443  18.162  0.00  0.00    +0.000 C 
ATOM      2  O   UNL     1       4.529   5.687  18.779  0.00  0.00    +0.000 OA
ATOM      3  N   UNL     1       2.630   6.997  18.745  0.00  0.00    +0.000 N 
ATOM      4  C   UNL     1       1.872   6.307  19.710  0.00  0.00    +0.000 A 
ATOM      5  N   UNL     1       1.016   6.896  20.493  0.00  0.00    +0.000 NA
ATOM      6  C   UNL     1       0.877   8.282  20.449  0.00  0.00    +0.000 A 
ATOM      7  C   UNL     1       0.051   8.920  21.374  0.00  0.00    +0.000 A 
ATOM      8  C   UNL     1      -0.081  10.312  21.367  0.00  0.00    +0.000 A 
ATOM      9  C   UNL     1       0.619  11.077  20.435  0.00  0.00    +0.000 A 
ATOM     10  C   UNL     1       1.434  10.445  19.499  0.00  0.00    +0.000 A 
ATOM     11  C   UNL     1       1.545   9.050  19.510  0.00  0.00    +0.000 A 
ATOM     12  C   UNL     1       2.356   8.345  18.514  0.00  0.00    +0.000 A 
ATOM     13  O   UNL     1       2.640   8.975  17.500  0.00  0.00    +0.000 OA
ENDROOT
BRANCH   4  14
ATOM     14  C   UNL     1       1.971   4.812  19.886  0.00  0.00    +0.000 A 
ATOM     15  C   UNL     1       1.753   4.007  18.754  0.00  0.00    +0.000 A 
ATOM     16  C   UNL     1       1.921   2.627  18.827  0.00  0.00    +0.000 A 
ATOM     17  F   UNL     1       1.734   1.880  17.731  0.00  0.00    +0.000 F 
ATOM     18  C   UNL     1       2.292   2.015  20.013  0.00  0.00    +0.000 A 
ATOM     19  C   UNL     1       2.515   2.812  21.126  0.00  0.00    +0.000 A 
ATOM     20  F   UNL     1       2.887   2.237  22.278  0.00  0.00    +0.000 F 
ATOM     21  C   UNL     1       2.382   4.200  21.074  0.00  0.00    +0.000 A 
ENDBRANCH   4  14
BRANCH   1  22
ATOM     22  C   UNL     1       4.203   6.905  16.771  0.00  0.00    +0.000 C 
BRANCH  22  23
ATOM     23  C   UNL     1       5.546   6.276  16.386  0.00  0.00    +0.000 C 
BRANCH  23  24
ATOM     24  CA  UNL     1       5.415   4.926  15.675  0.00  0.00    +0.000 C 
BRANCH  24  25
ATOM     25  N   UNL     1       5.364   3.781  16.630  0.00  0.00    +0.000 NA
ATOM     26  H1  UNL     1       5.744   2.953  16.166  0.00  0.00    +0.000 HD
ATOM     27  H2  UNL     1       4.377   3.551  16.797  0.00  0.00    +0.000 HD
ENDBRANCH  24  25
BRANCH  24  28
ATOM     28  C   UNL     1       6.601   4.686  14.716  0.00  0.00    +0.000 C 
ATOM     29  O   UNL     1       7.578   5.405  14.585  0.00  0.00    +0.000 OA
BRANCH  28  30
ATOM     30  OXT UNL     1       6.411   3.549  13.991  0.00  0.00    +0.000 OA
ATOM     31  HXT UNL     1       5.881   3.816  13.200  0.00  0.00    +0.000 HD
ENDBRANCH  28  30
ENDBRANCH  24  28
ENDBRANCH  23  24
ENDBRANCH  22  23
ENDBRANCH   1  22
TORSDOF 7
ENDMDL
MODEL 5
REMARK VINA RESULT:      -7.8      1.584      2.007
REMARK  Name = 
REMARK  7 active torsions:
REMARK  status: ('A' for Active; 'I' for Inactive)
REMARK    1  A    between atoms: N_1  and  CA_2
REMARK    2  A    between atoms: CA_2  and  C_3
REMARK    3  A    between atoms: CA_2  and  C_26
REMARK    4  A    between atoms: C_3  and  C_4
REMARK    5  A    between atoms: C_4  and  C_5
REMARK    6  A    between atoms: C_8  and  C_9
REMARK    7  A    between atoms: C_26  and  OXT_28
REMARK                            x       y       z     vdW  Elec       q    Type
REMARK                         _______ _______ _______ _____ _____    ______ ____
ROOT
ATOM      1  C   UNL     1       4.060   5.942  18.081  0.00  0.00    +0.000 C 
ATOM      2  O   UNL     1       4.598   5.271  18.968  0.00  0.00    +0.000 OA
ATOM      3  N   UNL     1       2.983   6.791  18.335  0.00  0.00    +0.000 N 
ATOM      4  C   UNL     1       2.012   6.497  19.312  0.00  0.00    +0.000 A 
ATOM      5  N   UNL     1       1.197   7.390  19.792  0.00  0.00    +0.000 NA
ATOM      6  C   UNL     1       1.316   8.721  19.397  0.00  0.00    +0.000 A 
ATOM      7  C   UNL     1       0.523   9.693  20.006  0.00  0.00    +0.000 A 
ATOM      8  C   UNL     1       0.646  11.038  19.645  0.00  0.00    +0.000 A 
ATOM      9  C   UNL     1       1.570  11.422  18.675  0.00  0.00    +0.000 A 
ATOM     10  C   UNL     1       2.354  10.453  18.051  0.00  0.00    +0.000 A 
ATOM     11  C   UNL     1       2.210   9.110  18.413  0.00  0.00    +0.000 A 
ATOM     12  C   UNL     1       2.983   8.057  17.749  0.00  0.00    +0.000 A 
ATOM     13  O   UNL     1       3.485   8.351  16.668  0.00  0.00    +0.000 OA
ENDROOT
BRANCH   4  14
ATOM     14  C   UNL     1       1.820   5.103  19.853  0.00  0.00    +0.000 A 
ATOM     15  C   UNL     1       1.315   4.126  18.976  0.00  0.00    +0.000 A 
ATOM     16  C   UNL     1       1.202   2.801  19.386  0.00  0.00    +0.000 A 
ATOM     17  F   UNL     1       0.745   1.881  18.526  0.00  0.00    +0.000 F 
ATOM     18  C   UNL     1       1.569   2.416  20.664  0.00  0.00    +0.000 A 
ATOM     19  C   UNL     1       2.073   3.378  21.526  0.00  0.00    +0.000 A 
ATOM     20  F   UNL     1       2.444   3.020  22.763  0.00  0.00    +0.000 F 
ATOM     21  C   UNL     1       2.225   4.709  21.132  0.00  0.00    +0.000 A 
ENDBRANCH   4  14
BRANCH   1  22
ATOM     22  C   UNL     1       4.718   5.956  16.702  0.00  0.00    +0.000 C 
BRANCH  22  23
ATOM     23  C   UNL     1       4.716   4.552  16.088  0.00  0.00    +0.000 C 
BRANCH  23  24
ATOM     24  CA  UNL     1       6.109   3.930  15.963  0.00  0.00    +0.000 C 
BRANCH  24  25
ATOM     25  N   UNL     1       7.000   4.290  17.104  0.00  0.00    +0.000 NA
ATOM     26  H1  UNL     1       7.421   3.435  17.471  0.00  0.00    +0.000 HD
ATOM     27  H2  UNL     1       6.410   4.634  17.872  0.00  0.00    +0.000 HD
ENDBRANCH  24  25
BRANCH  24  28
ATOM     28  C   UNL     1       6.806   4.383  14.662  0.00  0.00    +0.000 C 
ATOM     29  O   UNL     1       7.557   5.337  14.543  0.00  0.00    +0.000 OA
BRANCH  28  30
ATOM     30  OXT UNL     1       6.453   3.580  13.621  0.00  0.00    +0.000 OA
ATOM     31  HXT UNL     1       7.246   3.021  13.426  0.00  0.00    +0.000 HD
ENDBRANCH  28  30
ENDBRANCH  24  28
ENDBRANCH  23  24
ENDBRANCH  22  23
ENDBRANCH   1  22
TORSDOF 7
ENDMDL
MODEL 6
REMARK VINA RESULT:      -7.8      1.210      1.874
REMARK  Name = 
REMARK  7 active torsions:
REMARK  status: ('A' for Active; 'I' for Inactive)
REMARK    1  A    between atoms: N_1  and  CA_2
REMARK    2  A    between atoms: CA_2  and  C_3
REMARK    3  A    between atoms: CA_2  and  C_26
REMARK    4  A    between atoms: C_3  and  C_4
REMARK    5  A    between atoms: C_4  and  C_5
REMARK    6  A    between atoms: C_8  and  C_9
REMARK    7  A    between atoms: C_26  and  OXT_28
REMARK                            x       y       z     vdW  Elec       q    Type
REMARK                         _______ _______ _______ _____ _____    ______ ____
ROOT
ATOM      1  C   UNL     1       3.687   6.514  18.372  0.00  0.00    +0.000 C 
ATOM      2  O   UNL     1       4.439   5.702  18.921  0.00  0.00    +0.000 OA
ATOM      3  N   UNL     1       2.524   6.987  18.981  0.00  0.00    +0.000 N 
ATOM      4  C   UNL     1       1.751   6.184  19.841  0.00  0.00    +0.000 A 
ATOM      5  N   UNL     1       0.866   6.672  20.661  0.00  0.00    +0.000 NA
ATOM      6  C   UNL     1       0.709   8.052  20.770  0.00  0.00    +0.000 A 
ATOM      7  C   UNL     1      -0.150   8.573  21.737  0.00  0.00    +0.000 A 
ATOM      8  C   UNL     1      -0.302   9.955  21.882  0.00  0.00    +0.000 A 
ATOM      9  C   UNL     1       0.412  10.828  21.063  0.00  0.00    +0.000 A 
ATOM     10  C   UNL     1       1.260  10.314  20.084  0.00  0.00    +0.000 A 
ATOM     11  C   UNL     1       1.391   8.928  19.942  0.00  0.00    +0.000 A 
ATOM     12  C   UNL     1       2.237   8.349  18.896  0.00  0.00    +0.000 A 
ATOM     13  O   UNL     1       2.539   9.093  17.967  0.00  0.00    +0.000 OA
ENDROOT
BRANCH   4  14
ATOM     14  C   UNL     1       1.866   4.680  19.850  0.00  0.00    +0.000 A 
ATOM     15  C   UNL     1       1.778   4.027  21.093  0.00  0.00    +0.000 A 
ATOM     16  C   UNL     1       1.783   2.636  21.160  0.00  0.00    +0.000 A 
ATOM     17  F   UNL     1       1.671   2.033  22.350  0.00  0.00    +0.000 F 
ATOM     18  C   UNL     1       1.888   1.867  20.013  0.00  0.00    +0.000 A 
ATOM     19  C   UNL     1       1.967   2.513  18.788  0.00  0.00    +0.000 A 
ATOM     20  F   UNL     1       2.056   1.783  17.668  0.00  0.00    +0.000 F 
ATOM     21  C   UNL     1       1.934   3.904  18.689  0.00  0.00    +0.000 A 
ENDBRANCH   4  14
BRANCH   1  22
ATOM     22  C   UNL     1       4.150   7.135  17.054  0.00  0.00    +0.000 C 
BRANCH  22  23
ATOM     23  C   UNL     1       5.570   6.674  16.709  0.00  0.00    +0.000 C 
BRANCH  23  24
ATOM     24  CA  UNL     1       5.617   5.521  15.703  0.00  0.00    +0.000 C 
BRANCH  24  25
ATOM     25  N   UNL     1       4.953   4.288  16.216  0.00  0.00    +0.000 NA
ATOM     26  H1  UNL     1       5.072   4.252  17.231  0.00  0.00    +0.000 HD
ATOM     27  H2  UNL     1       5.478   3.476  15.869  0.00  0.00    +0.000 HD
ENDBRANCH  24  25
BRANCH  24  28
ATOM     28  C   UNL     1       7.074   5.155  15.344  0.00  0.00    +0.000 C 
ATOM     29  O   UNL     1       7.639   5.403  14.292  0.00  0.00    +0.000 OA
BRANCH  28  30
ATOM     30  OXT UNL     1       7.667   4.481  16.367  0.00  0.00    +0.000 OA
ATOM     31  HXT UNL     1       8.503   4.103  15.997  0.00  0.00    +0.000 HD
ENDBRANCH  28  30
ENDBRANCH  24  28
ENDBRANCH  23  24
ENDBRANCH  22  23
ENDBRANCH   1  22
TORSDOF 7
ENDMDL
MODEL 7
REMARK VINA RESULT:      -7.8      1.539      2.293
REMARK  Name = 
REMARK  7 active torsions:
REMARK  status: ('A' for Active; 'I' for Inactive)
REMARK    1  A    between atoms: N_1  and  CA_2
REMARK    2  A    between atoms: CA_2  and  C_3
REMARK    3  A    between atoms: CA_2  and  C_26
REMARK    4  A    between atoms: C_3  and  C_4
REMARK    5  A    between atoms: C_4  and  C_5
REMARK    6  A    between atoms: C_8  and  C_9
REMARK    7  A    between atoms: C_26  and  OXT_28
REMARK                            x       y       z     vdW  Elec       q    Type
REMARK                         _______ _______ _______ _____ _____    ______ ____
ROOT
ATOM      1  C   UNL     1       3.816   6.514  17.943  0.00  0.00    +0.000 C 
ATOM      2  O   UNL     1       4.516   5.773  18.643  0.00  0.00    +0.000 OA
ATOM      3  N   UNL     1       2.701   7.184  18.447  0.00  0.00    +0.000 N 
ATOM      4  C   UNL     1       1.885   6.630  19.452  0.00  0.00    +0.000 A 
ATOM      5  N   UNL     1       1.052   7.337  20.158  0.00  0.00    +0.000 NA
ATOM      6  C   UNL     1       0.998   8.719  19.988  0.00  0.00    +0.000 A 
ATOM      7  C   UNL     1       0.196   9.485  20.833  0.00  0.00    +0.000 A 
ATOM      8  C   UNL     1       0.148  10.876  20.698  0.00  0.00    +0.000 A 
ATOM      9  C   UNL     1       0.910  11.511  19.719  0.00  0.00    +0.000 A 
ATOM     10  C   UNL     1       1.702  10.750  18.862  0.00  0.00    +0.000 A 
ATOM     11  C   UNL     1       1.729   9.358  19.001  0.00  0.00    +0.000 A 
ATOM     12  C   UNL     1       2.513   8.520  18.091  0.00  0.00    +0.000 A 
ATOM     13  O   UNL     1       2.853   9.038  17.031  0.00  0.00    +0.000 OA
ENDROOT
BRANCH   4  14
ATOM     14  C   UNL     1       1.890   5.154  19.762  0.00  0.00    +0.000 A 
ATOM     15  C   UNL     1       2.194   4.765  21.079  0.00  0.00    +0.000 A 
ATOM     16  C   UNL     1       2.125   3.426  21.453  0.00  0.00    +0.000 A 
ATOM     17  F   UNL     1       2.391   3.080  22.719  0.00  0.00    +0.000 F 
ATOM     18  C   UNL     1       1.769   2.448  20.539  0.00  0.00    +0.000 A 
ATOM     19  C   UNL     1       1.463   2.833  19.243  0.00  0.00    +0.000 A 
ATOM     20  F   UNL     1       1.105   1.901  18.349  0.00  0.00    +0.000 F 
ATOM     21  C   UNL     1       1.496   4.172  18.848  0.00  0.00    +0.000 A 
ENDBRANCH   4  14
BRANCH   1  22
ATOM     22  C   UNL     1       4.301   6.823  16.527  0.00  0.00    +0.000 C 
BRANCH  22  23
ATOM     23  C   UNL     1       5.654   6.152  16.261  0.00  0.00    +0.000 C 
BRANCH  23  24
ATOM     24  CA  UNL     1       5.542   4.782  15.588  0.00  0.00    +0.000 C 
BRANCH  24  25
ATOM     25  N   UNL     1       5.624   3.658  16.565  0.00  0.00    +0.000 NA
ATOM     26  H1  UNL     1       6.074   3.999  17.417  0.00  0.00    +0.000 HD
ATOM     27  H2  UNL     1       6.279   2.960  16.193  0.00  0.00    +0.000 HD
ENDBRANCH  24  25
BRANCH  24  28
ATOM     28  C   UNL     1       6.665   4.581  14.546  0.00  0.00    +0.000 C 
ATOM     29  O   UNL     1       7.636   5.301  14.389  0.00  0.00    +0.000 OA
BRANCH  28  30
ATOM     30  OXT UNL     1       6.422   3.482  13.782  0.00  0.00    +0.000 OA
ATOM     31  HXT UNL     1       7.265   2.965  13.770  0.00  0.00    +0.000 HD
ENDBRANCH  28  30
ENDBRANCH  24  28
ENDBRANCH  23  24
ENDBRANCH  22  23
ENDBRANCH   1  22
TORSDOF 7
ENDMDL
MODEL 8
REMARK VINA RESULT:      -7.7      0.980      1.048
REMARK  Name = 
REMARK  7 active torsions:
REMARK  status: ('A' for Active; 'I' for Inactive)
REMARK    1  A    between atoms: N_1  and  CA_2
REMARK    2  A    between atoms: CA_2  and  C_3
REMARK    3  A    between atoms: CA_2  and  C_26
REMARK    4  A    between atoms: C_3  and  C_4
REMARK    5  A    between atoms: C_4  and  C_5
REMARK    6  A    between atoms: C_8  and  C_9
REMARK    7  A    between atoms: C_26  and  OXT_28
REMARK                            x       y       z     vdW  Elec       q    Type
REMARK                         _______ _______ _______ _____ _____    ______ ____
ROOT
ATOM      1  C   UNL     1       3.473   6.459  18.662  0.00  0.00    +0.000 C 
ATOM      2  O   UNL     1       4.216   5.664  19.247  0.00  0.00    +0.000 OA
ATOM      3  N   UNL     1       2.351   7.021  19.273  0.00  0.00    +0.000 N 
ATOM      4  C   UNL     1       1.583   6.318  20.221  0.00  0.00    +0.000 A 
ATOM      5  N   UNL     1       0.748   6.901  21.029  0.00  0.00    +0.000 NA
ATOM      6  C   UNL     1       0.643   8.291  21.033  0.00  0.00    +0.000 A 
ATOM      7  C   UNL     1      -0.160   8.917  21.986  0.00  0.00    +0.000 A 
ATOM      8  C   UNL     1      -0.258  10.312  22.026  0.00  0.00    +0.000 A 
ATOM      9  C   UNL     1       0.454  11.090  21.115  0.00  0.00    +0.000 A 
ATOM     10  C   UNL     1       1.246  10.470  20.151  0.00  0.00    +0.000 A 
ATOM     11  C   UNL     1       1.323   9.073  20.115  0.00  0.00    +0.000 A 
ATOM     12  C   UNL     1       2.108   8.383  19.089  0.00  0.00    +0.000 A 
ATOM     13  O   UNL     1       2.400   9.039  18.094  0.00  0.00    +0.000 OA
ENDROOT
BRANCH   4  14
ATOM     14  C   UNL     1       1.646   4.816  20.345  0.00  0.00    +0.000 A 
ATOM     15  C   UNL     1       0.955   4.052  19.387  0.00  0.00    +0.000 A 
ATOM     16  C   UNL     1       1.050   2.664  19.391  0.00  0.00    +0.000 A 
ATOM     17  F   UNL     1       0.406   1.956  18.454  0.00  0.00    +0.000 F 
ATOM     18  C   UNL     1       1.811   2.003  20.340  0.00  0.00    +0.000 A 
ATOM     19  C   UNL     1       2.498   2.757  21.280  0.00  0.00    +0.000 A 
ATOM     20  F   UNL     1       3.250   2.135  22.198  0.00  0.00    +0.000 F 
ATOM     21  C   UNL     1       2.445   4.152  21.281  0.00  0.00    +0.000 A 
ENDBRANCH   4  14
BRANCH   1  22
ATOM     22  C   UNL     1       3.906   6.957  17.284  0.00  0.00    +0.000 C 
BRANCH  22  23
ATOM     23  C   UNL     1       4.826   5.937  16.605  0.00  0.00    +0.000 C 
BRANCH  23  24
ATOM     24  CA  UNL     1       6.168   6.519  16.153  0.00  0.00    +0.000 C 
BRANCH  24  25
ATOM     25  N   UNL     1       7.037   5.502  15.491  0.00  0.00    +0.000 NA
ATOM     26  H1  UNL     1       8.013   5.780  15.613  0.00  0.00    +0.000 HD
ATOM     27  H2  UNL     1       6.879   5.561  14.478  0.00  0.00    +0.000 HD
ENDBRANCH  24  25
BRANCH  24  28
ATOM     28  C   UNL     1       6.953   7.101  17.349  0.00  0.00    +0.000 C 
ATOM     29  O   UNL     1       7.464   8.207  17.403  0.00  0.00    +0.000 OA
BRANCH  28  30
ATOM     30  OXT UNL     1       7.029   6.194  18.362  0.00  0.00    +0.000 OA
ATOM     31  HXT UNL     1       6.793   5.320  17.964  0.00  0.00    +0.000 HD
ENDBRANCH  28  30
ENDBRANCH  24  28
ENDBRANCH  23  24
ENDBRANCH  22  23
ENDBRANCH   1  22
TORSDOF 7
ENDMDL
MODEL 9
REMARK VINA RESULT:      -7.7      3.049      5.780
REMARK  Name = 
REMARK  7 active torsions:
REMARK  status: ('A' for Active; 'I' for Inactive)
REMARK    1  A    between atoms: N_1  and  CA_2
REMARK    2  A    between atoms: CA_2  and  C_3
REMARK    3  A    between atoms: CA_2  and  C_26
REMARK    4  A    between atoms: C_3  and  C_4
REMARK    5  A    between atoms: C_4  and  C_5
REMARK    6  A    between atoms: C_8  and  C_9
REMARK    7  A    between atoms: C_26  and  OXT_28
REMARK                            x       y       z     vdW  Elec       q    Type
REMARK                         _______ _______ _______ _____ _____    ______ ____
ROOT
ATOM      1  C   UNL     1       3.689   4.297  18.846  0.00  0.00    +0.000 C 
ATOM      2  O   UNL     1       3.715   3.566  17.850  0.00  0.00    +0.000 OA
ATOM      3  N   UNL     1       3.579   5.685  18.752  0.00  0.00    +0.000 N 
ATOM      4  C   UNL     1       4.149   6.411  17.688  0.00  0.00    +0.000 A 
ATOM      5  N   UNL     1       3.804   7.631  17.397  0.00  0.00    +0.000 NA
ATOM      6  C   UNL     1       2.773   8.247  18.105  0.00  0.00    +0.000 A 
ATOM      7  C   UNL     1       2.323   9.506  17.709  0.00  0.00    +0.000 A 
ATOM      8  C   UNL     1       1.271  10.130  18.387  0.00  0.00    +0.000 A 
ATOM      9  C   UNL     1       0.656   9.493  19.464  0.00  0.00    +0.000 A 
ATOM     10  C   UNL     1       1.111   8.242  19.874  0.00  0.00    +0.000 A 
ATOM     11  C   UNL     1       2.174   7.636  19.194  0.00  0.00    +0.000 A 
ATOM     12  C   UNL     1       2.710   6.342  19.623  0.00  0.00    +0.000 A 
ATOM     13  O   UNL     1       2.432   5.990  20.766  0.00  0.00    +0.000 OA
ENDROOT
BRANCH   4  14
ATOM     14  C   UNL     1       5.239   5.834  16.820  0.00  0.00    +0.000 A 
ATOM     15  C   UNL     1       6.380   5.320  17.462  0.00  0.00    +0.000 A 
ATOM     16  C   UNL     1       7.380   4.691  16.725  0.00  0.00    +0.000 A 
ATOM     17  F   UNL     1       8.446   4.184  17.358  0.00  0.00    +0.000 F 
ATOM     18  C   UNL     1       7.282   4.567  15.349  0.00  0.00    +0.000 A 
ATOM     19  C   UNL     1       6.153   5.067  14.719  0.00  0.00    +0.000 A 
ATOM     20  F   UNL     1       6.036   4.945  13.390  0.00  0.00    +0.000 F 
ATOM     21  C   UNL     1       5.122   5.677  15.436  0.00  0.00    +0.000 A 
ENDBRANCH   4  14
BRANCH   1  22
ATOM     22  C   UNL     1       3.610   3.630  20.218  0.00  0.00    +0.000 C 
BRANCH  22  23
ATOM     23  C   UNL     1       3.290   2.137  20.075  0.00  0.00    +0.000 C 
BRANCH  23  24
ATOM     24  CA  UNL     1       1.793   1.820  20.110  0.00  0.00    +0.000 C 
BRANCH  24  25
ATOM     25  N   UNL     1       1.154   1.936  18.768  0.00  0.00    +0.000 NA
ATOM     26  H1  UNL     1       1.390   2.848  18.372  0.00  0.00    +0.000 HD
ATOM     27  H2  UNL     1       0.136   1.971  18.902  0.00  0.00    +0.000 HD
ENDBRANCH  24  25
BRANCH  24  28
ATOM     28  C   UNL     1       1.045   2.770  21.071  0.00  0.00    +0.000 C 
ATOM     29  O   UNL     1       1.039   2.702  22.289  0.00  0.00    +0.000 OA
BRANCH  28  30
ATOM     30  OXT UNL     1       0.351   3.711  20.374  0.00  0.00    +0.000 OA
ATOM     31  HXT UNL     1       0.212   4.465  20.998  0.00  0.00    +0.000 HD
ENDBRANCH  28  30
ENDBRANCH  24  28
ENDBRANCH  23  24
ENDBRANCH  22  23
ENDBRANCH   1  22
TORSDOF 7
ENDMDL
