MODEL 1
REMARK VINA RESULT:      -6.9      0.000      0.000
REMARK  Name = 
REMARK  7 active torsions:
REMARK  status: ('A' for Active; 'I' for Inactive)
REMARK    1  A    between atoms: C_1  and  C_2
REMARK    2  A    between atoms: C_2  and  O_3
REMARK    3  A    between atoms: O_3  and  C_4
REMARK    4  A    between atoms: N_9  and  S_10
REMARK    5  A    between atoms: S_10  and  C_13
REMARK    6  A    between atoms: C_16  and  O_17
REMARK    7  A    between atoms: O_17  and  C_18
REMARK                            x       y       z     vdW  Elec       q    Type
REMARK                         _______ _______ _______ _____ _____    ______ ____
ROOT
ATOM      1  S   UNL     1       3.936   3.231  18.704  0.00  0.00    +0.000 S 
ATOM      2  O   UNL     1       4.332   3.585  20.052  0.00  0.00    +0.000 OA
ATOM      3  O   UNL     1       3.778   1.837  18.350  0.00  0.00    +0.000 OA
ENDROOT
BRANCH   1   9
ATOM      4  C   UNL     1       1.709   7.661  20.360  0.00  0.00    +0.000 C 
ATOM      5  O   UNL     1       1.092   7.678  21.417  0.00  0.00    +0.000 OA
ATOM      6  N   UNL     1       2.192   6.512  19.779  0.00  0.00    +0.000 N 
ATOM      7  C   UNL     1       1.926   5.240  20.442  0.00  0.00    +0.000 C 
ATOM      8  C   UNL     1       1.476   4.184  19.436  0.00  0.00    +0.000 C 
ATOM      9  N   UNL     1       2.467   4.024  18.328  0.00  0.00    +0.000 NA
ATOM     10  C   UNL     1       2.614   5.339  17.610  0.00  0.00    +0.000 C 
ATOM     11  C   UNL     1       3.028   6.475  18.567  0.00  0.00    +0.000 C 
BRANCH   4  12
ATOM     12  O   UNL     1       1.875   8.745  19.563  0.00  0.00    +0.000 OA
BRANCH  12  14
ATOM     13  C   UNL     1       1.197  10.925  18.869  0.00  0.00    +0.000 C 
ATOM     14  C   UNL     1       0.763   9.646  19.572  0.00  0.00    +0.000 C 
ENDBRANCH  12  14
ENDBRANCH   4  12
ENDBRANCH   1   9
BRANCH   1  15
ATOM     15  C   UNL     1       5.114   3.927  17.565  0.00  0.00    +0.000 A 
ATOM     16  C   UNL     1       5.046   3.504  16.233  0.00  0.00    +0.000 A 
ATOM     17  C   UNL     1       5.849   4.104  15.268  0.00  0.00    +0.000 A 
ATOM     18  C   UNL     1       6.723   5.157  15.593  0.00  0.00    +0.000 A 
ATOM     19  C   UNL     1       6.798   5.579  16.934  0.00  0.00    +0.000 A 
ATOM     20 CL   UNL     1       7.794   6.923  17.422  0.00  0.00    +0.000 Cl
ATOM     21  C   UNL     1       6.006   4.944  17.931  0.00  0.00    +0.000 A 
ATOM     22 CL   UNL     1       6.118   5.464  19.588  0.00  0.00    +0.000 Cl
BRANCH  18  23
ATOM     23  O   UNL     1       7.365   5.591  14.467  0.00  0.00    +0.000 OA
ATOM     24  C   UNL     1       7.366   4.840  13.265  0.00  0.00    +0.000 C 
ENDBRANCH  18  23
ENDBRANCH   1  15
TORSDOF 5
ENDMDL
MODEL 2
REMARK VINA RESULT:      -6.7      1.727      2.235
REMARK  Name = 
REMARK  7 active torsions:
REMARK  status: ('A' for Active; 'I' for Inactive)
REMARK    1  A    between atoms: C_1  and  C_2
REMARK    2  A    between atoms: C_2  and  O_3
REMARK    3  A    between atoms: O_3  and  C_4
REMARK    4  A    between atoms: N_9  and  S_10
REMARK    5  A    between atoms: S_10  and  C_13
REMARK    6  A    between atoms: C_16  and  O_17
REMARK    7  A    between atoms: O_17  and  C_18
REMARK                            x       y       z     vdW  Elec       q    Type
REMARK                         _______ _______ _______ _____ _____    ______ ____
ROOT
ATOM      1  S   UNL     1       3.558   2.844  18.970  0.00  0.00    +0.000 S 
ATOM      2  O   UNL     1       3.716   2.534  20.376  0.00  0.00    +0.000 OA
ATOM      3  O   UNL     1       3.639   1.780  17.993  0.00  0.00    +0.000 OA
ENDROOT
BRANCH   1   9
ATOM      4  C   UNL     1       1.749   7.570  20.277  0.00  0.00    +0.000 C 
ATOM      5  O   UNL     1       1.333   7.775  21.411  0.00  0.00    +0.000 OA
ATOM      6  N   UNL     1       2.098   6.325  19.808  0.00  0.00    +0.000 N 
ATOM      7  C   UNL     1       1.932   5.182  20.698  0.00  0.00    +0.000 C 
ATOM      8  C   UNL     1       1.289   4.008  19.965  0.00  0.00    +0.000 C 
ATOM      9  N   UNL     1       2.060   3.638  18.739  0.00  0.00    +0.000 NA
ATOM     10  C   UNL     1       2.099   4.821  17.809  0.00  0.00    +0.000 C 
ATOM     11  C   UNL     1       2.701   6.068  18.489  0.00  0.00    +0.000 C 
BRANCH   4  12
ATOM     12  O   UNL     1       1.788   8.513  19.304  0.00  0.00    +0.000 OA
BRANCH  12  14
ATOM     13  C   UNL     1       0.218   9.984  18.273  0.00  0.00    +0.000 C 
ATOM     14  C   UNL     1       0.954   9.647  19.562  0.00  0.00    +0.000 C 
ENDBRANCH  12  14
ENDBRANCH   4  12
ENDBRANCH   1   9
BRANCH   1  15
ATOM     15  C   UNL     1       4.775   4.061  18.516  0.00  0.00    +0.000 A 
ATOM     16  C   UNL     1       5.390   4.772  19.552  0.00  0.00    +0.000 A 
ATOM     17  C   UNL     1       6.440   5.642  19.274  0.00  0.00    +0.000 A 
ATOM     18  C   UNL     1       6.924   5.811  17.964  0.00  0.00    +0.000 A 
ATOM     19  C   UNL     1       6.302   5.102  16.920  0.00  0.00    +0.000 A 
ATOM     20 CL   UNL     1       6.877   5.189  15.278  0.00  0.00    +0.000 Cl
ATOM     21  C   UNL     1       5.204   4.240  17.194  0.00  0.00    +0.000 A 
ATOM     22 CL   UNL     1       4.432   3.380  15.892  0.00  0.00    +0.000 Cl
BRANCH  18  23
ATOM     23  O   UNL     1       7.975   6.686  17.969  0.00  0.00    +0.000 OA
ATOM     24  C   UNL     1       7.816   8.053  17.631  0.00  0.00    +0.000 C 
ENDBRANCH  18  23
ENDBRANCH   1  15
TORSDOF 5
ENDMDL
MODEL 3
REMARK VINA RESULT:      -6.3      4.869      7.582
REMARK  Name = 
REMARK  7 active torsions:
REMARK  status: ('A' for Active; 'I' for Inactive)
REMARK    1  A    between atoms: C_1  and  C_2
REMARK    2  A    between atoms: C_2  and  O_3
REMARK    3  A    between atoms: O_3  and  C_4
REMARK    4  A    between atoms: N_9  and  S_10
REMARK    5  A    between atoms: S_10  and  C_13
REMARK    6  A    between atoms: C_16  and  O_17
REMARK    7  A    between atoms: O_17  and  C_18
REMARK                            x       y       z     vdW  Elec       q    Type
REMARK                         _______ _______ _______ _____ _____    ______ ____
ROOT
ATOM      1  S   UNL     1       0.536  10.911  20.064  0.00  0.00    +0.000 S 
ATOM      2  O   UNL     1       1.290  11.324  21.229  0.00  0.00    +0.000 OA
ATOM      3  O   UNL     1      -0.890  10.693  20.178  0.00  0.00    +0.000 OA
ENDROOT
BRANCH   1   9
ATOM      4  C   UNL     1       0.166  16.118  19.804  0.00  0.00    +0.000 C 
ATOM      5  O   UNL     1      -0.928  16.648  19.654  0.00  0.00    +0.000 OA
ATOM      6  N   UNL     1       0.371  14.760  19.730  0.00  0.00    +0.000 N 
ATOM      7  C   UNL     1      -0.772  13.907  19.423  0.00  0.00    +0.000 C 
ATOM      8  C   UNL     1      -0.403  12.855  18.381  0.00  0.00    +0.000 C 
ATOM      9  N   UNL     1       0.781  12.049  18.809  0.00  0.00    +0.000 NA
ATOM     10  C   UNL     1       1.957  12.969  18.999  0.00  0.00    +0.000 C 
ATOM     11  C   UNL     1       1.652  14.091  20.012  0.00  0.00    +0.000 C 
BRANCH   4  12
ATOM     12  O   UNL     1       1.329  16.805  19.923  0.00  0.00    +0.000 OA
BRANCH  12  14
ATOM     13  C   UNL     1       2.305  17.021  17.758  0.00  0.00    +0.000 C 
ATOM     14  C   UNL     1       1.558  17.745  18.869  0.00  0.00    +0.000 C 
ENDBRANCH  12  14
ENDBRANCH   4  12
ENDBRANCH   1   9
BRANCH   1  15
ATOM     15  C   UNL     1       1.244   9.404  19.433  0.00  0.00    +0.000 A 
ATOM     16  C   UNL     1       1.820   9.449  18.159  0.00  0.00    +0.000 A 
ATOM     17  C   UNL     1       2.505   8.344  17.664  0.00  0.00    +0.000 A 
ATOM     18  C   UNL     1       2.657   7.173  18.427  0.00  0.00    +0.000 A 
ATOM     19  C   UNL     1       2.072   7.123  19.707  0.00  0.00    +0.000 A 
ATOM     20 CL   UNL     1       2.269   5.747  20.757  0.00  0.00    +0.000 Cl
ATOM     21  C   UNL     1       1.340   8.237  20.204  0.00  0.00    +0.000 A 
ATOM     22 CL   UNL     1       0.607   8.158  21.780  0.00  0.00    +0.000 Cl
BRANCH  18  23
ATOM     23  O   UNL     1       3.396   6.257  17.730  0.00  0.00    +0.000 OA
ATOM     24  C   UNL     1       4.747   5.979  18.053  0.00  0.00    +0.000 C 
ENDBRANCH  18  23
ENDBRANCH   1  15
TORSDOF 5
ENDMDL
MODEL 4
REMARK VINA RESULT:      -6.2      2.518      5.819
REMARK  Name = 
REMARK  7 active torsions:
REMARK  status: ('A' for Active; 'I' for Inactive)
REMARK    1  A    between atoms: C_1  and  C_2
REMARK    2  A    between atoms: C_2  and  O_3
REMARK    3  A    between atoms: O_3  and  C_4
REMARK    4  A    between atoms: N_9  and  S_10
REMARK    5  A    between atoms: S_10  and  C_13
REMARK    6  A    between atoms: C_16  and  O_17
REMARK    7  A    between atoms: O_17  and  C_18
REMARK                            x       y       z     vdW  Elec       q    Type
REMARK                         _______ _______ _______ _____ _____    ______ ____
ROOT
ATOM      1  S   UNL     1       2.353   4.047  18.284  0.00  0.00    +0.000 S 
ATOM      2  O   UNL     1       2.070   3.851  16.877  0.00  0.00    +0.000 OA
ATOM      3  O   UNL     1       1.528   3.391  19.275  0.00  0.00    +0.000 OA
ENDROOT
BRANCH   1   9
ATOM      4  C   UNL     1       6.968   5.982  16.774  0.00  0.00    +0.000 C 
ATOM      5  O   UNL     1       7.422   5.695  15.673  0.00  0.00    +0.000 OA
ATOM      6  N   UNL     1       5.842   5.399  17.308  0.00  0.00    +0.000 N 
ATOM      7  C   UNL     1       5.171   4.361  16.535  0.00  0.00    +0.000 C 
ATOM      8  C   UNL     1       4.800   3.175  17.422  0.00  0.00    +0.000 C 
ATOM      9  N   UNL     1       3.976   3.602  18.593  0.00  0.00    +0.000 NA
ATOM     10  C   UNL     1       4.765   4.586  19.414  0.00  0.00    +0.000 C 
ATOM     11  C   UNL     1       5.216   5.802  18.579  0.00  0.00    +0.000 C 
BRANCH   4  12
ATOM     12  O   UNL     1       7.589   6.801  17.658  0.00  0.00    +0.000 OA
BRANCH  12  14
ATOM     13  C   UNL     1       8.428   8.974  18.172  0.00  0.00    +0.000 C 
ATOM     14  C   UNL     1       7.366   8.193  17.412  0.00  0.00    +0.000 C 
ENDBRANCH  12  14
ENDBRANCH   4  12
ENDBRANCH   1   9
BRANCH   1  15
ATOM     15  C   UNL     1       2.302   5.791  18.636  0.00  0.00    +0.000 A 
ATOM     16  C   UNL     1       2.359   6.668  17.547  0.00  0.00    +0.000 A 
ATOM     17  C   UNL     1       2.192   8.036  17.744  0.00  0.00    +0.000 A 
ATOM     18  C   UNL     1       1.940   8.568  19.021  0.00  0.00    +0.000 A 
ATOM     19  C   UNL     1       1.889   7.687  20.119  0.00  0.00    +0.000 A 
ATOM     20 CL   UNL     1       1.509   8.241  21.726  0.00  0.00    +0.000 Cl
ATOM     21  C   UNL     1       2.095   6.293  19.929  0.00  0.00    +0.000 A 
ATOM     22 CL   UNL     1       2.046   5.216  21.295  0.00  0.00    +0.000 Cl
BRANCH  18  23
ATOM     23  O   UNL     1       1.780   9.923  18.936  0.00  0.00    +0.000 OA
ATOM     24  C   UNL     1       0.681  10.589  19.533  0.00  0.00    +0.000 C 
ENDBRANCH  18  23
ENDBRANCH   1  15
TORSDOF 5
ENDMDL
MODEL 5
REMARK VINA RESULT:      -6.1      5.889     10.512
REMARK  Name = 
REMARK  7 active torsions:
REMARK  status: ('A' for Active; 'I' for Inactive)
REMARK    1  A    between atoms: C_1  and  C_2
REMARK    2  A    between atoms: C_2  and  O_3
REMARK    3  A    between atoms: O_3  and  C_4
REMARK    4  A    between atoms: N_9  and  S_10
REMARK    5  A    between atoms: S_10  and  C_13
REMARK    6  A    between atoms: C_16  and  O_17
REMARK    7  A    between atoms: O_17  and  C_18
REMARK                            x       y       z     vdW  Elec       q    Type
REMARK                         _______ _______ _______ _____ _____    ______ ____
ROOT
ATOM      1  S   UNL     1      -0.209  10.991  22.093  0.00  0.00    +0.000 S 
ATOM      2  O   UNL     1       0.076  10.353  23.362  0.00  0.00    +0.000 OA
ATOM      3  O   UNL     1       0.817  11.782  21.447  0.00  0.00    +0.000 OA
ENDROOT
BRANCH   1   9
ATOM      4  C   UNL     1       2.253   8.224  18.405  0.00  0.00    +0.000 C 
ATOM      5  O   UNL     1       2.471   8.724  17.307  0.00  0.00    +0.000 OA
ATOM      6  N   UNL     1       1.482   8.823  19.373  0.00  0.00    +0.000 N 
ATOM      7  C   UNL     1       0.863  10.107  19.065  0.00  0.00    +0.000 C 
ATOM      8  C   UNL     1      -0.593  10.135  19.521  0.00  0.00    +0.000 C 
ATOM      9  N   UNL     1      -0.720   9.802  20.974  0.00  0.00    +0.000 NA
ATOM     10  C   UNL     1      -0.169   8.422  21.209  0.00  0.00    +0.000 C 
ATOM     11  C   UNL     1       1.293   8.296  20.735  0.00  0.00    +0.000 C 
BRANCH   4  12
ATOM     12  O   UNL     1       2.625   6.967  18.752  0.00  0.00    +0.000 OA
BRANCH  12  14
ATOM     13  C   UNL     1       3.499   5.119  17.522  0.00  0.00    +0.000 C 
ATOM     14  C   UNL     1       3.799   6.504  18.077  0.00  0.00    +0.000 C 
ENDBRANCH  12  14
ENDBRANCH   4  12
ENDBRANCH   1   9
BRANCH   1  15
ATOM     15  C   UNL     1      -1.629  12.045  22.293  0.00  0.00    +0.000 A 
ATOM     16  C   UNL     1      -2.462  11.800  23.390  0.00  0.00    +0.000 A 
ATOM     17  C   UNL     1      -3.512  12.666  23.676  0.00  0.00    +0.000 A 
ATOM     18  C   UNL     1      -3.750  13.813  22.897  0.00  0.00    +0.000 A 
ATOM     19  C   UNL     1      -2.917  14.057  21.789  0.00  0.00    +0.000 A 
ATOM     20 CL   UNL     1      -3.086  15.488  20.809  0.00  0.00    +0.000 Cl
ATOM     21  C   UNL     1      -1.865  13.155  21.470  0.00  0.00    +0.000 A 
ATOM     22 CL   UNL     1      -0.852  13.460  20.088  0.00  0.00    +0.000 Cl
BRANCH  18  23
ATOM     23  O   UNL     1      -4.810  14.509  23.408  0.00  0.00    +0.000 OA
ATOM     24  C   UNL     1      -4.637  15.698  24.159  0.00  0.00    +0.000 C 
ENDBRANCH  18  23
ENDBRANCH   1  15
TORSDOF 5
ENDMDL
MODEL 6
REMARK VINA RESULT:      -6.1      5.752     10.377
REMARK  Name = 
REMARK  7 active torsions:
REMARK  status: ('A' for Active; 'I' for Inactive)
REMARK    1  A    between atoms: C_1  and  C_2
REMARK    2  A    between atoms: C_2  and  O_3
REMARK    3  A    between atoms: O_3  and  C_4
REMARK    4  A    between atoms: N_9  and  S_10
REMARK    5  A    between atoms: S_10  and  C_13
REMARK    6  A    between atoms: C_16  and  O_17
REMARK    7  A    between atoms: O_17  and  C_18
REMARK                            x       y       z     vdW  Elec       q    Type
REMARK                         _______ _______ _______ _____ _____    ______ ____
ROOT
ATOM      1  S   UNL     1       0.336  12.164  20.517  0.00  0.00    +0.000 S 
ATOM      2  O   UNL     1       1.562  11.854  21.221  0.00  0.00    +0.000 OA
ATOM      3  O   UNL     1       0.363  13.106  19.419  0.00  0.00    +0.000 OA
ENDROOT
BRANCH   1   9
ATOM      4  C   UNL     1       2.357   7.626  18.891  0.00  0.00    +0.000 C 
ATOM      5  O   UNL     1       2.793   7.523  17.751  0.00  0.00    +0.000 OA
ATOM      6  N   UNL     1       1.674   8.729  19.348  0.00  0.00    +0.000 N 
ATOM      7  C   UNL     1       1.427   9.822  18.414  0.00  0.00    +0.000 C 
ATOM      8  C   UNL     1      -0.012  10.318  18.525  0.00  0.00    +0.000 C 
ATOM      9  N   UNL     1      -0.351  10.712  19.927  0.00  0.00    +0.000 NA
ATOM     10  C   UNL     1      -0.186   9.515  20.824  0.00  0.00    +0.000 C 
ATOM     11  C   UNL     1       1.236   8.923  20.740  0.00  0.00    +0.000 C 
BRANCH   4  12
ATOM     12  O   UNL     1       2.371   6.620  19.800  0.00  0.00    +0.000 OA
BRANCH  12  14
ATOM     13  C   UNL     1       2.803   4.306  20.182  0.00  0.00    +0.000 C 
ATOM     14  C   UNL     1       3.290   5.569  19.487  0.00  0.00    +0.000 C 
ENDBRANCH  12  14
ENDBRANCH   4  12
ENDBRANCH   1   9
BRANCH   1  15
ATOM     15  C   UNL     1      -0.858  12.768  21.691  0.00  0.00    +0.000 A 
ATOM     16  C   UNL     1      -2.021  12.011  21.872  0.00  0.00    +0.000 A 
ATOM     17  C   UNL     1      -2.930  12.357  22.867  0.00  0.00    +0.000 A 
ATOM     18  C   UNL     1      -2.699  13.447  23.725  0.00  0.00    +0.000 A 
ATOM     19  C   UNL     1      -1.533  14.214  23.539  0.00  0.00    +0.000 A 
ATOM     20 CL   UNL     1      -1.123  15.536  24.597  0.00  0.00    +0.000 Cl
ATOM     21  C   UNL     1      -0.618  13.887  22.501  0.00  0.00    +0.000 A 
ATOM     22 CL   UNL     1       0.812  14.852  22.270  0.00  0.00    +0.000 Cl
BRANCH  18  23
ATOM     23  O   UNL     1      -3.719  13.549  24.630  0.00  0.00    +0.000 OA
ATOM     24  C   UNL     1      -4.783  12.614  24.671  0.00  0.00    +0.000 C 
ENDBRANCH  18  23
ENDBRANCH   1  15
TORSDOF 5
ENDMDL
MODEL 7
REMARK VINA RESULT:      -6.1      1.781      2.043
REMARK  Name = 
REMARK  7 active torsions:
REMARK  status: ('A' for Active; 'I' for Inactive)
REMARK    1  A    between atoms: C_1  and  C_2
REMARK    2  A    between atoms: C_2  and  O_3
REMARK    3  A    between atoms: O_3  and  C_4
REMARK    4  A    between atoms: N_9  and  S_10
REMARK    5  A    between atoms: S_10  and  C_13
REMARK    6  A    between atoms: C_16  and  O_17
REMARK    7  A    between atoms: O_17  and  C_18
REMARK                            x       y       z     vdW  Elec       q    Type
REMARK                         _______ _______ _______ _____ _____    ______ ____
ROOT
ATOM      1  S   UNL     1       4.318   4.442  18.991  0.00  0.00    +0.000 S 
ATOM      2  O   UNL     1       4.824   5.285  20.054  0.00  0.00    +0.000 OA
ATOM      3  O   UNL     1       4.329   3.004  19.155  0.00  0.00    +0.000 OA
ENDROOT
BRANCH   1   9
ATOM      4  C   UNL     1       1.245   8.349  20.609  0.00  0.00    +0.000 C 
ATOM      5  O   UNL     1       0.656   8.262  21.679  0.00  0.00    +0.000 OA
ATOM      6  N   UNL     1       1.947   7.311  20.040  0.00  0.00    +0.000 N 
ATOM      7  C   UNL     1       1.963   6.029  20.734  0.00  0.00    +0.000 C 
ATOM      8  C   UNL     1       1.726   4.878  19.759  0.00  0.00    +0.000 C 
ATOM      9  N   UNL     1       2.709   4.902  18.632  0.00  0.00    +0.000 NA
ATOM     10  C   UNL     1       2.565   6.201  17.885  0.00  0.00    +0.000 C 
ATOM     11  C   UNL     1       2.750   7.421  18.811  0.00  0.00    +0.000 C 
BRANCH   4  12
ATOM     12  O   UNL     1       1.167   9.425  19.787  0.00  0.00    +0.000 OA
BRANCH  12  14
ATOM     13  C   UNL     1       0.046  11.479  20.247  0.00  0.00    +0.000 C 
ATOM     14  C   UNL     1      -0.123  10.045  19.767  0.00  0.00    +0.000 C 
ENDBRANCH  12  14
ENDBRANCH   4  12
ENDBRANCH   1   9
BRANCH   1  15
ATOM     15  C   UNL     1       5.219   4.802  17.500  0.00  0.00    +0.000 A 
ATOM     16  C   UNL     1       6.340   5.632  17.612  0.00  0.00    +0.000 A 
ATOM     17  C   UNL     1       7.162   5.847  16.509  0.00  0.00    +0.000 A 
ATOM     18  C   UNL     1       6.910   5.225  15.274  0.00  0.00    +0.000 A 
ATOM     19  C   UNL     1       5.778   4.395  15.158  0.00  0.00    +0.000 A 
ATOM     20 CL   UNL     1       5.423   3.523  13.692  0.00  0.00    +0.000 Cl
ATOM     21  C   UNL     1       4.914   4.201  16.270  0.00  0.00    +0.000 A 
ATOM     22 CL   UNL     1       3.510   3.186  16.110  0.00  0.00    +0.000 Cl
BRANCH  18  23
ATOM     23  O   UNL     1       7.880   5.570  14.374  0.00  0.00    +0.000 OA
ATOM     24  C   UNL     1       7.812   5.187  13.012  0.00  0.00    +0.000 C 
ENDBRANCH  18  23
ENDBRANCH   1  15
TORSDOF 5
ENDMDL
MODEL 8
REMARK VINA RESULT:      -6.1      5.983     10.589
REMARK  Name = 
REMARK  7 active torsions:
REMARK  status: ('A' for Active; 'I' for Inactive)
REMARK    1  A    between atoms: C_1  and  C_2
REMARK    2  A    between atoms: C_2  and  O_3
REMARK    3  A    between atoms: O_3  and  C_4
REMARK    4  A    between atoms: N_9  and  S_10
REMARK    5  A    between atoms: S_10  and  C_13
REMARK    6  A    between atoms: C_16  and  O_17
REMARK    7  A    between atoms: O_17  and  C_18
REMARK                            x       y       z     vdW  Elec       q    Type
REMARK                         _______ _______ _______ _____ _____    ______ ____
ROOT
ATOM      1  S   UNL     1      -0.169  12.215  20.024  0.00  0.00    +0.000 S 
ATOM      2  O   UNL     1       1.163  12.123  20.586  0.00  0.00    +0.000 OA
ATOM      3  O   UNL     1      -0.403  13.075  18.884  0.00  0.00    +0.000 OA
ENDROOT
BRANCH   1   9
ATOM      4  C   UNL     1       2.300   7.726  18.986  0.00  0.00    +0.000 C 
ATOM      5  O   UNL     1       2.776   7.531  17.874  0.00  0.00    +0.000 OA
ATOM      6  N   UNL     1       1.508   8.806  19.296  0.00  0.00    +0.000 N 
ATOM      7  C   UNL     1       1.189   9.754  18.235  0.00  0.00    +0.000 C 
ATOM      8  C   UNL     1      -0.291  10.124  18.260  0.00  0.00    +0.000 C 
ATOM      9  N   UNL     1      -0.704  10.646  19.599  0.00  0.00    +0.000 NA
ATOM     10  C   UNL     1      -0.457   9.582  20.636  0.00  0.00    +0.000 C 
ATOM     11  C   UNL     1       1.014   9.120  20.648  0.00  0.00    +0.000 C 
BRANCH   4  12
ATOM     12  O   UNL     1       2.379   6.839  20.009  0.00  0.00    +0.000 OA
BRANCH  12  14
ATOM     13  C   UNL     1       1.601   4.653  20.563  0.00  0.00    +0.000 C 
ATOM     14  C   UNL     1       2.433   5.472  19.587  0.00  0.00    +0.000 C 
ENDBRANCH  12  14
ENDBRANCH   4  12
ENDBRANCH   1   9
BRANCH   1  15
ATOM     15  C   UNL     1      -1.293  12.730  21.304  0.00  0.00    +0.000 A 
ATOM     16  C   UNL     1      -0.736  13.137  22.522  0.00  0.00    +0.000 A 
ATOM     17  C   UNL     1      -1.550  13.674  23.515  0.00  0.00    +0.000 A 
ATOM     18  C   UNL     1      -2.932  13.845  23.319  0.00  0.00    +0.000 A 
ATOM     19  C   UNL     1      -3.494  13.430  22.097  0.00  0.00    +0.000 A 
ATOM     20 CL   UNL     1      -5.181  13.668  21.732  0.00  0.00    +0.000 Cl
ATOM     21  C   UNL     1      -2.674  12.846  21.092  0.00  0.00    +0.000 A 
ATOM     22 CL   UNL     1      -3.383  12.322  19.592  0.00  0.00    +0.000 Cl
BRANCH  18  23
ATOM     23  O   UNL     1      -3.489  14.422  24.426  0.00  0.00    +0.000 OA
ATOM     24  C   UNL     1      -2.701  15.032  25.433  0.00  0.00    +0.000 C 
ENDBRANCH  18  23
ENDBRANCH   1  15
TORSDOF 5
ENDMDL
MODEL 9
REMARK VINA RESULT:      -6.0      2.836      7.337
REMARK  Name = 
REMARK  7 active torsions:
REMARK  status: ('A' for Active; 'I' for Inactive)
REMARK    1  A    between atoms: C_1  and  C_2
REMARK    2  A    between atoms: C_2  and  O_3
REMARK    3  A    between atoms: O_3  and  C_4
REMARK    4  A    between atoms: N_9  and  S_10
REMARK    5  A    between atoms: S_10  and  C_13
REMARK    6  A    between atoms: C_16  and  O_17
REMARK    7  A    between atoms: O_17  and  C_18
REMARK                            x       y       z     vdW  Elec       q    Type
REMARK                         _______ _______ _______ _____ _____    ______ ____
ROOT
ATOM      1  S   UNL     1       2.640   6.070  19.104  0.00  0.00    +0.000 S 
ATOM      2  O   UNL     1       2.077   5.861  17.786  0.00  0.00    +0.000 OA
ATOM      3  O   UNL     1       2.579   5.005  20.082  0.00  0.00    +0.000 OA
ENDROOT
BRANCH   1   9
ATOM      4  C   UNL     1       6.464   4.649  15.835  0.00  0.00    +0.000 C 
ATOM      5  O   UNL     1       7.088   3.614  16.035  0.00  0.00    +0.000 OA
ATOM      6  N   UNL     1       5.552   5.172  16.723  0.00  0.00    +0.000 N 
ATOM      7  C   UNL     1       5.342   4.473  17.985  0.00  0.00    +0.000 C 
ATOM      8  C   UNL     1       5.307   5.455  19.153  0.00  0.00    +0.000 C 
ATOM      9  N   UNL     1       4.282   6.523  18.943  0.00  0.00    +0.000 NA
ATOM     10  C   UNL     1       4.617   7.282  17.687  0.00  0.00    +0.000 C 
ATOM     11  C   UNL     1       4.713   6.353  16.460  0.00  0.00    +0.000 C 
BRANCH   4  12
ATOM     12  O   UNL     1       6.690   5.478  14.787  0.00  0.00    +0.000 OA
BRANCH  12  14
ATOM     13  C   UNL     1       8.171   5.516  12.917  0.00  0.00    +0.000 C 
ATOM     14  C   UNL     1       6.997   4.797  13.566  0.00  0.00    +0.000 C 
ENDBRANCH  12  14
ENDBRANCH   4  12
ENDBRANCH   1   9
BRANCH   1  15
ATOM     15  C   UNL     1       1.862   7.493  19.836  0.00  0.00    +0.000 A 
ATOM     16  C   UNL     1       1.603   7.448  21.210  0.00  0.00    +0.000 A 
ATOM     17  C   UNL     1       1.118   8.576  21.866  0.00  0.00    +0.000 A 
ATOM     18  C   UNL     1       0.900   9.785  21.182  0.00  0.00    +0.000 A 
ATOM     19  C   UNL     1       1.154   9.830  19.798  0.00  0.00    +0.000 A 
ATOM     20 CL   UNL     1       0.986  11.300  18.878  0.00  0.00    +0.000 Cl
ATOM     21  C   UNL     1       1.615   8.670  19.116  0.00  0.00    +0.000 A 
ATOM     22 CL   UNL     1       1.910   8.733  17.401  0.00  0.00    +0.000 Cl
BRANCH  18  23
ATOM     23  O   UNL     1       0.461  10.740  22.056  0.00  0.00    +0.000 OA
ATOM     24  C   UNL     1      -0.711  10.564  22.834  0.00  0.00    +0.000 C 
ENDBRANCH  18  23
ENDBRANCH   1  15
TORSDOF 5
ENDMDL
