MODEL 1
REMARK VINA RESULT:      -7.4      0.000      0.000
REMARK  Name = 
REMARK  7 active torsions:
REMARK  status: ('A' for Active; 'I' for Inactive)
REMARK    1  A    between atoms: C_1  and  C_2
REMARK    2  A    between atoms: C_2  and  CA_3
REMARK    3  A    between atoms: CA_3  and  C_4
REMARK    4  A    between atoms: CA_3  and  N_6
REMARK    5  A    between atoms: C_4  and  O_5
REMARK    6  A    between atoms: C_7  and  C_9
REMARK    7  A    between atoms: N_23  and  C_24
REMARK                            x       y       z     vdW  Elec       q    Type
REMARK                         _______ _______ _______ _____ _____    ______ ____
ROOT
ATOM      1  C   UNL     1       9.096   9.762  18.734  0.00  0.00    +0.000 C 
ATOM      2  C   UNL     1       9.266  10.409  20.136  0.00  0.00    +0.000 C 
ATOM      3  C   UNL     1      10.138  11.469  20.172  0.00  0.00    +0.000 C 
ATOM      4  C   UNL     1      10.204  12.663  21.114  0.00  0.00    +0.000 A 
ATOM      5  C   UNL     1       9.354  12.948  22.189  0.00  0.00    +0.000 A 
ATOM      6  C   UNL     1       9.111  14.290  22.567  0.00  0.00    +0.000 A 
ATOM      7  C   UNL     1       9.690  15.380  21.905  0.00  0.00    +0.000 A 
ATOM      8  C   UNL     1      10.626  15.088  20.917  0.00  0.00    +0.000 A 
ATOM      9  N   UNL     1      11.282  15.898  20.009  0.00  0.00    +0.000 N 
ATOM     10  C   UNL     1      12.027  15.144  19.138  0.00  0.00    +0.000 A 
ATOM     11  C   UNL     1      11.811  13.840  19.482  0.00  0.00    +0.000 A 
ATOM     12  C   UNL     1      10.931  13.773  20.589  0.00  0.00    +0.000 A 
ATOM     13  C   UNL     1      12.117  12.590  18.785  0.00  0.00    +0.000 C 
ATOM     14  C   UNL     1      10.831  11.732  18.793  0.00  0.00    +0.000 C 
ATOM     15  N   UNL     1       9.736  12.105  17.829  0.00  0.00    +0.000 NA
ATOM     16  C   UNL     1       8.882  13.230  18.277  0.00  0.00    +0.000 C 
ATOM     17  C   UNL     1       8.873  10.905  17.685  0.00  0.00    +0.000 C 
ATOM     18  H   UNL     1      11.110  16.889  19.895  0.00  0.00    +0.000 HD
ENDROOT
BRANCH   1  20
ATOM     19  N   UNL     1       8.233   7.364  18.670  0.00  0.00    +0.000 N 
ATOM     20  C   UNL     1       8.210   8.635  18.163  0.00  0.00    +0.000 C 
ATOM     21  O   UNL     1       7.318   8.964  17.366  0.00  0.00    +0.000 OA
ATOM     22  H   UNL     1       8.988   7.047  19.268  0.00  0.00    +0.000 HD
BRANCH  19  23
ATOM     23  CA  UNL     1       7.193   6.391  18.270  0.00  0.00    +0.000 C 
BRANCH  23  25
ATOM     24  C   UNL     1       6.663   4.442  16.657  0.00  0.00    +0.000 C 
ATOM     25  C   UNL     1       7.562   5.625  16.983  0.00  0.00    +0.000 C 
ENDBRANCH  23  25
BRANCH  23  26
ATOM     26  C   UNL     1       6.888   5.395  19.406  0.00  0.00    +0.000 C 
BRANCH  26  27
ATOM     27  O   UNL     1       7.881   5.441  20.428  0.00  0.00    +0.000 OA
ATOM     28  H   UNL     1       8.167   4.525  20.600  0.00  0.00    +0.000 HD
ENDBRANCH  26  27
ENDBRANCH  23  26
ENDBRANCH  19  23
ENDBRANCH   1  20
TORSDOF 5
ENDMDL
MODEL 2
REMARK VINA RESULT:      -7.4      2.742      9.049
REMARK  Name = 
REMARK  7 active torsions:
REMARK  status: ('A' for Active; 'I' for Inactive)
REMARK    1  A    between atoms: C_1  and  C_2
REMARK    2  A    between atoms: C_2  and  CA_3
REMARK    3  A    between atoms: CA_3  and  C_4
REMARK    4  A    between atoms: CA_3  and  N_6
REMARK    5  A    between atoms: C_4  and  O_5
REMARK    6  A    between atoms: C_7  and  C_9
REMARK    7  A    between atoms: N_23  and  C_24
REMARK                            x       y       z     vdW  Elec       q    Type
REMARK                         _______ _______ _______ _____ _____    ______ ____
ROOT
ATOM      1  C   UNL     1       7.778   8.431  17.736  0.00  0.00    +0.000 C 
ATOM      2  C   UNL     1       6.253   8.352  17.457  0.00  0.00    +0.000 C 
ATOM      3  C   UNL     1       5.819   7.127  17.009  0.00  0.00    +0.000 C 
ATOM      4  C   UNL     1       4.455   6.461  17.119  0.00  0.00    +0.000 A 
ATOM      5  C   UNL     1       3.302   6.974  17.728  0.00  0.00    +0.000 A 
ATOM      6  C   UNL     1       2.353   6.098  18.306  0.00  0.00    +0.000 A 
ATOM      7  C   UNL     1       2.509   4.706  18.306  0.00  0.00    +0.000 A 
ATOM      8  C   UNL     1       3.592   4.197  17.596  0.00  0.00    +0.000 A 
ATOM      9  N   UNL     1       4.097   2.914  17.491  0.00  0.00    +0.000 N 
ATOM     10  C   UNL     1       5.266   2.911  16.773  0.00  0.00    +0.000 A 
ATOM     11  C   UNL     1       5.517   4.214  16.448  0.00  0.00    +0.000 A 
ATOM     12  C   UNL     1       4.489   5.044  16.957  0.00  0.00    +0.000 A 
ATOM     13  C   UNL     1       6.715   4.867  15.921  0.00  0.00    +0.000 C 
ATOM     14  C   UNL     1       6.988   6.108  16.802  0.00  0.00    +0.000 C 
ATOM     15  N   UNL     1       7.603   5.880  18.158  0.00  0.00    +0.000 NA
ATOM     16  C   UNL     1       6.640   5.460  19.203  0.00  0.00    +0.000 C 
ATOM     17  C   UNL     1       8.195   7.176  18.576  0.00  0.00    +0.000 C 
ATOM     18  H   UNL     1       3.748   2.116  18.007  0.00  0.00    +0.000 HD
ENDROOT
BRANCH   1  20
ATOM     19  N   UNL     1       8.895  10.723  17.684  0.00  0.00    +0.000 N 
ATOM     20  C   UNL     1       8.718   9.516  18.304  0.00  0.00    +0.000 C 
ATOM     21  O   UNL     1       9.152   9.344  19.453  0.00  0.00    +0.000 OA
ATOM     22  H   UNL     1       8.613  10.869  16.721  0.00  0.00    +0.000 HD
BRANCH  19  23
ATOM     23  CA  UNL     1       9.595  11.819  18.389  0.00  0.00    +0.000 C 
BRANCH  23  25
ATOM     24  C   UNL     1      11.996  11.686  19.337  0.00  0.00    +0.000 C 
ATOM     25  C   UNL     1      11.111  11.831  18.108  0.00  0.00    +0.000 C 
ENDBRANCH  23  25
BRANCH  23  26
ATOM     26  C   UNL     1       8.985  13.191  18.042  0.00  0.00    +0.000 C 
BRANCH  26  27
ATOM     27  O   UNL     1       7.987  13.083  17.028  0.00  0.00    +0.000 OA
ATOM     28  H   UNL     1       7.719  13.988  16.784  0.00  0.00    +0.000 HD
ENDBRANCH  26  27
ENDBRANCH  23  26
ENDBRANCH  19  23
ENDBRANCH   1  20
TORSDOF 5
ENDMDL
MODEL 3
REMARK VINA RESULT:      -7.2      8.235      9.764
REMARK  Name = 
REMARK  7 active torsions:
REMARK  status: ('A' for Active; 'I' for Inactive)
REMARK    1  A    between atoms: C_1  and  C_2
REMARK    2  A    between atoms: C_2  and  CA_3
REMARK    3  A    between atoms: CA_3  and  C_4
REMARK    4  A    between atoms: CA_3  and  N_6
REMARK    5  A    between atoms: C_4  and  O_5
REMARK    6  A    between atoms: C_7  and  C_9
REMARK    7  A    between atoms: N_23  and  C_24
REMARK                            x       y       z     vdW  Elec       q    Type
REMARK                         _______ _______ _______ _____ _____    ______ ____
ROOT
ATOM      1  C   UNL     1       5.352   4.199  16.017  0.00  0.00    +0.000 C 
ATOM      2  C   UNL     1       4.155   5.170  16.206  0.00  0.00    +0.000 C 
ATOM      3  C   UNL     1       3.385   4.917  17.315  0.00  0.00    +0.000 C 
ATOM      4  C   UNL     1       2.513   5.847  18.146  0.00  0.00    +0.000 A 
ATOM      5  C   UNL     1       2.302   7.218  17.952  0.00  0.00    +0.000 A 
ATOM      6  C   UNL     1       2.024   8.058  19.055  0.00  0.00    +0.000 A 
ATOM      7  C   UNL     1       1.950   7.582  20.371  0.00  0.00    +0.000 A 
ATOM      8  C   UNL     1       2.041   6.204  20.544  0.00  0.00    +0.000 A 
ATOM      9  N   UNL     1       2.124   5.428  21.685  0.00  0.00    +0.000 N 
ATOM     10  C   UNL     1       2.326   4.110  21.360  0.00  0.00    +0.000 A 
ATOM     11  C   UNL     1       2.403   4.061  19.998  0.00  0.00    +0.000 A 
ATOM     12  C   UNL     1       2.236   5.359  19.458  0.00  0.00    +0.000 A 
ATOM     13  C   UNL     1       2.851   3.004  19.090  0.00  0.00    +0.000 C 
ATOM     14  C   UNL     1       3.849   3.643  18.097  0.00  0.00    +0.000 C 
ATOM     15  N   UNL     1       5.242   3.928  18.592  0.00  0.00    +0.000 NA
ATOM     16  C   UNL     1       5.367   5.176  19.383  0.00  0.00    +0.000 C 
ATOM     17  C   UNL     1       6.100   4.062  17.388  0.00  0.00    +0.000 C 
ATOM     18  H   UNL     1       2.193   5.796  22.625  0.00  0.00    +0.000 HD
ENDROOT
BRANCH   1  20
ATOM     19  N   UNL     1       6.335   3.692  13.720  0.00  0.00    +0.000 N 
ATOM     20  C   UNL     1       6.520   4.104  15.012  0.00  0.00    +0.000 C 
ATOM     21  O   UNL     1       7.600   4.613  15.349  0.00  0.00    +0.000 OA
ATOM     22  H   UNL     1       5.490   3.211  13.435  0.00  0.00    +0.000 HD
BRANCH  19  23
ATOM     23  CA  UNL     1       7.422   3.861  12.730  0.00  0.00    +0.000 C 
BRANCH  23  25
ATOM     24  C   UNL     1       5.985   2.102  11.496  0.00  0.00    +0.000 C 
ATOM     25  C   UNL     1       7.205   3.011  11.462  0.00  0.00    +0.000 C 
ENDBRANCH  23  25
BRANCH  23  26
ATOM     26  C   UNL     1       7.607   5.342  12.346  0.00  0.00    +0.000 C 
BRANCH  26  27
ATOM     27  O   UNL     1       8.689   5.939  13.060  0.00  0.00    +0.000 OA
ATOM     28  H   UNL     1       8.791   6.850  12.726  0.00  0.00    +0.000 HD
ENDBRANCH  26  27
ENDBRANCH  23  26
ENDBRANCH  19  23
ENDBRANCH   1  20
TORSDOF 5
ENDMDL
MODEL 4
REMARK VINA RESULT:      -6.8      3.608      9.760
REMARK  Name = 
REMARK  7 active torsions:
REMARK  status: ('A' for Active; 'I' for Inactive)
REMARK    1  A    between atoms: C_1  and  C_2
REMARK    2  A    between atoms: C_2  and  CA_3
REMARK    3  A    between atoms: CA_3  and  C_4
REMARK    4  A    between atoms: CA_3  and  N_6
REMARK    5  A    between atoms: C_4  and  O_5
REMARK    6  A    between atoms: C_7  and  C_9
REMARK    7  A    between atoms: N_23  and  C_24
REMARK                            x       y       z     vdW  Elec       q    Type
REMARK                         _______ _______ _______ _____ _____    ______ ____
ROOT
ATOM      1  C   UNL     1       6.225   7.134  17.292  0.00  0.00    +0.000 C 
ATOM      2  C   UNL     1       4.765   7.260  17.805  0.00  0.00    +0.000 C 
ATOM      3  C   UNL     1       4.022   6.110  17.699  0.00  0.00    +0.000 C 
ATOM      4  C   UNL     1       2.823   5.630  18.505  0.00  0.00    +0.000 A 
ATOM      5  C   UNL     1       2.196   6.284  19.572  0.00  0.00    +0.000 A 
ATOM      6  C   UNL     1       1.561   5.536  20.591  0.00  0.00    +0.000 A 
ATOM      7  C   UNL     1       1.526   4.135  20.592  0.00  0.00    +0.000 A 
ATOM      8  C   UNL     1       2.044   3.495  19.471  0.00  0.00    +0.000 A 
ATOM      9  N   UNL     1       2.271   2.157  19.204  0.00  0.00    +0.000 N 
ATOM     10  C   UNL     1       2.920   2.007  18.004  0.00  0.00    +0.000 A 
ATOM     11  C   UNL     1       3.132   3.268  17.525  0.00  0.00    +0.000 A 
ATOM     12  C   UNL     1       2.601   4.222  18.427  0.00  0.00    +0.000 A 
ATOM     13  C   UNL     1       3.980   3.763  16.440  0.00  0.00    +0.000 C 
ATOM     14  C   UNL     1       4.802   4.946  17.001  0.00  0.00    +0.000 C 
ATOM     15  N   UNL     1       5.975   4.624  17.888  0.00  0.00    +0.000 NA
ATOM     16  C   UNL     1       5.614   4.323  19.294  0.00  0.00    +0.000 C 
ATOM     17  C   UNL     1       6.848   5.825  17.887  0.00  0.00    +0.000 C 
ATOM     18  H   UNL     1       2.131   1.407  19.868  0.00  0.00    +0.000 HD
ENDROOT
BRANCH   1  20
ATOM     19  N   UNL     1       7.466   9.264  17.941  0.00  0.00    +0.000 N 
ATOM     20  C   UNL     1       7.446   8.077  17.260  0.00  0.00    +0.000 C 
ATOM     21  O   UNL     1       8.494   7.630  16.770  0.00  0.00    +0.000 OA
ATOM     22  H   UNL     1       6.614   9.686  18.292  0.00  0.00    +0.000 HD
BRANCH  19  23
ATOM     23  CA  UNL     1       8.737  10.006  18.093  0.00  0.00    +0.000 C 
BRANCH  23  25
ATOM     24  C   UNL     1       9.878  12.264  17.561  0.00  0.00    +0.000 C 
ATOM     25  C   UNL     1       8.578  11.515  17.820  0.00  0.00    +0.000 C 
ENDBRANCH  23  25
BRANCH  23  26
ATOM     26  C   UNL     1       9.354   9.785  19.488  0.00  0.00    +0.000 C 
BRANCH  26  27
ATOM     27  O   UNL     1       9.061  10.867  20.370  0.00  0.00    +0.000 OA
ATOM     28  H   UNL     1       8.402  11.434  19.928  0.00  0.00    +0.000 HD
ENDBRANCH  26  27
ENDBRANCH  23  26
ENDBRANCH  19  23
ENDBRANCH   1  20
TORSDOF 5
ENDMDL
MODEL 5
REMARK VINA RESULT:      -6.6      2.795      8.951
REMARK  Name = 
REMARK  7 active torsions:
REMARK  status: ('A' for Active; 'I' for Inactive)
REMARK    1  A    between atoms: C_1  and  C_2
REMARK    2  A    between atoms: C_2  and  CA_3
REMARK    3  A    between atoms: CA_3  and  C_4
REMARK    4  A    between atoms: CA_3  and  N_6
REMARK    5  A    between atoms: C_4  and  O_5
REMARK    6  A    between atoms: C_7  and  C_9
REMARK    7  A    between atoms: N_23  and  C_24
REMARK                            x       y       z     vdW  Elec       q    Type
REMARK                         _______ _______ _______ _____ _____    ______ ____
ROOT
ATOM      1  C   UNL     1       7.814   8.403  17.769  0.00  0.00    +0.000 C 
ATOM      2  C   UNL     1       6.284   8.418  17.503  0.00  0.00    +0.000 C 
ATOM      3  C   UNL     1       5.774   7.230  17.038  0.00  0.00    +0.000 C 
ATOM      4  C   UNL     1       4.374   6.644  17.150  0.00  0.00    +0.000 A 
ATOM      5  C   UNL     1       3.259   7.213  17.779  0.00  0.00    +0.000 A 
ATOM      6  C   UNL     1       2.265   6.385  18.351  0.00  0.00    +0.000 A 
ATOM      7  C   UNL     1       2.338   4.986  18.326  0.00  0.00    +0.000 A 
ATOM      8  C   UNL     1       3.384   4.426  17.597  0.00  0.00    +0.000 A 
ATOM      9  N   UNL     1       3.810   3.118  17.465  0.00  0.00    +0.000 N 
ATOM     10  C   UNL     1       4.971   3.059  16.736  0.00  0.00    +0.000 A 
ATOM     11  C   UNL     1       5.296   4.349  16.431  0.00  0.00    +0.000 A 
ATOM     12  C   UNL     1       4.324   5.230  16.964  0.00  0.00    +0.000 A 
ATOM     13  C   UNL     1       6.526   4.940  15.903  0.00  0.00    +0.000 C 
ATOM     14  C   UNL     1       6.880   6.147  16.803  0.00  0.00    +0.000 C 
ATOM     15  N   UNL     1       7.491   5.860  18.149  0.00  0.00    +0.000 NA
ATOM     16  C   UNL     1       6.514   5.478  19.196  0.00  0.00    +0.000 C 
ATOM     17  C   UNL     1       8.163   7.111  18.583  0.00  0.00    +0.000 C 
ATOM     18  H   UNL     1       3.420   2.333  17.971  0.00  0.00    +0.000 HD
ENDROOT
BRANCH   1  20
ATOM     19  N   UNL     1       8.968  10.675  17.822  0.00  0.00    +0.000 N 
ATOM     20  C   UNL     1       8.821   9.420  18.346  0.00  0.00    +0.000 C 
ATOM     21  O   UNL     1       9.348   9.140  19.433  0.00  0.00    +0.000 OA
ATOM     22  H   UNL     1       8.608  10.911  16.904  0.00  0.00    +0.000 HD
BRANCH  19  23
ATOM     23  CA  UNL     1       9.749  11.694  18.557  0.00  0.00    +0.000 C 
BRANCH  23  25
ATOM     24  C   UNL     1      11.291  13.082  17.015  0.00  0.00    +0.000 C 
ATOM     25  C   UNL     1       9.957  12.986  17.740  0.00  0.00    +0.000 C 
ENDBRANCH  23  25
BRANCH  23  26
ATOM     26  C   UNL     1       9.100  12.029  19.915  0.00  0.00    +0.000 C 
BRANCH  26  27
ATOM     27  O   UNL     1       9.847  11.489  21.003  0.00  0.00    +0.000 OA
ATOM     28  H   UNL     1       9.501  10.594  21.179  0.00  0.00    +0.000 HD
ENDBRANCH  26  27
ENDBRANCH  23  26
ENDBRANCH  19  23
ENDBRANCH   1  20
TORSDOF 5
ENDMDL
MODEL 6
REMARK VINA RESULT:      -6.6      8.107      9.322
REMARK  Name = 
REMARK  7 active torsions:
REMARK  status: ('A' for Active; 'I' for Inactive)
REMARK    1  A    between atoms: C_1  and  C_2
REMARK    2  A    between atoms: C_2  and  CA_3
REMARK    3  A    between atoms: CA_3  and  C_4
REMARK    4  A    between atoms: CA_3  and  N_6
REMARK    5  A    between atoms: C_4  and  O_5
REMARK    6  A    between atoms: C_7  and  C_9
REMARK    7  A    between atoms: N_23  and  C_24
REMARK                            x       y       z     vdW  Elec       q    Type
REMARK                         _______ _______ _______ _____ _____    ______ ____
ROOT
ATOM      1  C   UNL     1       1.671   8.492  20.268  0.00  0.00    +0.000 C 
ATOM      2  C   UNL     1       1.046   9.239  21.478  0.00  0.00    +0.000 C 
ATOM      3  C   UNL     1       0.799  10.572  21.258  0.00  0.00    +0.000 C 
ATOM      4  C   UNL     1      -0.221  11.506  21.893  0.00  0.00    +0.000 A 
ATOM      5  C   UNL     1      -1.168  11.192  22.876  0.00  0.00    +0.000 A 
ATOM      6  C   UNL     1      -2.396  11.892  22.930  0.00  0.00    +0.000 A 
ATOM      7  C   UNL     1      -2.729  12.909  22.026  0.00  0.00    +0.000 A 
ATOM      8  C   UNL     1      -1.739  13.298  21.129  0.00  0.00    +0.000 A 
ATOM      9  N   UNL     1      -1.768  14.164  20.051  0.00  0.00    +0.000 N 
ATOM     10  C   UNL     1      -0.574  14.138  19.377  0.00  0.00    +0.000 A 
ATOM     11  C   UNL     1       0.207  13.220  20.019  0.00  0.00    +0.000 A 
ATOM     12  C   UNL     1      -0.499  12.671  21.117  0.00  0.00    +0.000 A 
ATOM     13  C   UNL     1       1.463  12.576  19.633  0.00  0.00    +0.000 C 
ATOM     14  C   UNL     1       1.287  11.055  19.851  0.00  0.00    +0.000 C 
ATOM     15  N   UNL     1       0.481  10.292  18.834  0.00  0.00    +0.000 NA
ATOM     16  C   UNL     1      -0.987  10.398  19.010  0.00  0.00    +0.000 C 
ATOM     17  C   UNL     1       0.858   8.864  18.981  0.00  0.00    +0.000 C 
ATOM     18  H   UNL     1      -2.601  14.626  19.709  0.00  0.00    +0.000 HD
ENDROOT
BRANCH   1  20
ATOM     19  N   UNL     1       3.026   6.688  19.081  0.00  0.00    +0.000 N 
ATOM     20  C   UNL     1       2.055   7.024  19.984  0.00  0.00    +0.000 C 
ATOM     21  O   UNL     1       1.603   6.162  20.753  0.00  0.00    +0.000 OA
ATOM     22  H   UNL     1       3.364   7.353  18.396  0.00  0.00    +0.000 HD
BRANCH  19  23
ATOM     23  CA  UNL     1       3.537   5.300  19.029  0.00  0.00    +0.000 C 
BRANCH  23  25
ATOM     24  C   UNL     1       1.614   4.145  17.744  0.00  0.00    +0.000 C 
ATOM     25  C   UNL     1       3.082   4.548  17.762  0.00  0.00    +0.000 C 
ENDBRANCH  23  25
BRANCH  23  26
ATOM     26  C   UNL     1       5.074   5.261  19.141  0.00  0.00    +0.000 C 
BRANCH  26  27
ATOM     27  O   UNL     1       5.574   3.927  19.063  0.00  0.00    +0.000 OA
ATOM     28  H   UNL     1       5.908   3.793  18.157  0.00  0.00    +0.000 HD
ENDBRANCH  26  27
ENDBRANCH  23  26
ENDBRANCH  19  23
ENDBRANCH   1  20
TORSDOF 5
ENDMDL
MODEL 7
REMARK VINA RESULT:      -6.6      7.516      9.021
REMARK  Name = 
REMARK  7 active torsions:
REMARK  status: ('A' for Active; 'I' for Inactive)
REMARK    1  A    between atoms: C_1  and  C_2
REMARK    2  A    between atoms: C_2  and  CA_3
REMARK    3  A    between atoms: CA_3  and  C_4
REMARK    4  A    between atoms: CA_3  and  N_6
REMARK    5  A    between atoms: C_4  and  O_5
REMARK    6  A    between atoms: C_7  and  C_9
REMARK    7  A    between atoms: N_23  and  C_24
REMARK                            x       y       z     vdW  Elec       q    Type
REMARK                         _______ _______ _______ _____ _____    ______ ____
ROOT
ATOM      1  C   UNL     1       1.974   8.138  18.639  0.00  0.00    +0.000 C 
ATOM      2  C   UNL     1       2.315   9.542  18.069  0.00  0.00    +0.000 C 
ATOM      3  C   UNL     1       1.326  10.481  18.235  0.00  0.00    +0.000 C 
ATOM      4  C   UNL     1       1.408  11.997  18.330  0.00  0.00    +0.000 A 
ATOM      5  C   UNL     1       2.559  12.794  18.266  0.00  0.00    +0.000 A 
ATOM      6  C   UNL     1       2.608  14.028  18.956  0.00  0.00    +0.000 A 
ATOM      7  C   UNL     1       1.540  14.510  19.724  0.00  0.00    +0.000 A 
ATOM      8  C   UNL     1       0.359  13.775  19.686  0.00  0.00    +0.000 A 
ATOM      9  N   UNL     1      -0.819  13.897  20.399  0.00  0.00    +0.000 N 
ATOM     10  C   UNL     1      -1.668  12.859  20.111  0.00  0.00    +0.000 A 
ATOM     11  C   UNL     1      -1.004  12.056  19.228  0.00  0.00    +0.000 A 
ATOM     12  C   UNL     1       0.273  12.600  18.949  0.00  0.00    +0.000 A 
ATOM     13  C   UNL     1      -1.277  10.697  18.759  0.00  0.00    +0.000 C 
ATOM     14  C   UNL     1       0.035   9.891  18.896  0.00  0.00    +0.000 C 
ATOM     15  N   UNL     1       0.431   9.429  20.273  0.00  0.00    +0.000 NA
ATOM     16  C   UNL     1       1.088  10.469  21.102  0.00  0.00    +0.000 C 
ATOM     17  C   UNL     1       1.397   8.317  20.085  0.00  0.00    +0.000 C 
ATOM     18  H   UNL     1      -0.970  14.559  21.149  0.00  0.00    +0.000 HD
ENDROOT
BRANCH   1  20
ATOM     19  N   UNL     1       2.160   5.675  19.268  0.00  0.00    +0.000 N 
ATOM     20  C   UNL     1       2.744   6.807  18.770  0.00  0.00    +0.000 C 
ATOM     21  O   UNL     1       3.851   6.737  18.215  0.00  0.00    +0.000 OA
ATOM     22  H   UNL     1       1.290   5.713  19.787  0.00  0.00    +0.000 HD
BRANCH  19  23
ATOM     23  CA  UNL     1       2.848   4.371  19.137  0.00  0.00    +0.000 C 
BRANCH  23  25
ATOM     24  C   UNL     1       1.303   3.270  20.893  0.00  0.00    +0.000 C 
ATOM     25  C   UNL     1       2.726   3.507  20.409  0.00  0.00    +0.000 C 
ENDBRANCH  23  25
BRANCH  23  26
ATOM     26  C   UNL     1       2.335   3.585  17.915  0.00  0.00    +0.000 C 
BRANCH  26  27
ATOM     27  O   UNL     1       1.125   4.140  17.401  0.00  0.00    +0.000 OA
ATOM     28  H   UNL     1       1.156   4.059  16.430  0.00  0.00    +0.000 HD
ENDBRANCH  26  27
ENDBRANCH  23  26
ENDBRANCH  19  23
ENDBRANCH   1  20
TORSDOF 5
ENDMDL
MODEL 8
REMARK VINA RESULT:      -6.6      6.984      8.658
REMARK  Name = 
REMARK  7 active torsions:
REMARK  status: ('A' for Active; 'I' for Inactive)
REMARK    1  A    between atoms: C_1  and  C_2
REMARK    2  A    between atoms: C_2  and  CA_3
REMARK    3  A    between atoms: CA_3  and  C_4
REMARK    4  A    between atoms: CA_3  and  N_6
REMARK    5  A    between atoms: C_4  and  O_5
REMARK    6  A    between atoms: C_7  and  C_9
REMARK    7  A    between atoms: N_23  and  C_24
REMARK                            x       y       z     vdW  Elec       q    Type
REMARK                         _______ _______ _______ _____ _____    ______ ____
ROOT
ATOM      1  C   UNL     1       1.944   8.182  18.683  0.00  0.00    +0.000 C 
ATOM      2  C   UNL     1       2.321   9.572  18.101  0.00  0.00    +0.000 C 
ATOM      3  C   UNL     1       1.343  10.528  18.232  0.00  0.00    +0.000 C 
ATOM      4  C   UNL     1       1.449  12.045  18.308  0.00  0.00    +0.000 A 
ATOM      5  C   UNL     1       2.613  12.822  18.259  0.00  0.00    +0.000 A 
ATOM      6  C   UNL     1       2.667  14.065  18.933  0.00  0.00    +0.000 A 
ATOM      7  C   UNL     1       1.589  14.575  19.669  0.00  0.00    +0.000 A 
ATOM      8  C   UNL     1       0.398  13.858  19.614  0.00  0.00    +0.000 A 
ATOM      9  N   UNL     1      -0.794  14.009  20.298  0.00  0.00    +0.000 N 
ATOM     10  C   UNL     1      -1.654  12.980  20.005  0.00  0.00    +0.000 A 
ATOM     11  C   UNL     1      -0.982  12.155  19.149  0.00  0.00    +0.000 A 
ATOM     12  C   UNL     1       0.309  12.674  18.892  0.00  0.00    +0.000 A 
ATOM     13  C   UNL     1      -1.267  10.794  18.693  0.00  0.00    +0.000 C 
ATOM     14  C   UNL     1       0.029   9.969  18.871  0.00  0.00    +0.000 C 
ATOM     15  N   UNL     1       0.386   9.521  20.264  0.00  0.00    +0.000 NA
ATOM     16  C   UNL     1       1.040  10.561  21.092  0.00  0.00    +0.000 C 
ATOM     17  C   UNL     1       1.338   8.391  20.113  0.00  0.00    +0.000 C 
ATOM     18  H   UNL     1      -0.951  14.684  21.035  0.00  0.00    +0.000 HD
ENDROOT
BRANCH   1  20
ATOM     19  N   UNL     1       3.688   6.453  18.000  0.00  0.00    +0.000 N 
ATOM     20  C   UNL     1       2.690   6.841  18.851  0.00  0.00    +0.000 C 
ATOM     21  O   UNL     1       2.502   6.217  19.907  0.00  0.00    +0.000 OA
ATOM     22  H   UNL     1       3.820   6.901  17.100  0.00  0.00    +0.000 HD
BRANCH  19  23
ATOM     23  CA  UNL     1       4.543   5.295  18.345  0.00  0.00    +0.000 C 
BRANCH  23  25
ATOM     24  C   UNL     1       3.049   3.471  17.287  0.00  0.00    +0.000 C 
ATOM     25  C   UNL     1       4.414   4.141  17.330  0.00  0.00    +0.000 C 
ENDBRANCH  23  25
BRANCH  23  26
ATOM     26  C   UNL     1       6.021   5.710  18.486  0.00  0.00    +0.000 C 
BRANCH  26  27
ATOM     27  O   UNL     1       6.568   5.289  19.734  0.00  0.00    +0.000 OA
ATOM     28  H   UNL     1       6.471   6.029  20.361  0.00  0.00    +0.000 HD
ENDBRANCH  26  27
ENDBRANCH  23  26
ENDBRANCH  19  23
ENDBRANCH   1  20
TORSDOF 5
ENDMDL
MODEL 9
REMARK VINA RESULT:      -6.6      2.689      8.908
REMARK  Name = 
REMARK  7 active torsions:
REMARK  status: ('A' for Active; 'I' for Inactive)
REMARK    1  A    between atoms: C_1  and  C_2
REMARK    2  A    between atoms: C_2  and  CA_3
REMARK    3  A    between atoms: CA_3  and  C_4
REMARK    4  A    between atoms: CA_3  and  N_6
REMARK    5  A    between atoms: C_4  and  O_5
REMARK    6  A    between atoms: C_7  and  C_9
REMARK    7  A    between atoms: N_23  and  C_24
REMARK                            x       y       z     vdW  Elec       q    Type
REMARK                         _______ _______ _______ _____ _____    ______ ____
ROOT
ATOM      1  C   UNL     1       7.925   8.558  17.798  0.00  0.00    +0.000 C 
ATOM      2  C   UNL     1       6.406   8.536  17.477  0.00  0.00    +0.000 C 
ATOM      3  C   UNL     1       5.940   7.333  17.006  0.00  0.00    +0.000 C 
ATOM      4  C   UNL     1       4.550   6.716  17.074  0.00  0.00    +0.000 A 
ATOM      5  C   UNL     1       3.401   7.267  17.656  0.00  0.00    +0.000 A 
ATOM      6  C   UNL     1       2.405   6.422  18.201  0.00  0.00    +0.000 A 
ATOM      7  C   UNL     1       2.509   5.025  18.193  0.00  0.00    +0.000 A 
ATOM      8  C   UNL     1       3.592   4.482  17.508  0.00  0.00    +0.000 A 
ATOM      9  N   UNL     1       4.052   3.182  17.405  0.00  0.00    +0.000 N 
ATOM     10  C   UNL     1       5.239   3.142  16.718  0.00  0.00    +0.000 A 
ATOM     11  C   UNL     1       5.547   4.436  16.412  0.00  0.00    +0.000 A 
ATOM     12  C   UNL     1       4.537   5.300  16.901  0.00  0.00    +0.000 A 
ATOM     13  C   UNL     1       6.782   5.050  15.923  0.00  0.00    +0.000 C 
ATOM     14  C   UNL     1       7.076   6.272  16.823  0.00  0.00    +0.000 C 
ATOM     15  N   UNL     1       7.645   6.012  18.192  0.00  0.00    +0.000 NA
ATOM     16  C   UNL     1       6.639   5.619  19.208  0.00  0.00    +0.000 C 
ATOM     17  C   UNL     1       8.273   7.281  18.638  0.00  0.00    +0.000 C 
ATOM     18  H   UNL     1       3.661   2.394  17.905  0.00  0.00    +0.000 HD
ENDROOT
BRANCH   1  20
ATOM     19  N   UNL     1       9.095  10.823  17.817  0.00  0.00    +0.000 N 
ATOM     20  C   UNL     1       8.889   9.602  18.400  0.00  0.00    +0.000 C 
ATOM     21  O   UNL     1       9.314   9.386  19.545  0.00  0.00    +0.000 OA
ATOM     22  H   UNL     1       8.820  11.004  16.858  0.00  0.00    +0.000 HD
BRANCH  19  23
ATOM     23  CA  UNL     1       9.819  11.880  18.556  0.00  0.00    +0.000 C 
BRANCH  23  25
ATOM     24  C   UNL     1      10.194  12.369  21.066  0.00  0.00    +0.000 C 
ATOM     25  C   UNL     1       9.195  12.172  19.936  0.00  0.00    +0.000 C 
ENDBRANCH  23  25
BRANCH  23  26
ATOM     26  C   UNL     1      11.313  11.533  18.716  0.00  0.00    +0.000 C 
BRANCH  26  27
ATOM     27  O   UNL     1      12.004  11.595  17.470  0.00  0.00    +0.000 OA
ATOM     28  H   UNL     1      12.640  10.857  17.452  0.00  0.00    +0.000 HD
ENDBRANCH  26  27
ENDBRANCH  23  26
ENDBRANCH  19  23
ENDBRANCH   1  20
TORSDOF 5
ENDMDL
