MODEL 1
REMARK VINA RESULT:      -8.7      0.000      0.000
REMARK  Name = 
REMARK  6 active torsions:
REMARK  status: ('A' for Active; 'I' for Inactive)
REMARK    1  A    between atoms: C_1  and  C_2
REMARK    2  A    between atoms: C_7  and  C_8
REMARK    3  A    between atoms: C_8  and  O_9
REMARK    4  A    between atoms: O_9  and  N_10
REMARK    5  A    between atoms: C_17  and  C_18
REMARK    6  A    between atoms: C_17  and  C_19
REMARK                            x       y       z     vdW  Elec       q    Type
REMARK                         _______ _______ _______ _____ _____    ______ ____
ROOT
ATOM      1  N   UNL     1       2.994   4.721  19.065  0.00  0.00    +0.000 N 
ATOM      2  C   UNL     1       4.427   4.676  18.930  0.00  0.00    +0.000 C 
ATOM      3  N   UNL     1       5.147   5.744  18.328  0.00  0.00    +0.000 N 
ATOM      4  N   UNL     1       5.084   3.648  19.333  0.00  0.00    +0.000 NA
ATOM      5  C   UNL     1       4.439   2.524  19.892  0.00  0.00    +0.000 C 
ATOM      6  N   UNL     1       5.212   1.441  20.374  0.00  0.00    +0.000 N 
ATOM      7  N   UNL     1       3.153   2.462  19.944  0.00  0.00    +0.000 NA
ATOM      8  C   UNL     1       2.257   3.521  19.495  0.00  0.00    +0.000 C 
ATOM      9  C   UNL     1       1.442   2.980  18.312  0.00  0.00    +0.000 C 
ATOM     10  C   UNL     1       1.309   3.849  20.656  0.00  0.00    +0.000 C 
ATOM     11  H   UNL     1       4.666   6.551  17.914  0.00  0.00    +0.000 HD
ATOM     12  H   UNL     1       6.172   5.689  18.244  0.00  0.00    +0.000 HD
ATOM     13  H   UNL     1       6.241   1.479  20.329  0.00  0.00    +0.000 HD
ATOM     14  H   UNL     1       4.758   0.609  20.779  0.00  0.00    +0.000 HD
ENDROOT
BRANCH   1  15
ATOM     15  O   UNL     1       2.304   5.843  18.722  0.00  0.00    +0.000 OA
BRANCH  15  16
ATOM     16  C   UNL     1       2.399   6.750  19.814  0.00  0.00    +0.000 C 
BRANCH  16  23
ATOM     17  C   UNL     1      -0.383  12.512  20.656  0.00  0.00    +0.000 C 
ATOM     18  C   UNL     1      -0.007  11.086  20.981  0.00  0.00    +0.000 A 
ATOM     19  C   UNL     1      -0.314  10.593  22.255  0.00  0.00    +0.000 A 
ATOM     20  C   UNL     1       0.037   9.299  22.616  0.00  0.00    +0.000 A 
ATOM     21  C   UNL     1       0.721   8.473  21.726  0.00  0.00    +0.000 A 
ATOM     22  C   UNL     1       1.061   8.921  20.427  0.00  0.00    +0.000 A 
ATOM     23  C   UNL     1       1.800   8.115  19.495  0.00  0.00    +0.000 A 
ATOM     24  C   UNL     1       2.077   8.635  18.220  0.00  0.00    +0.000 A 
ATOM     25  C   UNL     1       1.659   9.908  17.855  0.00  0.00    +0.000 A 
ATOM     26  C   UNL     1       0.975  10.713  18.757  0.00  0.00    +0.000 A 
ATOM     27  C   UNL     1       0.667  10.246  20.050  0.00  0.00    +0.000 A 
ENDBRANCH  16  23
ENDBRANCH  15  16
ENDBRANCH   1  15
TORSDOF 3
ENDMDL
MODEL 2
REMARK VINA RESULT:      -8.2      0.871      2.002
REMARK  Name = 
REMARK  6 active torsions:
REMARK  status: ('A' for Active; 'I' for Inactive)
REMARK    1  A    between atoms: C_1  and  C_2
REMARK    2  A    between atoms: C_7  and  C_8
REMARK    3  A    between atoms: C_8  and  O_9
REMARK    4  A    between atoms: O_9  and  N_10
REMARK    5  A    between atoms: C_17  and  C_18
REMARK    6  A    between atoms: C_17  and  C_19
REMARK                            x       y       z     vdW  Elec       q    Type
REMARK                         _______ _______ _______ _____ _____    ______ ____
ROOT
ATOM      1  N   UNL     1       3.003   4.547  19.360  0.00  0.00    +0.000 N 
ATOM      2  C   UNL     1       2.579   3.611  20.368  0.00  0.00    +0.000 C 
ATOM      3  N   UNL     1       1.388   3.818  21.116  0.00  0.00    +0.000 N 
ATOM      4  N   UNL     1       3.290   2.573  20.629  0.00  0.00    +0.000 NA
ATOM      5  C   UNL     1       4.513   2.324  19.968  0.00  0.00    +0.000 C 
ATOM      6  N   UNL     1       5.231   1.136  20.250  0.00  0.00    +0.000 N 
ATOM      7  N   UNL     1       4.995   3.177  19.132  0.00  0.00    +0.000 NA
ATOM      8  C   UNL     1       4.338   4.422  18.752  0.00  0.00    +0.000 C 
ATOM      9  C   UNL     1       5.220   5.585  19.228  0.00  0.00    +0.000 C 
ATOM     10  C   UNL     1       4.246   4.448  17.221  0.00  0.00    +0.000 C 
ATOM     11  H   UNL     1       0.826   4.670  21.009  0.00  0.00    +0.000 HD
ATOM     12  H   UNL     1       1.105   3.132  21.831  0.00  0.00    +0.000 HD
ATOM     13  H   UNL     1       4.856   0.452  20.923  0.00  0.00    +0.000 HD
ATOM     14  H   UNL     1       6.128   0.941  19.783  0.00  0.00    +0.000 HD
ENDROOT
BRANCH   1  15
ATOM     15  O   UNL     1       2.209   5.599  19.019  0.00  0.00    +0.000 OA
BRANCH  15  16
ATOM     16  C   UNL     1       2.378   6.600  20.015  0.00  0.00    +0.000 C 
BRANCH  16  23
ATOM     17  C   UNL     1      -0.289  12.465  20.385  0.00  0.00    +0.000 C 
ATOM     18  C   UNL     1       0.044  11.056  20.816  0.00  0.00    +0.000 A 
ATOM     19  C   UNL     1      -0.311  10.658  22.110  0.00  0.00    +0.000 A 
ATOM     20  C   UNL     1       0.000   9.384  22.568  0.00  0.00    +0.000 A 
ATOM     21  C   UNL     1       0.689   8.485  21.757  0.00  0.00    +0.000 A 
ATOM     22  C   UNL     1       1.075   8.836  20.440  0.00  0.00    +0.000 A 
ATOM     23  C   UNL     1       1.822   7.953  19.588  0.00  0.00    +0.000 A 
ATOM     24  C   UNL     1       2.146   8.378  18.289  0.00  0.00    +0.000 A 
ATOM     25  C   UNL     1       1.769   9.633  17.827  0.00  0.00    +0.000 A 
ATOM     26  C   UNL     1       1.078  10.511  18.652  0.00  0.00    +0.000 A 
ATOM     27  C   UNL     1       0.723  10.141  19.964  0.00  0.00    +0.000 A 
ENDBRANCH  16  23
ENDBRANCH  15  16
ENDBRANCH   1  15
TORSDOF 3
ENDMDL
MODEL 3
REMARK VINA RESULT:      -8.1      1.076      1.139
REMARK  Name = 
REMARK  6 active torsions:
REMARK  status: ('A' for Active; 'I' for Inactive)
REMARK    1  A    between atoms: C_1  and  C_2
REMARK    2  A    between atoms: C_7  and  C_8
REMARK    3  A    between atoms: C_8  and  O_9
REMARK    4  A    between atoms: O_9  and  N_10
REMARK    5  A    between atoms: C_17  and  C_18
REMARK    6  A    between atoms: C_17  and  C_19
REMARK                            x       y       z     vdW  Elec       q    Type
REMARK                         _______ _______ _______ _____ _____    ______ ____
ROOT
ATOM      1  N   UNL     1       2.917   5.668  18.453  0.00  0.00    +0.000 N 
ATOM      2  C   UNL     1       4.329   5.585  18.183  0.00  0.00    +0.000 C 
ATOM      3  N   UNL     1       5.008   6.617  17.479  0.00  0.00    +0.000 N 
ATOM      4  N   UNL     1       5.002   4.557  18.556  0.00  0.00    +0.000 NA
ATOM      5  C   UNL     1       4.391   3.467  19.213  0.00  0.00    +0.000 C 
ATOM      6  N   UNL     1       5.186   2.382  19.656  0.00  0.00    +0.000 N 
ATOM      7  N   UNL     1       3.116   3.435  19.390  0.00  0.00    +0.000 NA
ATOM      8  C   UNL     1       2.201   4.499  18.992  0.00  0.00    +0.000 C 
ATOM      9  C   UNL     1       1.266   3.938  17.911  0.00  0.00    +0.000 C 
ATOM     10  C   UNL     1       1.377   4.886  20.227  0.00  0.00    +0.000 C 
ATOM     11  H   UNL     1       4.506   7.421  17.085  0.00  0.00    +0.000 HD
ATOM     12  H   UNL     1       6.020   6.536  17.299  0.00  0.00    +0.000 HD
ATOM     13  H   UNL     1       6.207   2.395  19.511  0.00  0.00    +0.000 HD
ATOM     14  H   UNL     1       4.758   1.574  20.131  0.00  0.00    +0.000 HD
ENDROOT
BRANCH   1  15
ATOM     15  O   UNL     1       2.220   6.793  18.139  0.00  0.00    +0.000 OA
BRANCH  15  16
ATOM     16  C   UNL     1       2.392   7.712  19.210  0.00  0.00    +0.000 C 
BRANCH  16  23
ATOM     17  C   UNL     1      -1.708  12.101  21.572  0.00  0.00    +0.000 C 
ATOM     18  C   UNL     1      -0.775  10.914  21.592  0.00  0.00    +0.000 A 
ATOM     19  C   UNL     1      -0.419  10.371  22.833  0.00  0.00    +0.000 A 
ATOM     20  C   UNL     1       0.461   9.299  22.909  0.00  0.00    +0.000 A 
ATOM     21  C   UNL     1       1.023   8.756  21.755  0.00  0.00    +0.000 A 
ATOM     22  C   UNL     1       0.701   9.268  20.475  0.00  0.00    +0.000 A 
ATOM     23  C   UNL     1       1.289   8.763  19.265  0.00  0.00    +0.000 A 
ATOM     24  C   UNL     1       0.897   9.319  18.037  0.00  0.00    +0.000 A 
ATOM     25  C   UNL     1      -0.035  10.348  17.977  0.00  0.00    +0.000 A 
ATOM     26  C   UNL     1      -0.585  10.871  19.140  0.00  0.00    +0.000 A 
ATOM     27  C   UNL     1      -0.232  10.353  20.402  0.00  0.00    +0.000 A 
ENDBRANCH  16  23
ENDBRANCH  15  16
ENDBRANCH   1  15
TORSDOF 3
ENDMDL
MODEL 4
REMARK VINA RESULT:      -7.9      1.288      1.871
REMARK  Name = 
REMARK  6 active torsions:
REMARK  status: ('A' for Active; 'I' for Inactive)
REMARK    1  A    between atoms: C_1  and  C_2
REMARK    2  A    between atoms: C_7  and  C_8
REMARK    3  A    between atoms: C_8  and  O_9
REMARK    4  A    between atoms: O_9  and  N_10
REMARK    5  A    between atoms: C_17  and  C_18
REMARK    6  A    between atoms: C_17  and  C_19
REMARK                            x       y       z     vdW  Elec       q    Type
REMARK                         _______ _______ _______ _____ _____    ______ ____
ROOT
ATOM      1  N   UNL     1       2.206   4.301  19.622  0.00  0.00    +0.000 N 
ATOM      2  C   UNL     1       2.605   3.324  20.602  0.00  0.00    +0.000 C 
ATOM      3  N   UNL     1       2.394   3.542  21.991  0.00  0.00    +0.000 N 
ATOM      4  N   UNL     1       3.186   2.239  20.236  0.00  0.00    +0.000 NA
ATOM      5  C   UNL     1       3.479   1.971  18.881  0.00  0.00    +0.000 C 
ATOM      6  N   UNL     1       4.068   0.735  18.523  0.00  0.00    +0.000 N 
ATOM      7  N   UNL     1       3.241   2.851  17.971  0.00  0.00    +0.000 NA
ATOM      8  C   UNL     1       2.623   4.149  18.218  0.00  0.00    +0.000 C 
ATOM      9  C   UNL     1       3.654   5.235  17.878  0.00  0.00    +0.000 C 
ATOM     10  C   UNL     1       1.421   4.276  17.274  0.00  0.00    +0.000 C 
ATOM     11  H   UNL     1       2.011   4.426  22.345  0.00  0.00    +0.000 HD
ATOM     12  H   UNL     1       2.686   2.827  22.673  0.00  0.00    +0.000 HD
ATOM     13  H   UNL     1       4.269   0.029  19.247  0.00  0.00    +0.000 HD
ATOM     14  H   UNL     1       4.296   0.525  17.541  0.00  0.00    +0.000 HD
ENDROOT
BRANCH   1  15
ATOM     15  O   UNL     1       1.511   5.410  19.997  0.00  0.00    +0.000 OA
BRANCH  15  16
ATOM     16  C   UNL     1       2.448   6.472  20.132  0.00  0.00    +0.000 C 
BRANCH  16  23
ATOM     17  C   UNL     1      -0.212  12.346  20.388  0.00  0.00    +0.000 C 
ATOM     18  C   UNL     1       0.129  10.950  20.852  0.00  0.00    +0.000 A 
ATOM     19  C   UNL     1      -0.202  10.588  22.163  0.00  0.00    +0.000 A 
ATOM     20  C   UNL     1       0.118   9.328  22.650  0.00  0.00    +0.000 A 
ATOM     21  C   UNL     1       0.792   8.406  21.852  0.00  0.00    +0.000 A 
ATOM     22  C   UNL     1       1.153   8.720  20.519  0.00  0.00    +0.000 A 
ATOM     23  C   UNL     1       1.883   7.812  19.677  0.00  0.00    +0.000 A 
ATOM     24  C   UNL     1       2.183   8.201  18.362  0.00  0.00    +0.000 A 
ATOM     25  C   UNL     1       1.797   9.443  17.871  0.00  0.00    +0.000 A 
ATOM     26  C   UNL     1       1.122  10.345  18.685  0.00  0.00    +0.000 A 
ATOM     27  C   UNL     1       0.792  10.011  20.013  0.00  0.00    +0.000 A 
ENDBRANCH  16  23
ENDBRANCH  15  16
ENDBRANCH   1  15
TORSDOF 3
ENDMDL
MODEL 5
REMARK VINA RESULT:      -7.8      2.513      4.514
REMARK  Name = 
REMARK  6 active torsions:
REMARK  status: ('A' for Active; 'I' for Inactive)
REMARK    1  A    between atoms: C_1  and  C_2
REMARK    2  A    between atoms: C_7  and  C_8
REMARK    3  A    between atoms: C_8  and  O_9
REMARK    4  A    between atoms: O_9  and  N_10
REMARK    5  A    between atoms: C_17  and  C_18
REMARK    6  A    between atoms: C_17  and  C_19
REMARK                            x       y       z     vdW  Elec       q    Type
REMARK                         _______ _______ _______ _____ _____    ______ ____
ROOT
ATOM      1  N   UNL     1       5.591   5.147  17.388  0.00  0.00    +0.000 N 
ATOM      2  C   UNL     1       5.511   4.052  16.457  0.00  0.00    +0.000 C 
ATOM      3  N   UNL     1       4.657   2.940  16.696  0.00  0.00    +0.000 N 
ATOM      4  N   UNL     1       6.234   4.048  15.396  0.00  0.00    +0.000 NA
ATOM      5  C   UNL     1       7.145   5.089  15.113  0.00  0.00    +0.000 C 
ATOM      6  N   UNL     1       7.878   5.067  13.901  0.00  0.00    +0.000 N 
ATOM      7  N   UNL     1       7.338   6.042  15.957  0.00  0.00    +0.000 NA
ATOM      8  C   UNL     1       6.631   6.177  17.225  0.00  0.00    +0.000 C 
ATOM      9  C   UNL     1       7.660   6.039  18.356  0.00  0.00    +0.000 C 
ATOM     10  C   UNL     1       6.018   7.583  17.266  0.00  0.00    +0.000 C 
ATOM     11  H   UNL     1       4.121   2.850  17.567  0.00  0.00    +0.000 HD
ATOM     12  H   UNL     1       4.616   2.168  16.015  0.00  0.00    +0.000 HD
ATOM     13  H   UNL     1       7.736   4.303  13.224  0.00  0.00    +0.000 HD
ATOM     14  H   UNL     1       8.552   5.814  13.681  0.00  0.00    +0.000 HD
ENDROOT
BRANCH   1  15
ATOM     15  O   UNL     1       4.763   5.198  18.467  0.00  0.00    +0.000 OA
BRANCH  15  16
ATOM     16  C   UNL     1       3.485   5.616  18.001  0.00  0.00    +0.000 C 
BRANCH  16  23
ATOM     17  C   UNL     1      -0.113  10.162  20.836  0.00  0.00    +0.000 C 
ATOM     18  C   UNL     1       0.849   9.572  19.833  0.00  0.00    +0.000 A 
ATOM     19  C   UNL     1       1.214  10.349  18.727  0.00  0.00    +0.000 A 
ATOM     20  C   UNL     1       2.071   9.843  17.759  0.00  0.00    +0.000 A 
ATOM     21  C   UNL     1       2.567   8.544  17.856  0.00  0.00    +0.000 A 
ATOM     22  C   UNL     1       2.229   7.713  18.951  0.00  0.00    +0.000 A 
ATOM     23  C   UNL     1       2.687   6.356  19.068  0.00  0.00    +0.000 A 
ATOM     24  C   UNL     1       2.315   5.610  20.198  0.00  0.00    +0.000 A 
ATOM     25  C   UNL     1       1.510   6.157  21.190  0.00  0.00    +0.000 A 
ATOM     26  C   UNL     1       1.030   7.456  21.073  0.00  0.00    +0.000 A 
ATOM     27  C   UNL     1       1.369   8.253  19.963  0.00  0.00    +0.000 A 
ENDBRANCH  16  23
ENDBRANCH  15  16
ENDBRANCH   1  15
TORSDOF 3
ENDMDL
MODEL 6
REMARK VINA RESULT:      -7.8      3.670      7.273
REMARK  Name = 
REMARK  6 active torsions:
REMARK  status: ('A' for Active; 'I' for Inactive)
REMARK    1  A    between atoms: C_1  and  C_2
REMARK    2  A    between atoms: C_7  and  C_8
REMARK    3  A    between atoms: C_8  and  O_9
REMARK    4  A    between atoms: O_9  and  N_10
REMARK    5  A    between atoms: C_17  and  C_18
REMARK    6  A    between atoms: C_17  and  C_19
REMARK                            x       y       z     vdW  Elec       q    Type
REMARK                         _______ _______ _______ _____ _____    ______ ____
ROOT
ATOM      1  N   UNL     1       0.731   9.638  20.180  0.00  0.00    +0.000 N 
ATOM      2  C   UNL     1       0.723  10.198  21.506  0.00  0.00    +0.000 C 
ATOM      3  N   UNL     1       0.556   9.376  22.654  0.00  0.00    +0.000 N 
ATOM      4  N   UNL     1       0.842  11.465  21.676  0.00  0.00    +0.000 NA
ATOM      5  C   UNL     1       0.959  12.354  20.586  0.00  0.00    +0.000 C 
ATOM      6  N   UNL     1       1.147  13.737  20.827  0.00  0.00    +0.000 N 
ATOM      7  N   UNL     1       0.869  11.926  19.375  0.00  0.00    +0.000 NA
ATOM      8  C   UNL     1       0.693  10.526  19.006  0.00  0.00    +0.000 C 
ATOM      9  C   UNL     1      -0.671  10.388  18.314  0.00  0.00    +0.000 C 
ATOM     10  C   UNL     1       1.805  10.166  18.012  0.00  0.00    +0.000 C 
ATOM     11  H   UNL     1       0.372   8.369  22.574  0.00  0.00    +0.000 HD
ATOM     12  H   UNL     1       0.555   9.799  23.594  0.00  0.00    +0.000 HD
ATOM     13  H   UNL     1       1.211  14.089  21.793  0.00  0.00    +0.000 HD
ATOM     14  H   UNL     1       1.226  14.402  20.044  0.00  0.00    +0.000 HD
ENDROOT
BRANCH   1  15
ATOM     15  O   UNL     1       0.694   8.289  20.000  0.00  0.00    +0.000 OA
BRANCH  15  16
ATOM     16  C   UNL     1       1.946   7.770  20.432  0.00  0.00    +0.000 C 
BRANCH  16  23
ATOM     17  C   UNL     1       2.652   2.004  17.619  0.00  0.00    +0.000 C 
ATOM     18  C   UNL     1       2.262   2.992  18.693  0.00  0.00    +0.000 A 
ATOM     19  C   UNL     1       1.503   2.529  19.775  0.00  0.00    +0.000 A 
ATOM     20  C   UNL     1       1.090   3.402  20.773  0.00  0.00    +0.000 A 
ATOM     21  C   UNL     1       1.405   4.758  20.708  0.00  0.00    +0.000 A 
ATOM     22  C   UNL     1       2.166   5.280  19.634  0.00  0.00    +0.000 A 
ATOM     23  C   UNL     1       2.476   6.678  19.510  0.00  0.00    +0.000 A 
ATOM     24  C   UNL     1       3.253   7.105  18.421  0.00  0.00    +0.000 A 
ATOM     25  C   UNL     1       3.713   6.205  17.466  0.00  0.00    +0.000 A 
ATOM     26  C   UNL     1       3.390   4.856  17.554  0.00  0.00    +0.000 A 
ATOM     27  C   UNL     1       2.615   4.369  18.625  0.00  0.00    +0.000 A 
ENDBRANCH  16  23
ENDBRANCH  15  16
ENDBRANCH   1  15
TORSDOF 3
ENDMDL
MODEL 7
REMARK VINA RESULT:      -7.6      3.587      7.548
REMARK  Name = 
REMARK  6 active torsions:
REMARK  status: ('A' for Active; 'I' for Inactive)
REMARK    1  A    between atoms: C_1  and  C_2
REMARK    2  A    between atoms: C_7  and  C_8
REMARK    3  A    between atoms: C_8  and  O_9
REMARK    4  A    between atoms: O_9  and  N_10
REMARK    5  A    between atoms: C_17  and  C_18
REMARK    6  A    between atoms: C_17  and  C_19
REMARK                            x       y       z     vdW  Elec       q    Type
REMARK                         _______ _______ _______ _____ _____    ______ ____
ROOT
ATOM      1  N   UNL     1       0.880   9.431  20.163  0.00  0.00    +0.000 N 
ATOM      2  C   UNL     1       0.951  10.117  21.427  0.00  0.00    +0.000 C 
ATOM      3  N   UNL     1       0.747   9.427  22.654  0.00  0.00    +0.000 N 
ATOM      4  N   UNL     1       1.178  11.380  21.468  0.00  0.00    +0.000 NA
ATOM      5  C   UNL     1       1.338  12.146  20.293  0.00  0.00    +0.000 C 
ATOM      6  N   UNL     1       1.644  13.525  20.392  0.00  0.00    +0.000 N 
ATOM      7  N   UNL     1       1.182  11.610  19.132  0.00  0.00    +0.000 NA
ATOM      8  C   UNL     1       0.884  10.200  18.907  0.00  0.00    +0.000 C 
ATOM      9  C   UNL     1      -0.504  10.110  18.256  0.00  0.00    +0.000 C 
ATOM     10  C   UNL     1       1.937   9.653  17.935  0.00  0.00    +0.000 C 
ATOM     11  H   UNL     1       0.480   8.436  22.677  0.00  0.00    +0.000 HD
ATOM     12  H   UNL     1       0.805   9.940  23.547  0.00  0.00    +0.000 HD
ATOM     13  H   UNL     1       1.762  13.963  21.317  0.00  0.00    +0.000 HD
ATOM     14  H   UNL     1       1.757  14.101  19.546  0.00  0.00    +0.000 HD
ENDROOT
BRANCH   1  15
ATOM     15  O   UNL     1       0.729   8.079  20.119  0.00  0.00    +0.000 OA
BRANCH  15  16
ATOM     16  C   UNL     1       2.024   7.504  20.243  0.00  0.00    +0.000 C 
BRANCH  16  23
ATOM     17  C   UNL     1       3.740   1.789  17.784  0.00  0.00    +0.000 C 
ATOM     18  C   UNL     1       3.624   3.292  17.865  0.00  0.00    +0.000 A 
ATOM     19  C   UNL     1       4.359   4.063  16.956  0.00  0.00    +0.000 A 
ATOM     20  C   UNL     1       4.312   5.451  17.007  0.00  0.00    +0.000 A 
ATOM     21  C   UNL     1       3.552   6.102  17.976  0.00  0.00    +0.000 A 
ATOM     22  C   UNL     1       2.792   5.372  18.921  0.00  0.00    +0.000 A 
ATOM     23  C   UNL     1       2.028   6.006  19.960  0.00  0.00    +0.000 A 
ATOM     24  C   UNL     1       1.290   5.202  20.844  0.00  0.00    +0.000 A 
ATOM     25  C   UNL     1       1.297   3.817  20.736  0.00  0.00    +0.000 A 
ATOM     26  C   UNL     1       2.060   3.189  19.759  0.00  0.00    +0.000 A 
ATOM     27  C   UNL     1       2.820   3.942  18.843  0.00  0.00    +0.000 A 
ENDBRANCH  16  23
ENDBRANCH  15  16
ENDBRANCH   1  15
TORSDOF 3
ENDMDL
MODEL 8
REMARK VINA RESULT:      -7.5      1.191      2.197
REMARK  Name = 
REMARK  6 active torsions:
REMARK  status: ('A' for Active; 'I' for Inactive)
REMARK    1  A    between atoms: C_1  and  C_2
REMARK    2  A    between atoms: C_7  and  C_8
REMARK    3  A    between atoms: C_8  and  O_9
REMARK    4  A    between atoms: O_9  and  N_10
REMARK    5  A    between atoms: C_17  and  C_18
REMARK    6  A    between atoms: C_17  and  C_19
REMARK                            x       y       z     vdW  Elec       q    Type
REMARK                         _______ _______ _______ _____ _____    ______ ____
ROOT
ATOM      1  N   UNL     1       3.713   5.532  19.287  0.00  0.00    +0.000 N 
ATOM      2  C   UNL     1       3.045   4.592  20.149  0.00  0.00    +0.000 C 
ATOM      3  N   UNL     1       2.205   5.029  21.210  0.00  0.00    +0.000 N 
ATOM      4  N   UNL     1       3.217   3.329  19.988  0.00  0.00    +0.000 NA
ATOM      5  C   UNL     1       4.076   2.816  18.992  0.00  0.00    +0.000 C 
ATOM      6  N   UNL     1       4.186   1.415  18.818  0.00  0.00    +0.000 N 
ATOM      7  N   UNL     1       4.780   3.607  18.259  0.00  0.00    +0.000 NA
ATOM      8  C   UNL     1       4.737   5.062  18.338  0.00  0.00    +0.000 C 
ATOM      9  C   UNL     1       6.116   5.552  18.801  0.00  0.00    +0.000 C 
ATOM     10  C   UNL     1       4.457   5.593  16.926  0.00  0.00    +0.000 C 
ATOM     11  H   UNL     1       2.098   6.025  21.437  0.00  0.00    +0.000 HD
ATOM     12  H   UNL     1       1.736   4.337  21.812  0.00  0.00    +0.000 HD
ATOM     13  H   UNL     1       3.632   0.775  19.405  0.00  0.00    +0.000 HD
ATOM     14  H   UNL     1       4.814   1.022  18.101  0.00  0.00    +0.000 HD
ENDROOT
BRANCH   1  15
ATOM     15  O   UNL     1       3.465   6.865  19.397  0.00  0.00    +0.000 OA
BRANCH  15  16
ATOM     16  C   UNL     1       2.156   7.096  18.888  0.00  0.00    +0.000 C 
BRANCH  16  23
ATOM     17  C   UNL     1      -0.005  12.619  21.434  0.00  0.00    +0.000 C 
ATOM     18  C   UNL     1       0.190  11.127  21.305  0.00  0.00    +0.000 A 
ATOM     19  C   UNL     1      -0.242  10.308  22.356  0.00  0.00    +0.000 A 
ATOM     20  C   UNL     1      -0.058   8.933  22.302  0.00  0.00    +0.000 A 
ATOM     21  C   UNL     1       0.578   8.342  21.212  0.00  0.00    +0.000 A 
ATOM     22  C   UNL     1       1.038   9.122  20.123  0.00  0.00    +0.000 A 
ATOM     23  C   UNL     1       1.733   8.556  19.001  0.00  0.00    +0.000 A 
ATOM     24  C   UNL     1       2.137   9.404  17.956  0.00  0.00    +0.000 A 
ATOM     25  C   UNL     1       1.886  10.770  17.999  0.00  0.00    +0.000 A 
ATOM     26  C   UNL     1       1.246  11.337  19.094  0.00  0.00    +0.000 A 
ATOM     27  C   UNL     1       0.816  10.537  20.171  0.00  0.00    +0.000 A 
ENDBRANCH  16  23
ENDBRANCH  15  16
ENDBRANCH   1  15
TORSDOF 3
ENDMDL
MODEL 9
REMARK VINA RESULT:      -7.4      2.574      4.995
REMARK  Name = 
REMARK  6 active torsions:
REMARK  status: ('A' for Active; 'I' for Inactive)
REMARK    1  A    between atoms: C_1  and  C_2
REMARK    2  A    between atoms: C_7  and  C_8
REMARK    3  A    between atoms: C_8  and  O_9
REMARK    4  A    between atoms: O_9  and  N_10
REMARK    5  A    between atoms: C_17  and  C_18
REMARK    6  A    between atoms: C_17  and  C_19
REMARK                            x       y       z     vdW  Elec       q    Type
REMARK                         _______ _______ _______ _____ _____    ______ ____
ROOT
ATOM      1  N   UNL     1       6.104   5.537  17.269  0.00  0.00    +0.000 N 
ATOM      2  C   UNL     1       6.031   6.680  16.397  0.00  0.00    +0.000 C 
ATOM      3  N   UNL     1       5.205   6.675  15.240  0.00  0.00    +0.000 N 
ATOM      4  N   UNL     1       6.736   7.726  16.639  0.00  0.00    +0.000 NA
ATOM      5  C   UNL     1       7.620   7.790  17.738  0.00  0.00    +0.000 C 
ATOM      6  N   UNL     1       8.332   8.987  17.994  0.00  0.00    +0.000 N 
ATOM      7  N   UNL     1       7.806   6.763  18.493  0.00  0.00    +0.000 NA
ATOM      8  C   UNL     1       7.119   5.487  18.335  0.00  0.00    +0.000 C 
ATOM      9  C   UNL     1       8.170   4.425  17.982  0.00  0.00    +0.000 C 
ATOM     10  C   UNL     1       6.477   5.138  19.684  0.00  0.00    +0.000 C 
ATOM     11  H   UNL     1       4.686   5.837  14.952  0.00  0.00    +0.000 HD
ATOM     12  H   UNL     1       5.168   7.506  14.631  0.00  0.00    +0.000 HD
ATOM     13  H   UNL     1       8.194   9.810  17.390  0.00  0.00    +0.000 HD
ATOM     14  H   UNL     1       8.986   9.050  18.787  0.00  0.00    +0.000 HD
ENDROOT
BRANCH   1  15
ATOM     15  O   UNL     1       5.293   4.462  17.067  0.00  0.00    +0.000 OA
BRANCH  15  16
ATOM     16  C   UNL     1       3.965   4.953  16.927  0.00  0.00    +0.000 C 
BRANCH  16  23
ATOM     17  C   UNL     1       0.690   8.265  21.394  0.00  0.00    +0.000 C 
ATOM     18  C   UNL     1       1.487   8.043  20.131  0.00  0.00    +0.000 A 
ATOM     19  C   UNL     1       1.602   9.104  19.224  0.00  0.00    +0.000 A 
ATOM     20  C   UNL     1       2.296   8.943  18.032  0.00  0.00    +0.000 A 
ATOM     21  C   UNL     1       2.874   7.718  17.705  0.00  0.00    +0.000 A 
ATOM     22  C   UNL     1       2.786   6.611  18.583  0.00  0.00    +0.000 A 
ATOM     23  C   UNL     1       3.333   5.321  18.264  0.00  0.00    +0.000 A 
ATOM     24  C   UNL     1       3.214   4.284  19.204  0.00  0.00    +0.000 A 
ATOM     25  C   UNL     1       2.572   4.482  20.420  0.00  0.00    +0.000 A 
ATOM     26  C   UNL     1       2.007   5.714  20.726  0.00  0.00    +0.000 A 
ATOM     27  C   UNL     1       2.095   6.793  19.825  0.00  0.00    +0.000 A 
ENDBRANCH  16  23
ENDBRANCH  15  16
ENDBRANCH   1  15
TORSDOF 3
ENDMDL
