MODEL 1
REMARK VINA RESULT:      -6.9      0.000      0.000
REMARK  Name = 
REMARK  9 active torsions:
REMARK  status: ('A' for Active; 'I' for Inactive)
REMARK    1  A    between atoms: C_1  and  C_2
REMARK    2  A    between atoms: C_2  and  C_3
REMARK    3  A    between atoms: C_2  and  C_7
REMARK    4  A    between atoms: C_3  and  N_4
REMARK    5  A    between atoms: N_4  and  C_5
REMARK    6  A    between atoms: N_4  and  C_6
REMARK    7  A    between atoms: C_7  and  C_8
REMARK    8  A    between atoms: C_7  and  C_10
REMARK    9  A    between atoms: C_7  and  C_16
REMARK                            x       y       z     vdW  Elec       q    Type
REMARK                         _______ _______ _______ _____ _____    ______ ____
ROOT
ATOM      1  C   UNL     1       3.839   5.572  18.313  0.00  0.00    +0.000 C 
ENDROOT
BRANCH   1   2
ATOM      2  C   UNL     1       3.013   6.824  18.758  0.00  0.00    +0.000 A 
ATOM      3  C   UNL     1       2.468   6.906  20.059  0.00  0.00    +0.000 A 
ATOM      4  C   UNL     1       1.623   7.956  20.433  0.00  0.00    +0.000 A 
ATOM      5  C   UNL     1       1.310   8.960  19.524  0.00  0.00    +0.000 A 
ATOM      6  C   UNL     1       1.865   8.928  18.250  0.00  0.00    +0.000 A 
ATOM      7  C   UNL     1       2.715   7.881  17.874  0.00  0.00    +0.000 A 
ENDBRANCH   1   2
BRANCH   1   8
ATOM      8  C   UNL     1       2.989   4.282  18.556  0.00  0.00    +0.000 A 
ATOM      9  C   UNL     1       1.701   4.152  17.995  0.00  0.00    +0.000 A 
ATOM     10  C   UNL     1       0.886   3.054  18.287  0.00  0.00    +0.000 A 
ATOM     11  C   UNL     1       1.347   2.043  19.122  0.00  0.00    +0.000 A 
ATOM     12  C   UNL     1       2.635   2.114  19.639  0.00  0.00    +0.000 A 
ATOM     13  C   UNL     1       3.453   3.209  19.345  0.00  0.00    +0.000 A 
ENDBRANCH   1   8
BRANCH   1  15
ATOM     14  C   UNL     1       5.228   6.964  16.580  0.00  0.00    +0.000 C 
ATOM     15  C   UNL     1       4.280   5.758  16.782  0.00  0.00    +0.000 C 
BRANCH  15  16
ATOM     16  C   UNL     1       4.934   4.469  16.179  0.00  0.00    +0.000 C 
BRANCH  16  17
ATOM     17  N   UNL     1       6.197   4.671  15.433  0.00  0.00    +0.000 NA
ATOM     18  C   UNL     1       7.333   4.287  16.289  0.00  0.00    +0.000 C 
ATOM     19  C   UNL     1       6.247   3.896  14.194  0.00  0.00    +0.000 C 
ENDBRANCH  16  17
ENDBRANCH  15  16
ENDBRANCH   1  15
BRANCH   1  20
ATOM     20  C   UNL     1       5.126   5.451  19.082  0.00  0.00    +0.000 C 
ATOM     21  N   UNL     1       6.121   5.357  19.671  0.00  0.00    +0.000 NA
ENDBRANCH   1  20
TORSDOF 6
ENDMDL
MODEL 2
REMARK VINA RESULT:      -6.8      0.290      1.087
REMARK  Name = 
REMARK  9 active torsions:
REMARK  status: ('A' for Active; 'I' for Inactive)
REMARK    1  A    between atoms: C_1  and  C_2
REMARK    2  A    between atoms: C_2  and  C_3
REMARK    3  A    between atoms: C_2  and  C_7
REMARK    4  A    between atoms: C_3  and  N_4
REMARK    5  A    between atoms: N_4  and  C_5
REMARK    6  A    between atoms: N_4  and  C_6
REMARK    7  A    between atoms: C_7  and  C_8
REMARK    8  A    between atoms: C_7  and  C_10
REMARK    9  A    between atoms: C_7  and  C_16
REMARK                            x       y       z     vdW  Elec       q    Type
REMARK                         _______ _______ _______ _____ _____    ______ ____
ROOT
ATOM      1  C   UNL     1       3.843   5.565  18.233  0.00  0.00    +0.000 C 
ENDROOT
BRANCH   1   2
ATOM      2  C   UNL     1       2.899   6.723  18.695  0.00  0.00    +0.000 A 
ATOM      3  C   UNL     1       2.535   7.759  17.805  0.00  0.00    +0.000 A 
ATOM      4  C   UNL     1       1.797   8.866  18.234  0.00  0.00    +0.000 A 
ATOM      5  C   UNL     1       1.390   8.966  19.560  0.00  0.00    +0.000 A 
ATOM      6  C   UNL     1       1.697   7.942  20.449  0.00  0.00    +0.000 A 
ATOM      7  C   UNL     1       2.432   6.830  20.021  0.00  0.00    +0.000 A 
ENDBRANCH   1   2
BRANCH   1   8
ATOM      8  C   UNL     1       3.096   4.200  18.386  0.00  0.00    +0.000 A 
ATOM      9  C   UNL     1       1.706   4.111  18.161  0.00  0.00    +0.000 A 
ATOM     10  C   UNL     1       1.004   2.924  18.396  0.00  0.00    +0.000 A 
ATOM     11  C   UNL     1       1.676   1.788  18.832  0.00  0.00    +0.000 A 
ATOM     12  C   UNL     1       3.055   1.830  19.002  0.00  0.00    +0.000 A 
ATOM     13  C   UNL     1       3.759   3.014  18.764  0.00  0.00    +0.000 A 
ENDBRANCH   1   8
BRANCH   1  15
ATOM     14  C   UNL     1       5.336   7.023  16.647  0.00  0.00    +0.000 C 
ATOM     15  C   UNL     1       4.325   5.855  16.731  0.00  0.00    +0.000 C 
BRANCH  15  16
ATOM     16  C   UNL     1       4.928   4.589  16.033  0.00  0.00    +0.000 C 
BRANCH  16  17
ATOM     17  N   UNL     1       6.243   4.773  15.379  0.00  0.00    +0.000 NA
ATOM     18  C   UNL     1       7.307   4.328  16.297  0.00  0.00    +0.000 C 
ATOM     19  C   UNL     1       6.354   4.034  14.122  0.00  0.00    +0.000 C 
ENDBRANCH  16  17
ENDBRANCH  15  16
ENDBRANCH   1  15
BRANCH   1  20
ATOM     20  C   UNL     1       5.105   5.516  19.049  0.00  0.00    +0.000 C 
ATOM     21  N   UNL     1       6.078   5.473  19.679  0.00  0.00    +0.000 NA
ENDBRANCH   1  20
TORSDOF 6
ENDMDL
MODEL 3
REMARK VINA RESULT:      -6.7      0.203      1.061
REMARK  Name = 
REMARK  9 active torsions:
REMARK  status: ('A' for Active; 'I' for Inactive)
REMARK    1  A    between atoms: C_1  and  C_2
REMARK    2  A    between atoms: C_2  and  C_3
REMARK    3  A    between atoms: C_2  and  C_7
REMARK    4  A    between atoms: C_3  and  N_4
REMARK    5  A    between atoms: N_4  and  C_5
REMARK    6  A    between atoms: N_4  and  C_6
REMARK    7  A    between atoms: C_7  and  C_8
REMARK    8  A    between atoms: C_7  and  C_10
REMARK    9  A    between atoms: C_7  and  C_16
REMARK                            x       y       z     vdW  Elec       q    Type
REMARK                         _______ _______ _______ _____ _____    ______ ____
ROOT
ATOM      1  C   UNL     1       3.763   5.636  18.331  0.00  0.00    +0.000 C 
ENDROOT
BRANCH   1   2
ATOM      2  C   UNL     1       2.949   6.919  18.703  0.00  0.00    +0.000 A 
ATOM      3  C   UNL     1       2.397   7.077  19.993  0.00  0.00    +0.000 A 
ATOM      4  C   UNL     1       1.563   8.155  20.306  0.00  0.00    +0.000 A 
ATOM      5  C   UNL     1       1.266   9.112  19.342  0.00  0.00    +0.000 A 
ATOM      6  C   UNL     1       1.827   9.005  18.075  0.00  0.00    +0.000 A 
ATOM      7  C   UNL     1       2.667   7.931  17.761  0.00  0.00    +0.000 A 
ENDBRANCH   1   2
BRANCH   1   8
ATOM      8  C   UNL     1       2.924   4.369  18.700  0.00  0.00    +0.000 A 
ATOM      9  C   UNL     1       3.390   3.453  19.667  0.00  0.00    +0.000 A 
ATOM     10  C   UNL     1       2.706   2.262  19.933  0.00  0.00    +0.000 A 
ATOM     11  C   UNL     1       1.525   1.970  19.262  0.00  0.00    +0.000 A 
ATOM     12  C   UNL     1       1.010   2.882  18.349  0.00  0.00    +0.000 A 
ATOM     13  C   UNL     1       1.690   4.075  18.085  0.00  0.00    +0.000 A 
ENDBRANCH   1   8
BRANCH   1  15
ATOM     14  C   UNL     1       4.990   6.957  16.428  0.00  0.00    +0.000 C 
ATOM     15  C   UNL     1       4.155   5.702  16.777  0.00  0.00    +0.000 C 
BRANCH  15  16
ATOM     16  C   UNL     1       4.908   4.419  16.286  0.00  0.00    +0.000 C 
BRANCH  16  17
ATOM     17  N   UNL     1       6.156   4.650  15.525  0.00  0.00    +0.000 NA
ATOM     18  C   UNL     1       7.312   4.311  16.374  0.00  0.00    +0.000 C 
ATOM     19  C   UNL     1       6.218   3.863  14.294  0.00  0.00    +0.000 C 
ENDBRANCH  16  17
ENDBRANCH  15  16
ENDBRANCH   1  15
BRANCH   1  20
ATOM     20  C   UNL     1       5.074   5.575  19.066  0.00  0.00    +0.000 C 
ATOM     21  N   UNL     1       6.084   5.522  19.633  0.00  0.00    +0.000 NA
ENDBRANCH   1  20
TORSDOF 6
ENDMDL
MODEL 4
REMARK VINA RESULT:      -6.7      1.875      4.188
REMARK  Name = 
REMARK  9 active torsions:
REMARK  status: ('A' for Active; 'I' for Inactive)
REMARK    1  A    between atoms: C_1  and  C_2
REMARK    2  A    between atoms: C_2  and  C_3
REMARK    3  A    between atoms: C_2  and  C_7
REMARK    4  A    between atoms: C_3  and  N_4
REMARK    5  A    between atoms: N_4  and  C_5
REMARK    6  A    between atoms: N_4  and  C_6
REMARK    7  A    between atoms: C_7  and  C_8
REMARK    8  A    between atoms: C_7  and  C_10
REMARK    9  A    between atoms: C_7  and  C_16
REMARK                            x       y       z     vdW  Elec       q    Type
REMARK                         _______ _______ _______ _____ _____    ______ ____
ROOT
ATOM      1  C   UNL     1       2.963   5.555  18.463  0.00  0.00    +0.000 C 
ENDROOT
BRANCH   1   2
ATOM      2  C   UNL     1       2.433   7.003  18.722  0.00  0.00    +0.000 A 
ATOM      3  C   UNL     1       2.049   7.413  20.018  0.00  0.00    +0.000 A 
ATOM      4  C   UNL     1       1.457   8.659  20.246  0.00  0.00    +0.000 A 
ATOM      5  C   UNL     1       1.242   9.537  19.189  0.00  0.00    +0.000 A 
ATOM      6  C   UNL     1       1.647   9.178  17.909  0.00  0.00    +0.000 A 
ATOM      7  C   UNL     1       2.246   7.934  17.678  0.00  0.00    +0.000 A 
ENDBRANCH   1   2
BRANCH   1   8
ATOM      8  C   UNL     1       4.222   5.624  17.537  0.00  0.00    +0.000 A 
ATOM      9  C   UNL     1       4.378   4.719  16.467  0.00  0.00    +0.000 A 
ATOM     10  C   UNL     1       5.545   4.697  15.695  0.00  0.00    +0.000 A 
ATOM     11  C   UNL     1       6.571   5.598  15.953  0.00  0.00    +0.000 A 
ATOM     12  C   UNL     1       6.417   6.542  16.961  0.00  0.00    +0.000 A 
ATOM     13  C   UNL     1       5.250   6.568  17.731  0.00  0.00    +0.000 A 
ENDBRANCH   1   8
BRANCH   1  15
ATOM     14  C   UNL     1       1.976   4.274  20.526  0.00  0.00    +0.000 C 
ATOM     15  C   UNL     1       3.256   4.849  19.873  0.00  0.00    +0.000 C 
BRANCH  15  16
ATOM     16  C   UNL     1       4.344   3.727  19.775  0.00  0.00    +0.000 C 
BRANCH  16  17
ATOM     17  N   UNL     1       3.865   2.340  19.972  0.00  0.00    +0.000 NA
ATOM     18  C   UNL     1       3.710   1.690  18.659  0.00  0.00    +0.000 C 
ATOM     19  C   UNL     1       4.773   1.543  20.796  0.00  0.00    +0.000 C 
ENDBRANCH  16  17
ENDBRANCH  15  16
ENDBRANCH   1  15
BRANCH   1  20
ATOM     20  C   UNL     1       1.925   4.692  17.799  0.00  0.00    +0.000 C 
ATOM     21  N   UNL     1       1.123   4.026  17.291  0.00  0.00    +0.000 NA
ENDBRANCH   1  20
TORSDOF 6
ENDMDL
MODEL 5
REMARK VINA RESULT:      -6.6      1.879      4.238
REMARK  Name = 
REMARK  9 active torsions:
REMARK  status: ('A' for Active; 'I' for Inactive)
REMARK    1  A    between atoms: C_1  and  C_2
REMARK    2  A    between atoms: C_2  and  C_3
REMARK    3  A    between atoms: C_2  and  C_7
REMARK    4  A    between atoms: C_3  and  N_4
REMARK    5  A    between atoms: N_4  and  C_5
REMARK    6  A    between atoms: N_4  and  C_6
REMARK    7  A    between atoms: C_7  and  C_8
REMARK    8  A    between atoms: C_7  and  C_10
REMARK    9  A    between atoms: C_7  and  C_16
REMARK                            x       y       z     vdW  Elec       q    Type
REMARK                         _______ _______ _______ _____ _____    ______ ____
ROOT
ATOM      1  C   UNL     1       2.943   5.491  18.470  0.00  0.00    +0.000 C 
ENDROOT
BRANCH   1   2
ATOM      2  C   UNL     1       2.432   6.949  18.708  0.00  0.00    +0.000 A 
ATOM      3  C   UNL     1       2.060   7.384  20.000  0.00  0.00    +0.000 A 
ATOM      4  C   UNL     1       1.483   8.641  20.211  0.00  0.00    +0.000 A 
ATOM      5  C   UNL     1       1.273   9.503  19.140  0.00  0.00    +0.000 A 
ATOM      6  C   UNL     1       1.666   9.119  17.864  0.00  0.00    +0.000 A 
ATOM      7  C   UNL     1       2.249   7.864  17.651  0.00  0.00    +0.000 A 
ENDBRANCH   1   2
BRANCH   1   8
ATOM      8  C   UNL     1       4.206   5.531  17.549  0.00  0.00    +0.000 A 
ATOM      9  C   UNL     1       5.239   6.463  17.784  0.00  0.00    +0.000 A 
ATOM     10  C   UNL     1       6.324   6.585  16.910  0.00  0.00    +0.000 A 
ATOM     11  C   UNL     1       6.420   5.760  15.795  0.00  0.00    +0.000 A 
ATOM     12  C   UNL     1       5.449   4.792  15.573  0.00  0.00    +0.000 A 
ATOM     13  C   UNL     1       4.366   4.665  16.448  0.00  0.00    +0.000 A 
ENDBRANCH   1   8
BRANCH   1  15
ATOM     14  C   UNL     1       1.941   4.203  20.522  0.00  0.00    +0.000 C 
ATOM     15  C   UNL     1       3.222   4.799  19.891  0.00  0.00    +0.000 C 
BRANCH  15  16
ATOM     16  C   UNL     1       4.334   3.699  19.822  0.00  0.00    +0.000 C 
BRANCH  16  17
ATOM     17  N   UNL     1       3.878   2.304  20.013  0.00  0.00    +0.000 NA
ATOM     18  C   UNL     1       3.693   1.669  18.697  0.00  0.00    +0.000 C 
ATOM     19  C   UNL     1       4.820   1.507  20.800  0.00  0.00    +0.000 C 
ENDBRANCH  16  17
ENDBRANCH  15  16
ENDBRANCH   1  15
BRANCH   1  20
ATOM     20  C   UNL     1       1.897   4.633  17.814  0.00  0.00    +0.000 C 
ATOM     21  N   UNL     1       1.088   3.976  17.305  0.00  0.00    +0.000 NA
ENDBRANCH   1  20
TORSDOF 6
ENDMDL
MODEL 6
REMARK VINA RESULT:      -6.6      0.321      1.489
REMARK  Name = 
REMARK  9 active torsions:
REMARK  status: ('A' for Active; 'I' for Inactive)
REMARK    1  A    between atoms: C_1  and  C_2
REMARK    2  A    between atoms: C_2  and  C_3
REMARK    3  A    between atoms: C_2  and  C_7
REMARK    4  A    between atoms: C_3  and  N_4
REMARK    5  A    between atoms: N_4  and  C_5
REMARK    6  A    between atoms: N_4  and  C_6
REMARK    7  A    between atoms: C_7  and  C_8
REMARK    8  A    between atoms: C_7  and  C_10
REMARK    9  A    between atoms: C_7  and  C_16
REMARK                            x       y       z     vdW  Elec       q    Type
REMARK                         _______ _______ _______ _____ _____    ______ ____
ROOT
ATOM      1  C   UNL     1       3.795   5.545  18.264  0.00  0.00    +0.000 C 
ENDROOT
BRANCH   1   2
ATOM      2  C   UNL     1       2.867   6.725  18.703  0.00  0.00    +0.000 A 
ATOM      3  C   UNL     1       2.522   7.750  17.794  0.00  0.00    +0.000 A 
ATOM      4  C   UNL     1       1.799   8.876  18.202  0.00  0.00    +0.000 A 
ATOM      5  C   UNL     1       1.390   9.004  19.525  0.00  0.00    +0.000 A 
ATOM      6  C   UNL     1       1.679   7.992  20.432  0.00  0.00    +0.000 A 
ATOM      7  C   UNL     1       2.398   6.861  20.026  0.00  0.00    +0.000 A 
ENDBRANCH   1   2
BRANCH   1   8
ATOM      8  C   UNL     1       3.040   4.191  18.473  0.00  0.00    +0.000 A 
ATOM      9  C   UNL     1       3.747   3.017  18.808  0.00  0.00    +0.000 A 
ATOM     10  C   UNL     1       3.104   1.778  18.895  0.00  0.00    +0.000 A 
ATOM     11  C   UNL     1       1.734   1.685  18.680  0.00  0.00    +0.000 A 
ATOM     12  C   UNL     1       1.002   2.835  18.410  0.00  0.00    +0.000 A 
ATOM     13  C   UNL     1       1.643   4.075  18.326  0.00  0.00    +0.000 A 
ENDBRANCH   1   8
BRANCH   1  15
ATOM     14  C   UNL     1       5.228   6.977  16.600  0.00  0.00    +0.000 C 
ATOM     15  C   UNL     1       4.255   5.782  16.746  0.00  0.00    +0.000 C 
BRANCH  15  16
ATOM     16  C   UNL     1       4.892   4.505  16.099  0.00  0.00    +0.000 C 
BRANCH  16  17
ATOM     17  N   UNL     1       6.179   4.707  15.397  0.00  0.00    +0.000 NA
ATOM     18  C   UNL     1       7.283   4.298  16.283  0.00  0.00    +0.000 C 
ATOM     19  C   UNL     1       6.263   3.952  14.148  0.00  0.00    +0.000 C 
ENDBRANCH  16  17
ENDBRANCH  15  16
ENDBRANCH   1  15
BRANCH   1  20
ATOM     20  C   UNL     1       5.070   5.512  19.061  0.00  0.00    +0.000 C 
ATOM     21  N   UNL     1       6.052   5.482  19.678  0.00  0.00    +0.000 NA
ENDBRANCH   1  20
TORSDOF 6
ENDMDL
MODEL 7
REMARK VINA RESULT:      -6.5      1.199      1.406
REMARK  Name = 
REMARK  9 active torsions:
REMARK  status: ('A' for Active; 'I' for Inactive)
REMARK    1  A    between atoms: C_1  and  C_2
REMARK    2  A    between atoms: C_2  and  C_3
REMARK    3  A    between atoms: C_2  and  C_7
REMARK    4  A    between atoms: C_3  and  N_4
REMARK    5  A    between atoms: N_4  and  C_5
REMARK    6  A    between atoms: N_4  and  C_6
REMARK    7  A    between atoms: C_7  and  C_8
REMARK    8  A    between atoms: C_7  and  C_10
REMARK    9  A    between atoms: C_7  and  C_16
REMARK                            x       y       z     vdW  Elec       q    Type
REMARK                         _______ _______ _______ _____ _____    ______ ____
ROOT
ATOM      1  C   UNL     1       4.952   5.350  18.170  0.00  0.00    +0.000 C 
ENDROOT
BRANCH   1   2
ATOM      2  C   UNL     1       3.898   6.473  18.440  0.00  0.00    +0.000 A 
ATOM      3  C   UNL     1       3.128   6.473  19.624  0.00  0.00    +0.000 A 
ATOM      4  C   UNL     1       2.096   7.395  19.826  0.00  0.00    +0.000 A 
ATOM      5  C   UNL     1       1.811   8.350  18.857  0.00  0.00    +0.000 A 
ATOM      6  C   UNL     1       2.579   8.402  17.700  0.00  0.00    +0.000 A 
ATOM      7  C   UNL     1       3.617   7.484  17.498  0.00  0.00    +0.000 A 
ENDBRANCH   1   2
BRANCH   1   8
ATOM      8  C   UNL     1       4.247   3.955  18.235  0.00  0.00    +0.000 A 
ATOM      9  C   UNL     1       3.212   3.629  17.334  0.00  0.00    +0.000 A 
ATOM     10  C   UNL     1       2.499   2.431  17.445  0.00  0.00    +0.000 A 
ATOM     11  C   UNL     1       2.822   1.515  18.439  0.00  0.00    +0.000 A 
ATOM     12  C   UNL     1       3.878   1.782  19.302  0.00  0.00    +0.000 A 
ATOM     13  C   UNL     1       4.594   2.978  19.190  0.00  0.00    +0.000 A 
ENDBRANCH   1   8
BRANCH   1  15
ATOM     14  C   UNL     1       6.515   6.922  16.771  0.00  0.00    +0.000 C 
ATOM     15  C   UNL     1       5.661   5.632  16.759  0.00  0.00    +0.000 C 
BRANCH  15  16
ATOM     16  C   UNL     1       6.537   4.429  16.269  0.00  0.00    +0.000 C 
BRANCH  16  17
ATOM     17  N   UNL     1       6.435   4.096  14.830  0.00  0.00    +0.000 NA
ATOM     18  C   UNL     1       5.065   4.372  14.364  0.00  0.00    +0.000 C 
ATOM     19  C   UNL     1       7.382   4.852  14.011  0.00  0.00    +0.000 C 
ENDBRANCH  16  17
ENDBRANCH  15  16
ENDBRANCH   1  15
BRANCH   1  20
ATOM     20  C   UNL     1       6.065   5.374  19.181  0.00  0.00    +0.000 C 
ATOM     21  N   UNL     1       6.926   5.392  19.958  0.00  0.00    +0.000 NA
ENDBRANCH   1  20
TORSDOF 6
ENDMDL
MODEL 8
REMARK VINA RESULT:      -6.5      1.881      4.324
REMARK  Name = 
REMARK  9 active torsions:
REMARK  status: ('A' for Active; 'I' for Inactive)
REMARK    1  A    between atoms: C_1  and  C_2
REMARK    2  A    between atoms: C_2  and  C_3
REMARK    3  A    between atoms: C_2  and  C_7
REMARK    4  A    between atoms: C_3  and  N_4
REMARK    5  A    between atoms: N_4  and  C_5
REMARK    6  A    between atoms: N_4  and  C_6
REMARK    7  A    between atoms: C_7  and  C_8
REMARK    8  A    between atoms: C_7  and  C_10
REMARK    9  A    between atoms: C_7  and  C_16
REMARK                            x       y       z     vdW  Elec       q    Type
REMARK                         _______ _______ _______ _____ _____    ______ ____
ROOT
ATOM      1  C   UNL     1       2.921   5.511  18.475  0.00  0.00    +0.000 C 
ENDROOT
BRANCH   1   2
ATOM      2  C   UNL     1       2.317   6.932  18.719  0.00  0.00    +0.000 A 
ATOM      3  C   UNL     1       2.148   7.840  17.651  0.00  0.00    +0.000 A 
ATOM      4  C   UNL     1       1.729   9.157  17.868  0.00  0.00    +0.000 A 
ATOM      5  C   UNL     1       1.454   9.600  19.157  0.00  0.00    +0.000 A 
ATOM      6  C   UNL     1       1.572   8.718  20.224  0.00  0.00    +0.000 A 
ATOM      7  C   UNL     1       1.986   7.398  20.009  0.00  0.00    +0.000 A 
ENDBRANCH   1   2
BRANCH   1   8
ATOM      8  C   UNL     1       4.175   5.636  17.549  0.00  0.00    +0.000 A 
ATOM      9  C   UNL     1       4.367   4.744  16.473  0.00  0.00    +0.000 A 
ATOM     10  C   UNL     1       5.533   4.773  15.701  0.00  0.00    +0.000 A 
ATOM     11  C   UNL     1       6.522   5.713  15.964  0.00  0.00    +0.000 A 
ATOM     12  C   UNL     1       6.332   6.644  16.978  0.00  0.00    +0.000 A 
ATOM     13  C   UNL     1       5.166   6.618  17.749  0.00  0.00    +0.000 A 
ENDBRANCH   1   8
BRANCH   1  15
ATOM     14  C   UNL     1       1.989   4.254  20.578  0.00  0.00    +0.000 C 
ATOM     15  C   UNL     1       3.249   4.835  19.893  0.00  0.00    +0.000 C 
BRANCH  15  16
ATOM     16  C   UNL     1       4.351   3.727  19.795  0.00  0.00    +0.000 C 
BRANCH  16  17
ATOM     17  N   UNL     1       3.890   2.334  19.992  0.00  0.00    +0.000 NA
ATOM     18  C   UNL     1       3.740   1.682  18.679  0.00  0.00    +0.000 C 
ATOM     19  C   UNL     1       4.809   1.548  20.815  0.00  0.00    +0.000 C 
ENDBRANCH  16  17
ENDBRANCH  15  16
ENDBRANCH   1  15
BRANCH   1  20
ATOM     20  C   UNL     1       1.930   4.589  17.819  0.00  0.00    +0.000 C 
ATOM     21  N   UNL     1       1.169   3.876  17.312  0.00  0.00    +0.000 NA
ENDBRANCH   1  20
TORSDOF 6
ENDMDL
MODEL 9
REMARK VINA RESULT:      -6.4      1.211      1.732
REMARK  Name = 
REMARK  9 active torsions:
REMARK  status: ('A' for Active; 'I' for Inactive)
REMARK    1  A    between atoms: C_1  and  C_2
REMARK    2  A    between atoms: C_2  and  C_3
REMARK    3  A    between atoms: C_2  and  C_7
REMARK    4  A    between atoms: C_3  and  N_4
REMARK    5  A    between atoms: N_4  and  C_5
REMARK    6  A    between atoms: N_4  and  C_6
REMARK    7  A    between atoms: C_7  and  C_8
REMARK    8  A    between atoms: C_7  and  C_10
REMARK    9  A    between atoms: C_7  and  C_16
REMARK                            x       y       z     vdW  Elec       q    Type
REMARK                         _______ _______ _______ _____ _____    ______ ____
ROOT
ATOM      1  C   UNL     1       4.891   5.361  18.186  0.00  0.00    +0.000 C 
ENDROOT
BRANCH   1   2
ATOM      2  C   UNL     1       3.851   6.497  18.458  0.00  0.00    +0.000 A 
ATOM      3  C   UNL     1       3.086   6.509  19.645  0.00  0.00    +0.000 A 
ATOM      4  C   UNL     1       2.066   7.444  19.849  0.00  0.00    +0.000 A 
ATOM      5  C   UNL     1       1.788   8.400  18.878  0.00  0.00    +0.000 A 
ATOM      6  C   UNL     1       2.552   8.439  17.717  0.00  0.00    +0.000 A 
ATOM      7  C   UNL     1       3.577   7.508  17.513  0.00  0.00    +0.000 A 
ENDBRANCH   1   2
BRANCH   1   8
ATOM      8  C   UNL     1       4.174   3.974  18.283  0.00  0.00    +0.000 A 
ATOM      9  C   UNL     1       4.538   3.044  19.280  0.00  0.00    +0.000 A 
ATOM     10  C   UNL     1       3.984   1.760  19.316  0.00  0.00    +0.000 A 
ATOM     11  C   UNL     1       3.031   1.383  18.378  0.00  0.00    +0.000 A 
ATOM     12  C   UNL     1       2.609   2.299  17.422  0.00  0.00    +0.000 A 
ATOM     13  C   UNL     1       3.159   3.584  17.386  0.00  0.00    +0.000 A 
ENDBRANCH   1   8
BRANCH   1  15
ATOM     14  C   UNL     1       6.413   6.919  16.728  0.00  0.00    +0.000 C 
ATOM     15  C   UNL     1       5.579   5.616  16.759  0.00  0.00    +0.000 C 
BRANCH  15  16
ATOM     16  C   UNL     1       6.466   4.414  16.290  0.00  0.00    +0.000 C 
BRANCH  16  17
ATOM     17  N   UNL     1       6.370   4.058  14.857  0.00  0.00    +0.000 NA
ATOM     18  C   UNL     1       5.017   4.374  14.368  0.00  0.00    +0.000 C 
ATOM     19  C   UNL     1       7.353   4.764  14.035  0.00  0.00    +0.000 C 
ENDBRANCH  16  17
ENDBRANCH  15  16
ENDBRANCH   1  15
BRANCH   1  20
ATOM     20  C   UNL     1       6.020   5.388  19.179  0.00  0.00    +0.000 C 
ATOM     21  N   UNL     1       6.890   5.414  19.945  0.00  0.00    +0.000 NA
ENDBRANCH   1  20
TORSDOF 6
ENDMDL
