MODEL 1
REMARK VINA RESULT:      -6.7      0.000      0.000
REMARK  Name = 
REMARK  2 active torsions:
REMARK  status: ('A' for Active; 'I' for Inactive)
REMARK    1  A    between atoms: C_2  and  C_4
REMARK    2  A    between atoms: C_8  and  C_9
REMARK                            x       y       z     vdW  Elec       q    Type
REMARK                         _______ _______ _______ _____ _____    ______ ____
ROOT
ATOM      1  C   UNL     1       6.593   4.610  16.378  0.00  0.00    +0.000 A 
ATOM      2  N   UNL     1       7.887   4.568  16.858  0.00  0.00    +0.000 N 
ATOM      3  C   UNL     1       7.844   4.598  18.218  0.00  0.00    +0.000 A 
ATOM      4  N   UNL     1       6.607   4.583  18.654  0.00  0.00    +0.000 NA
ATOM      5  C   UNL     1       5.816   4.529  17.524  0.00  0.00    +0.000 A 
ATOM      6  H   UNL     1       8.716   4.558  16.279  0.00  0.00    +0.000 HD
ENDROOT
BRANCH   5   7
ATOM      7  C   UNL     1       4.371   4.385  17.615  0.00  0.00    +0.000 A 
ATOM      8  C   UNL     1       3.579   5.502  17.909  0.00  0.00    +0.000 A 
ATOM      9  C   UNL     1       2.191   5.382  18.013  0.00  0.00    +0.000 A 
ATOM     10  C   UNL     1       1.582   4.143  17.824  0.00  0.00    +0.000 A 
ATOM     11  C   UNL     1       2.359   3.021  17.549  0.00  0.00    +0.000 A 
ATOM     12  C   UNL     1       3.748   3.138  17.463  0.00  0.00    +0.000 A 
ENDBRANCH   5   7
BRANCH   1  14
ATOM     13  N   UNL     1       6.279   3.510  14.291  0.00  0.00    +0.000 N 
ATOM     14  C   UNL     1       6.322   4.687  14.970  0.00  0.00    +0.000 C 
ATOM     15  O   UNL     1       6.067   5.740  14.396  0.00  0.00    +0.000 OA
ATOM     16  H   UNL     1       6.054   3.537  13.306  0.00  0.00    +0.000 HD
ATOM     17  H   UNL     1       6.367   2.612  14.745  0.00  0.00    +0.000 HD
ENDBRANCH   1  14
TORSDOF 2
ENDMDL
MODEL 2
REMARK VINA RESULT:      -6.6      1.211      1.749
REMARK  Name = 
REMARK  2 active torsions:
REMARK  status: ('A' for Active; 'I' for Inactive)
REMARK    1  A    between atoms: C_2  and  C_4
REMARK    2  A    between atoms: C_8  and  C_9
REMARK                            x       y       z     vdW  Elec       q    Type
REMARK                         _______ _______ _______ _____ _____    ______ ____
ROOT
ATOM      1  C   UNL     1       6.691   4.790  17.299  0.00  0.00    +0.000 A 
ATOM      2  N   UNL     1       7.848   5.133  17.970  0.00  0.00    +0.000 N 
ATOM      3  C   UNL     1       7.526   5.439  19.256  0.00  0.00    +0.000 A 
ATOM      4  N   UNL     1       6.249   5.248  19.484  0.00  0.00    +0.000 NA
ATOM      5  C   UNL     1       5.725   4.787  18.293  0.00  0.00    +0.000 A 
ATOM      6  H   UNL     1       8.766   5.181  17.548  0.00  0.00    +0.000 HD
ENDROOT
BRANCH   5   7
ATOM      7  C   UNL     1       4.339   4.354  18.190  0.00  0.00    +0.000 A 
ATOM      8  C   UNL     1       4.034   2.988  18.240  0.00  0.00    +0.000 A 
ATOM      9  C   UNL     1       2.712   2.551  18.130  0.00  0.00    +0.000 A 
ATOM     10  C   UNL     1       1.682   3.476  17.969  0.00  0.00    +0.000 A 
ATOM     11  C   UNL     1       1.973   4.835  17.900  0.00  0.00    +0.000 A 
ATOM     12  C   UNL     1       3.297   5.271  17.991  0.00  0.00    +0.000 A 
ENDBRANCH   5   7
BRANCH   1  14
ATOM     13  N   UNL     1       7.459   5.326  15.111  0.00  0.00    +0.000 N 
ATOM     14  C   UNL     1       6.701   4.509  15.891  0.00  0.00    +0.000 C 
ATOM     15  O   UNL     1       6.124   3.547  15.397  0.00  0.00    +0.000 OA
ATOM     16  H   UNL     1       7.510   5.126  14.121  0.00  0.00    +0.000 HD
ATOM     17  H   UNL     1       8.043   6.058  15.490  0.00  0.00    +0.000 HD
ENDBRANCH   1  14
TORSDOF 2
ENDMDL
MODEL 3
REMARK VINA RESULT:      -6.6      1.210      1.229
REMARK  Name = 
REMARK  2 active torsions:
REMARK  status: ('A' for Active; 'I' for Inactive)
REMARK    1  A    between atoms: C_2  and  C_4
REMARK    2  A    between atoms: C_8  and  C_9
REMARK                            x       y       z     vdW  Elec       q    Type
REMARK                         _______ _______ _______ _____ _____    ______ ____
ROOT
ATOM      1  C   UNL     1       6.681   4.791  17.295  0.00  0.00    +0.000 A 
ATOM      2  N   UNL     1       7.843   5.135  17.957  0.00  0.00    +0.000 N 
ATOM      3  C   UNL     1       7.532   5.428  19.249  0.00  0.00    +0.000 A 
ATOM      4  N   UNL     1       6.259   5.228  19.488  0.00  0.00    +0.000 NA
ATOM      5  C   UNL     1       5.725   4.774  18.300  0.00  0.00    +0.000 A 
ATOM      6  H   UNL     1       8.756   5.192  17.526  0.00  0.00    +0.000 HD
ENDROOT
BRANCH   5   7
ATOM      7  C   UNL     1       4.341   4.333  18.207  0.00  0.00    +0.000 A 
ATOM      8  C   UNL     1       3.327   5.275  17.985  0.00  0.00    +0.000 A 
ATOM      9  C   UNL     1       1.991   4.874  17.906  0.00  0.00    +0.000 A 
ATOM     10  C   UNL     1       1.656   3.529  18.048  0.00  0.00    +0.000 A 
ATOM     11  C   UNL     1       2.651   2.586  18.288  0.00  0.00    +0.000 A 
ATOM     12  C   UNL     1       3.986   2.989  18.385  0.00  0.00    +0.000 A 
ENDBRANCH   5   7
BRANCH   1  14
ATOM     13  N   UNL     1       7.448   5.329  15.107  0.00  0.00    +0.000 N 
ATOM     14  C   UNL     1       6.678   4.521  15.885  0.00  0.00    +0.000 C 
ATOM     15  O   UNL     1       6.078   3.575  15.387  0.00  0.00    +0.000 OA
ATOM     16  H   UNL     1       7.490   5.136  14.116  0.00  0.00    +0.000 HD
ATOM     17  H   UNL     1       8.049   6.045  15.489  0.00  0.00    +0.000 HD
ENDBRANCH   1  14
TORSDOF 2
ENDMDL
MODEL 4
REMARK VINA RESULT:      -6.6      3.333      4.987
REMARK  Name = 
REMARK  2 active torsions:
REMARK  status: ('A' for Active; 'I' for Inactive)
REMARK    1  A    between atoms: C_2  and  C_4
REMARK    2  A    between atoms: C_8  and  C_9
REMARK                            x       y       z     vdW  Elec       q    Type
REMARK                         _______ _______ _______ _____ _____    ______ ____
ROOT
ATOM      1  C   UNL     1       2.890   2.387  18.852  0.00  0.00    +0.000 A 
ATOM      2  N   UNL     1       1.677   1.763  19.068  0.00  0.00    +0.000 N 
ATOM      3  C   UNL     1       0.686   2.579  18.614  0.00  0.00    +0.000 A 
ATOM      4  N   UNL     1       1.178   3.658  18.055  0.00  0.00    +0.000 NA
ATOM      5  C   UNL     1       2.550   3.527  18.140  0.00  0.00    +0.000 A 
ATOM      6  H   UNL     1       1.562   0.868  19.523  0.00  0.00    +0.000 HD
ENDROOT
BRANCH   5   7
ATOM      7  C   UNL     1       3.445   4.490  17.516  0.00  0.00    +0.000 A 
ATOM      8  C   UNL     1       4.369   4.058  16.556  0.00  0.00    +0.000 A 
ATOM      9  C   UNL     1       5.245   4.964  15.955  0.00  0.00    +0.000 A 
ATOM     10  C   UNL     1       5.206   6.312  16.308  0.00  0.00    +0.000 A 
ATOM     11  C   UNL     1       4.306   6.752  17.274  0.00  0.00    +0.000 A 
ATOM     12  C   UNL     1       3.442   5.842  17.889  0.00  0.00    +0.000 A 
ENDBRANCH   5   7
BRANCH   1  14
ATOM     13  N   UNL     1       4.444   0.585  18.816  0.00  0.00    +0.000 N 
ATOM     14  C   UNL     1       4.119   1.808  19.316  0.00  0.00    +0.000 C 
ATOM     15  O   UNL     1       4.891   2.391  20.069  0.00  0.00    +0.000 OA
ATOM     16  H   UNL     1       5.323   0.173  19.100  0.00  0.00    +0.000 HD
ATOM     17  H   UNL     1       3.897   0.121  18.105  0.00  0.00    +0.000 HD
ENDBRANCH   1  14
TORSDOF 2
ENDMDL
MODEL 5
REMARK VINA RESULT:      -6.6      1.512      2.860
REMARK  Name = 
REMARK  2 active torsions:
REMARK  status: ('A' for Active; 'I' for Inactive)
REMARK    1  A    between atoms: C_2  and  C_4
REMARK    2  A    between atoms: C_8  and  C_9
REMARK                            x       y       z     vdW  Elec       q    Type
REMARK                         _______ _______ _______ _____ _____    ______ ____
ROOT
ATOM      1  C   UNL     1       6.837   5.352  16.494  0.00  0.00    +0.000 A 
ATOM      2  N   UNL     1       7.568   5.332  15.322  0.00  0.00    +0.000 N 
ATOM      3  C   UNL     1       6.795   4.792  14.341  0.00  0.00    +0.000 A 
ATOM      4  N   UNL     1       5.588   4.527  14.778  0.00  0.00    +0.000 NA
ATOM      5  C   UNL     1       5.577   4.925  16.100  0.00  0.00    +0.000 A 
ATOM      6  H   UNL     1       8.529   5.636  15.238  0.00  0.00    +0.000 HD
ENDROOT
BRANCH   5   7
ATOM      7  C   UNL     1       4.358   4.889  16.894  0.00  0.00    +0.000 A 
ATOM      8  C   UNL     1       3.657   3.684  17.034  0.00  0.00    +0.000 A 
ATOM      9  C   UNL     1       2.478   3.631  17.782  0.00  0.00    +0.000 A 
ATOM     10  C   UNL     1       1.989   4.783  18.396  0.00  0.00    +0.000 A 
ATOM     11  C   UNL     1       2.666   5.990  18.249  0.00  0.00    +0.000 A 
ATOM     12  C   UNL     1       3.835   6.047  17.486  0.00  0.00    +0.000 A 
ENDBRANCH   5   7
BRANCH   1  14
ATOM     13  N   UNL     1       7.729   4.807  18.631  0.00  0.00    +0.000 N 
ATOM     14  C   UNL     1       7.423   5.781  17.732  0.00  0.00    +0.000 C 
ATOM     15  O   UNL     1       7.710   6.949  17.966  0.00  0.00    +0.000 OA
ATOM     16  H   UNL     1       8.175   5.081  19.496  0.00  0.00    +0.000 HD
ATOM     17  H   UNL     1       7.617   3.823  18.433  0.00  0.00    +0.000 HD
ENDBRANCH   1  14
TORSDOF 2
ENDMDL
MODEL 6
REMARK VINA RESULT:      -6.6      1.514      2.559
REMARK  Name = 
REMARK  2 active torsions:
REMARK  status: ('A' for Active; 'I' for Inactive)
REMARK    1  A    between atoms: C_2  and  C_4
REMARK    2  A    between atoms: C_8  and  C_9
REMARK                            x       y       z     vdW  Elec       q    Type
REMARK                         _______ _______ _______ _____ _____    ______ ____
ROOT
ATOM      1  C   UNL     1       6.827   5.331  16.475  0.00  0.00    +0.000 A 
ATOM      2  N   UNL     1       7.563   5.331  15.307  0.00  0.00    +0.000 N 
ATOM      3  C   UNL     1       6.793   4.814  14.312  0.00  0.00    +0.000 A 
ATOM      4  N   UNL     1       5.583   4.544  14.739  0.00  0.00    +0.000 NA
ATOM      5  C   UNL     1       5.568   4.916  16.068  0.00  0.00    +0.000 A 
ATOM      6  H   UNL     1       8.526   5.633  15.233  0.00  0.00    +0.000 HD
ENDROOT
BRANCH   5   7
ATOM      7  C   UNL     1       4.345   4.870  16.856  0.00  0.00    +0.000 A 
ATOM      8  C   UNL     1       3.869   6.037  17.468  0.00  0.00    +0.000 A 
ATOM      9  C   UNL     1       2.704   6.011  18.238  0.00  0.00    +0.000 A 
ATOM     10  C   UNL     1       2.004   4.818  18.405  0.00  0.00    +0.000 A 
ATOM     11  C   UNL     1       2.476   3.647  17.818  0.00  0.00    +0.000 A 
ATOM     12  C   UNL     1       3.651   3.669  17.063  0.00  0.00    +0.000 A 
ENDBRANCH   5   7
BRANCH   1  14
ATOM     13  N   UNL     1       7.752   4.739  18.587  0.00  0.00    +0.000 N 
ATOM     14  C   UNL     1       7.409   5.734  17.724  0.00  0.00    +0.000 C 
ATOM     15  O   UNL     1       7.662   6.901  17.998  0.00  0.00    +0.000 OA
ATOM     16  H   UNL     1       8.196   4.996  19.457  0.00  0.00    +0.000 HD
ATOM     17  H   UNL     1       7.669   3.759  18.353  0.00  0.00    +0.000 HD
ENDBRANCH   1  14
TORSDOF 2
ENDMDL
MODEL 7
REMARK VINA RESULT:      -6.5      0.724      1.471
REMARK  Name = 
REMARK  2 active torsions:
REMARK  status: ('A' for Active; 'I' for Inactive)
REMARK    1  A    between atoms: C_2  and  C_4
REMARK    2  A    between atoms: C_8  and  C_9
REMARK                            x       y       z     vdW  Elec       q    Type
REMARK                         _______ _______ _______ _____ _____    ______ ____
ROOT
ATOM      1  C   UNL     1       6.135   4.958  16.447  0.00  0.00    +0.000 A 
ATOM      2  N   UNL     1       7.477   5.006  16.769  0.00  0.00    +0.000 N 
ATOM      3  C   UNL     1       7.618   4.675  18.082  0.00  0.00    +0.000 A 
ATOM      4  N   UNL     1       6.465   4.347  18.615  0.00  0.00    +0.000 NA
ATOM      5  C   UNL     1       5.540   4.459  17.597  0.00  0.00    +0.000 A 
ATOM      6  H   UNL     1       8.213   5.281  16.132  0.00  0.00    +0.000 HD
ENDROOT
BRANCH   5   7
ATOM      7  C   UNL     1       4.153   4.061  17.783  0.00  0.00    +0.000 A 
ATOM      8  C   UNL     1       3.814   2.702  17.775  0.00  0.00    +0.000 A 
ATOM      9  C   UNL     1       2.486   2.300  17.941  0.00  0.00    +0.000 A 
ATOM     10  C   UNL     1       1.485   3.254  18.115  0.00  0.00    +0.000 A 
ATOM     11  C   UNL     1       1.806   4.608  18.106  0.00  0.00    +0.000 A 
ATOM     12  C   UNL     1       3.131   5.011  17.923  0.00  0.00    +0.000 A 
ENDBRANCH   5   7
BRANCH   1  14
ATOM     13  N   UNL     1       5.555   4.370  14.216  0.00  0.00    +0.000 N 
ATOM     14  C   UNL     1       5.665   5.353  15.150  0.00  0.00    +0.000 C 
ATOM     15  O   UNL     1       5.306   6.495  14.887  0.00  0.00    +0.000 OA
ATOM     16  H   UNL     1       5.192   4.617  13.305  0.00  0.00    +0.000 HD
ATOM     17  H   UNL     1       5.728   3.396  14.423  0.00  0.00    +0.000 HD
ENDBRANCH   1  14
TORSDOF 2
ENDMDL
MODEL 8
REMARK VINA RESULT:      -6.5      1.721      2.697
REMARK  Name = 
REMARK  2 active torsions:
REMARK  status: ('A' for Active; 'I' for Inactive)
REMARK    1  A    between atoms: C_2  and  C_4
REMARK    2  A    between atoms: C_8  and  C_9
REMARK                            x       y       z     vdW  Elec       q    Type
REMARK                         _______ _______ _______ _____ _____    ______ ____
ROOT
ATOM      1  C   UNL     1       6.419   4.790  17.548  0.00  0.00    +0.000 A 
ATOM      2  N   UNL     1       7.374   5.028  16.579  0.00  0.00    +0.000 N 
ATOM      3  C   UNL     1       6.950   4.474  15.411  0.00  0.00    +0.000 A 
ATOM      4  N   UNL     1       5.753   3.955  15.538  0.00  0.00    +0.000 NA
ATOM      5  C   UNL     1       5.381   4.196  16.845  0.00  0.00    +0.000 A 
ATOM      6  H   UNL     1       8.253   5.502  16.741  0.00  0.00    +0.000 HD
ENDROOT
BRANCH   5   7
ATOM      7  C   UNL     1       4.052   3.861  17.331  0.00  0.00    +0.000 A 
ATOM      8  C   UNL     1       3.106   4.877  17.523  0.00  0.00    +0.000 A 
ATOM      9  C   UNL     1       1.828   4.577  18.000  0.00  0.00    +0.000 A 
ATOM     10  C   UNL     1       1.483   3.259  18.291  0.00  0.00    +0.000 A 
ATOM     11  C   UNL     1       2.419   2.242  18.123  0.00  0.00    +0.000 A 
ATOM     12  C   UNL     1       3.703   2.544  17.663  0.00  0.00    +0.000 A 
ENDBRANCH   5   7
BRANCH   1  14
ATOM     13  N   UNL     1       7.924   5.300  19.320  0.00  0.00    +0.000 N 
ATOM     14  C   UNL     1       6.631   5.175  18.914  0.00  0.00    +0.000 C 
ATOM     15  O   UNL     1       5.716   5.452  19.681  0.00  0.00    +0.000 OA
ATOM     16  H   UNL     1       8.098   5.604  20.268  0.00  0.00    +0.000 HD
ATOM     17  H   UNL     1       8.708   5.195  18.691  0.00  0.00    +0.000 HD
ENDBRANCH   1  14
TORSDOF 2
ENDMDL
MODEL 9
REMARK VINA RESULT:      -6.5      1.721      2.977
REMARK  Name = 
REMARK  2 active torsions:
REMARK  status: ('A' for Active; 'I' for Inactive)
REMARK    1  A    between atoms: C_2  and  C_4
REMARK    2  A    between atoms: C_8  and  C_9
REMARK                            x       y       z     vdW  Elec       q    Type
REMARK                         _______ _______ _______ _____ _____    ______ ____
ROOT
ATOM      1  C   UNL     1       6.444   4.803  17.557  0.00  0.00    +0.000 A 
ATOM      2  N   UNL     1       7.396   5.027  16.582  0.00  0.00    +0.000 N 
ATOM      3  C   UNL     1       6.960   4.475  15.418  0.00  0.00    +0.000 A 
ATOM      4  N   UNL     1       5.757   3.971  15.553  0.00  0.00    +0.000 NA
ATOM      5  C   UNL     1       5.395   4.219  16.862  0.00  0.00    +0.000 A 
ATOM      6  H   UNL     1       8.282   5.491  16.738  0.00  0.00    +0.000 HD
ENDROOT
BRANCH   5   7
ATOM      7  C   UNL     1       4.064   3.901  17.356  0.00  0.00    +0.000 A 
ATOM      8  C   UNL     1       3.719   2.567  17.608  0.00  0.00    +0.000 A 
ATOM      9  C   UNL     1       2.442   2.239  18.071  0.00  0.00    +0.000 A 
ATOM     10  C   UNL     1       1.498   3.242  18.286  0.00  0.00    +0.000 A 
ATOM     11  C   UNL     1       1.823   4.570  18.021  0.00  0.00    +0.000 A 
ATOM     12  C   UNL     1       3.093   4.896  17.540  0.00  0.00    +0.000 A 
ENDBRANCH   5   7
BRANCH   1  14
ATOM     13  N   UNL     1       7.964   5.290  19.322  0.00  0.00    +0.000 N 
ATOM     14  C   UNL     1       6.668   5.189  18.921  0.00  0.00    +0.000 C 
ATOM     15  O   UNL     1       5.761   5.486  19.690  0.00  0.00    +0.000 OA
ATOM     16  H   UNL     1       8.148   5.595  20.268  0.00  0.00    +0.000 HD
ATOM     17  H   UNL     1       8.744   5.168  18.691  0.00  0.00    +0.000 HD
ENDBRANCH   1  14
TORSDOF 2
ENDMDL
