MODEL 1
REMARK VINA RESULT:      -8.8      0.000      0.000
REMARK  Name = 
REMARK  3 active torsions:
REMARK  status: ('A' for Active; 'I' for Inactive)
REMARK    1  A    between atoms: C_5  and  C_6
REMARK    2  A    between atoms: N_10  and  C_11
REMARK    3  A    between atoms: C_14  and  C_15
REMARK                            x       y       z     vdW  Elec       q    Type
REMARK                         _______ _______ _______ _____ _____    ______ ____
ROOT
ATOM      1  C   UNL     1       8.519   9.245  18.189  0.00  0.00    +0.000 A 
ATOM      2  N   UNL     1       8.742   8.153  18.891  0.00  0.00    +0.000 NA
ATOM      3  N   UNL     1       7.888   7.197  18.392  0.00  0.00    +0.000 NA
ATOM      4  C   UNL     1       7.210   7.755  17.413  0.00  0.00    +0.000 A 
ATOM      5  N   UNL     1       6.211   7.314  16.629  0.00  0.00    +0.000 N 
ATOM      6  O   UNL     1       7.583   9.059  17.205  0.00  0.00    +0.000 OA
ATOM      7  H   UNL     1       5.870   7.964  15.934  0.00  0.00    +0.000 HD
ENDROOT
BRANCH   1  12
ATOM      8 CL   UNL     1      10.947  14.657  18.985  0.00  0.00    +0.000 Cl
ATOM      9  C   UNL     1      10.246  13.107  18.743  0.00  0.00    +0.000 A 
ATOM     10  C   UNL     1      10.806  11.990  19.354  0.00  0.00    +0.000 A 
ATOM     11  C   UNL     1      10.232  10.732  19.158  0.00  0.00    +0.000 A 
ATOM     12  C   UNL     1       9.094  10.575  18.347  0.00  0.00    +0.000 A 
ATOM     13  C   UNL     1       8.542  11.711  17.738  0.00  0.00    +0.000 A 
ATOM     14  C   UNL     1       9.114  12.973  17.937  0.00  0.00    +0.000 A 
ENDBRANCH   1  12
BRANCH   5  15
ATOM     15  C   UNL     1       5.322   6.265  16.932  0.00  0.00    +0.000 A 
ATOM     16  C   UNL     1       4.166   6.556  17.672  0.00  0.00    +0.000 A 
ATOM     17  C   UNL     1       3.266   5.550  18.043  0.00  0.00    +0.000 A 
ATOM     18  C   UNL     1       3.488   4.220  17.667  0.00  0.00    +0.000 A 
ATOM     19  C   UNL     1       4.632   3.923  16.920  0.00  0.00    +0.000 A 
ATOM     20  C   UNL     1       5.531   4.934  16.554  0.00  0.00    +0.000 A 
BRANCH  18  21
ATOM     21  C   UNL     1       2.543   3.175  18.037  0.00  0.00    +0.000 A 
ATOM     22  N   UNL     1       1.180   3.362  18.031  0.00  0.00    +0.000 NA
ATOM     23  N   UNL     1       0.631   2.213  18.400  0.00  0.00    +0.000 NA
ATOM     24  N   UNL     1       1.671   1.400  18.611  0.00  0.00    +0.000 N 
ATOM     25  N   UNL     1       2.885   1.927  18.406  0.00  0.00    +0.000 NA
ATOM     26  H   UNL     1       1.542   0.437  18.909  0.00  0.00    +0.000 HD
ENDBRANCH  18  21
ENDBRANCH   5  15
TORSDOF 3
ENDMDL
MODEL 2
REMARK VINA RESULT:      -8.3      0.287      1.261
REMARK  Name = 
REMARK  3 active torsions:
REMARK  status: ('A' for Active; 'I' for Inactive)
REMARK    1  A    between atoms: C_5  and  C_6
REMARK    2  A    between atoms: N_10  and  C_11
REMARK    3  A    between atoms: C_14  and  C_15
REMARK                            x       y       z     vdW  Elec       q    Type
REMARK                         _______ _______ _______ _____ _____    ______ ____
ROOT
ATOM      1  C   UNL     1       8.581   9.341  18.222  0.00  0.00    +0.000 A 
ATOM      2  N   UNL     1       8.783   8.288  18.985  0.00  0.00    +0.000 NA
ATOM      3  N   UNL     1       7.943   7.306  18.514  0.00  0.00    +0.000 NA
ATOM      4  C   UNL     1       7.292   7.811  17.488  0.00  0.00    +0.000 A 
ATOM      5  N   UNL     1       6.316   7.329  16.701  0.00  0.00    +0.000 N 
ATOM      6  O   UNL     1       7.672   9.103  17.223  0.00  0.00    +0.000 OA
ATOM      7  H   UNL     1       5.995   7.942  15.963  0.00  0.00    +0.000 HD
ENDROOT
BRANCH   1  12
ATOM      8 CL   UNL     1      10.848  14.872  18.508  0.00  0.00    +0.000 Cl
ATOM      9  C   UNL     1      10.203  13.282  18.439  0.00  0.00    +0.000 A 
ATOM     10  C   UNL     1       9.013  13.045  17.758  0.00  0.00    +0.000 A 
ATOM     11  C   UNL     1       8.492  11.750  17.701  0.00  0.00    +0.000 A 
ATOM     12  C   UNL     1       9.153  10.677  18.326  0.00  0.00    +0.000 A 
ATOM     13  C   UNL     1      10.351  10.932  19.008  0.00  0.00    +0.000 A 
ATOM     14  C   UNL     1      10.875  12.229  19.064  0.00  0.00    +0.000 A 
ENDBRANCH   1  12
BRANCH   5  15
ATOM     15  C   UNL     1       5.417   6.297  17.033  0.00  0.00    +0.000 A 
ATOM     16  C   UNL     1       4.177   6.640  17.591  0.00  0.00    +0.000 A 
ATOM     17  C   UNL     1       3.259   5.658  17.983  0.00  0.00    +0.000 A 
ATOM     18  C   UNL     1       3.550   4.300  17.811  0.00  0.00    +0.000 A 
ATOM     19  C   UNL     1       4.780   3.951  17.246  0.00  0.00    +0.000 A 
ATOM     20  C   UNL     1       5.695   4.938  16.857  0.00  0.00    +0.000 A 
BRANCH  18  21
ATOM     21  C   UNL     1       2.588   3.278  18.203  0.00  0.00    +0.000 A 
ATOM     22  N   UNL     1       2.928   2.183  18.964  0.00  0.00    +0.000 NA
ATOM     23  N   UNL     1       1.819   1.480  19.144  0.00  0.00    +0.000 NA
ATOM     24  N   UNL     1       0.877   2.169  18.491  0.00  0.00    +0.000 N 
ATOM     25  N   UNL     1       1.281   3.292  17.885  0.00  0.00    +0.000 NA
ATOM     26  H   UNL     1      -0.089   1.854  18.461  0.00  0.00    +0.000 HD
ENDBRANCH  18  21
ENDBRANCH   5  15
TORSDOF 3
ENDMDL
MODEL 3
REMARK VINA RESULT:      -8.2      0.491      1.021
REMARK  Name = 
REMARK  3 active torsions:
REMARK  status: ('A' for Active; 'I' for Inactive)
REMARK    1  A    between atoms: C_5  and  C_6
REMARK    2  A    between atoms: N_10  and  C_11
REMARK    3  A    between atoms: C_14  and  C_15
REMARK                            x       y       z     vdW  Elec       q    Type
REMARK                         _______ _______ _______ _____ _____    ______ ____
ROOT
ATOM      1  C   UNL     1       8.698   9.515  18.205  0.00  0.00    +0.000 A 
ATOM      2  N   UNL     1       8.864   8.538  19.071  0.00  0.00    +0.000 NA
ATOM      3  N   UNL     1       8.054   7.509  18.648  0.00  0.00    +0.000 NA
ATOM      4  C   UNL     1       7.456   7.913  17.549  0.00  0.00    +0.000 A 
ATOM      5  N   UNL     1       6.525   7.352  16.759  0.00  0.00    +0.000 N 
ATOM      6  O   UNL     1       7.844   9.179  17.186  0.00  0.00    +0.000 OA
ATOM      7  H   UNL     1       6.240   7.892  15.953  0.00  0.00    +0.000 HD
ENDROOT
BRANCH   1  12
ATOM      8 CL   UNL     1      11.094  14.996  18.377  0.00  0.00    +0.000 Cl
ATOM      9  C   UNL     1      10.399  13.427  18.315  0.00  0.00    +0.000 A 
ATOM     10  C   UNL     1      11.120  12.330  18.777  0.00  0.00    +0.000 A 
ATOM     11  C   UNL     1      10.551  11.056  18.729  0.00  0.00    +0.000 A 
ATOM     12  C   UNL     1       9.257  10.861  18.216  0.00  0.00    +0.000 A 
ATOM     13  C   UNL     1       8.543  11.976  17.754  0.00  0.00    +0.000 A 
ATOM     14  C   UNL     1       9.111  13.255  17.805  0.00  0.00    +0.000 A 
ENDBRANCH   1  12
BRANCH   5  15
ATOM     15  C   UNL     1       5.615   6.346  17.137  0.00  0.00    +0.000 A 
ATOM     16  C   UNL     1       5.402   5.269  16.263  0.00  0.00    +0.000 A 
ATOM     17  C   UNL     1       4.478   4.260  16.562  0.00  0.00    +0.000 A 
ATOM     18  C   UNL     1       3.750   4.291  17.757  0.00  0.00    +0.000 A 
ATOM     19  C   UNL     1       3.964   5.356  18.638  0.00  0.00    +0.000 A 
ATOM     20  C   UNL     1       4.889   6.363  18.333  0.00  0.00    +0.000 A 
BRANCH  18  21
ATOM     21  C   UNL     1       2.801   3.234  18.077  0.00  0.00    +0.000 A 
ATOM     22  N   UNL     1       1.440   3.382  17.937  0.00  0.00    +0.000 NA
ATOM     23  N   UNL     1       0.888   2.231  18.297  0.00  0.00    +0.000 NA
ATOM     24  N   UNL     1       1.924   1.455  18.634  0.00  0.00    +0.000 N 
ATOM     25  N   UNL     1       3.137   2.010  18.523  0.00  0.00    +0.000 NA
ATOM     26  H   UNL     1       1.792   0.500  18.955  0.00  0.00    +0.000 HD
ENDBRANCH  18  21
ENDBRANCH   5  15
TORSDOF 3
ENDMDL
MODEL 4
REMARK VINA RESULT:      -7.8      4.557     10.115
REMARK  Name = 
REMARK  3 active torsions:
REMARK  status: ('A' for Active; 'I' for Inactive)
REMARK    1  A    between atoms: C_5  and  C_6
REMARK    2  A    between atoms: N_10  and  C_11
REMARK    3  A    between atoms: C_14  and  C_15
REMARK                            x       y       z     vdW  Elec       q    Type
REMARK                         _______ _______ _______ _____ _____    ______ ____
ROOT
ATOM      1  C   UNL     1       6.692   6.457  17.688  0.00  0.00    +0.000 A 
ATOM      2  N   UNL     1       6.783   7.293  16.676  0.00  0.00    +0.000 NA
ATOM      3  N   UNL     1       7.683   8.261  17.058  0.00  0.00    +0.000 NA
ATOM      4  C   UNL     1       8.094   7.952  18.268  0.00  0.00    +0.000 A 
ATOM      5  N   UNL     1       8.911   8.569  19.139  0.00  0.00    +0.000 N 
ATOM      6  O   UNL     1       7.525   6.790  18.725  0.00  0.00    +0.000 OA
ATOM      7  H   UNL     1       9.064   8.095  20.019  0.00  0.00    +0.000 HD
ENDROOT
BRANCH   1  12
ATOM      8 CL   UNL     1       3.060   1.728  18.202  0.00  0.00    +0.000 Cl
ATOM      9  C   UNL     1       4.110   3.081  18.066  0.00  0.00    +0.000 A 
ATOM     10  C   UNL     1       4.356   3.644  16.818  0.00  0.00    +0.000 A 
ATOM     11  C   UNL     1       5.209   4.746  16.711  0.00  0.00    +0.000 A 
ATOM     12  C   UNL     1       5.827   5.295  17.848  0.00  0.00    +0.000 A 
ATOM     13  C   UNL     1       5.569   4.715  19.099  0.00  0.00    +0.000 A 
ATOM     14  C   UNL     1       4.712   3.613  19.208  0.00  0.00    +0.000 A 
ENDBRANCH   1  12
BRANCH   5  15
ATOM     15  C   UNL     1       9.216   9.944  19.157  0.00  0.00    +0.000 A 
ATOM     16  C   UNL     1       9.274  10.635  17.937  0.00  0.00    +0.000 A 
ATOM     17  C   UNL     1       9.616  11.992  17.884  0.00  0.00    +0.000 A 
ATOM     18  C   UNL     1       9.893  12.703  19.057  0.00  0.00    +0.000 A 
ATOM     19  C   UNL     1       9.826  12.024  20.277  0.00  0.00    +0.000 A 
ATOM     20  C   UNL     1       9.486  10.666  20.324  0.00  0.00    +0.000 A 
BRANCH  18  21
ATOM     21  C   UNL     1      10.231  14.119  19.005  0.00  0.00    +0.000 A 
ATOM     22  N   UNL     1       9.564  15.019  18.206  0.00  0.00    +0.000 NA
ATOM     23  N   UNL     1      10.115  16.206  18.419  0.00  0.00    +0.000 NA
ATOM     24  N   UNL     1      11.075  15.971  19.320  0.00  0.00    +0.000 N 
ATOM     25  N   UNL     1      11.204  14.703  19.728  0.00  0.00    +0.000 NA
ATOM     26  H   UNL     1      11.669  16.717  19.672  0.00  0.00    +0.000 HD
ENDBRANCH  18  21
ENDBRANCH   5  15
TORSDOF 3
ENDMDL
MODEL 5
REMARK VINA RESULT:      -7.8      4.574     10.086
REMARK  Name = 
REMARK  3 active torsions:
REMARK  status: ('A' for Active; 'I' for Inactive)
REMARK    1  A    between atoms: C_5  and  C_6
REMARK    2  A    between atoms: N_10  and  C_11
REMARK    3  A    between atoms: C_14  and  C_15
REMARK                            x       y       z     vdW  Elec       q    Type
REMARK                         _______ _______ _______ _____ _____    ______ ____
ROOT
ATOM      1  C   UNL     1       6.702   6.484  17.697  0.00  0.00    +0.000 A 
ATOM      2  N   UNL     1       6.782   7.318  16.682  0.00  0.00    +0.000 NA
ATOM      3  N   UNL     1       7.686   8.287  17.052  0.00  0.00    +0.000 NA
ATOM      4  C   UNL     1       8.111   7.980  18.258  0.00  0.00    +0.000 A 
ATOM      5  N   UNL     1       8.939   8.599  19.118  0.00  0.00    +0.000 N 
ATOM      6  O   UNL     1       7.547   6.819  18.724  0.00  0.00    +0.000 OA
ATOM      7  H   UNL     1       9.102   8.127  19.997  0.00  0.00    +0.000 HD
ENDROOT
BRANCH   1  12
ATOM      8 CL   UNL     1       3.075   1.758  18.265  0.00  0.00    +0.000 Cl
ATOM      9  C   UNL     1       4.124   3.110  18.113  0.00  0.00    +0.000 A 
ATOM     10  C   UNL     1       4.350   3.675  16.862  0.00  0.00    +0.000 A 
ATOM     11  C   UNL     1       5.201   4.776  16.743  0.00  0.00    +0.000 A 
ATOM     12  C   UNL     1       5.839   5.323  17.870  0.00  0.00    +0.000 A 
ATOM     13  C   UNL     1       5.601   4.742  19.124  0.00  0.00    +0.000 A 
ATOM     14  C   UNL     1       4.745   3.640  19.246  0.00  0.00    +0.000 A 
ENDBRANCH   1  12
BRANCH   5  15
ATOM     15  C   UNL     1       9.244   9.974  19.129  0.00  0.00    +0.000 A 
ATOM     16  C   UNL     1       9.367  10.625  20.365  0.00  0.00    +0.000 A 
ATOM     17  C   UNL     1       9.626  11.999  20.443  0.00  0.00    +0.000 A 
ATOM     18  C   UNL     1       9.786  12.761  19.280  0.00  0.00    +0.000 A 
ATOM     19  C   UNL     1       9.676  12.117  18.043  0.00  0.00    +0.000 A 
ATOM     20  C   UNL     1       9.415  10.742  17.972  0.00  0.00    +0.000 A 
BRANCH  18  21
ATOM     21  C   UNL     1      10.073  14.186  19.359  0.00  0.00    +0.000 A 
ATOM     22  N   UNL     1       9.655  15.088  18.406  0.00  0.00    +0.000 NA
ATOM     23  N   UNL     1      10.069  16.284  18.799  0.00  0.00    +0.000 NA
ATOM     24  N   UNL     1      10.710  16.054  19.950  0.00  0.00    +0.000 N 
ATOM     25  N   UNL     1      10.751  14.779  20.358  0.00  0.00    +0.000 NA
ATOM     26  H   UNL     1      11.138  16.807  20.481  0.00  0.00    +0.000 HD
ENDBRANCH  18  21
ENDBRANCH   5  15
TORSDOF 3
ENDMDL
MODEL 6
REMARK VINA RESULT:      -7.7      1.559      2.310
REMARK  Name = 
REMARK  3 active torsions:
REMARK  status: ('A' for Active; 'I' for Inactive)
REMARK    1  A    between atoms: C_5  and  C_6
REMARK    2  A    between atoms: N_10  and  C_11
REMARK    3  A    between atoms: C_14  and  C_15
REMARK                            x       y       z     vdW  Elec       q    Type
REMARK                         _______ _______ _______ _____ _____    ______ ____
ROOT
ATOM      1  C   UNL     1       9.150  10.859  18.462  0.00  0.00    +0.000 A 
ATOM      2  N   UNL     1       9.321  10.052  19.487  0.00  0.00    +0.000 NA
ATOM      3  N   UNL     1       8.782   8.842  19.116  0.00  0.00    +0.000 NA
ATOM      4  C   UNL     1       8.328   8.979  17.889  0.00  0.00    +0.000 A 
ATOM      5  N   UNL     1       7.658   8.153  17.068  0.00  0.00    +0.000 N 
ATOM      6  O   UNL     1       8.557  10.238  17.393  0.00  0.00    +0.000 OA
ATOM      7  H   UNL     1       7.434   8.521  16.152  0.00  0.00    +0.000 HD
ENDROOT
BRANCH   1  12
ATOM      8 CL   UNL     1      10.602  16.640  17.921  0.00  0.00    +0.000 Cl
ATOM      9  C   UNL     1      10.171  14.984  18.079  0.00  0.00    +0.000 A 
ATOM     10  C   UNL     1      10.832  14.021  17.324  0.00  0.00    +0.000 A 
ATOM     11  C   UNL     1      10.481  12.675  17.457  0.00  0.00    +0.000 A 
ATOM     12  C   UNL     1       9.465  12.277  18.343  0.00  0.00    +0.000 A 
ATOM     13  C   UNL     1       8.809  13.260  19.098  0.00  0.00    +0.000 A 
ATOM     14  C   UNL     1       9.162  14.609  18.968  0.00  0.00    +0.000 A 
ENDBRANCH   1  12
BRANCH   5  15
ATOM     15  C   UNL     1       6.876   7.050  17.460  0.00  0.00    +0.000 A 
ATOM     16  C   UNL     1       7.518   5.942  18.033  0.00  0.00    +0.000 A 
ATOM     17  C   UNL     1       6.802   4.796  18.403  0.00  0.00    +0.000 A 
ATOM     18  C   UNL     1       5.415   4.734  18.225  0.00  0.00    +0.000 A 
ATOM     19  C   UNL     1       4.767   5.838  17.663  0.00  0.00    +0.000 A 
ATOM     20  C   UNL     1       5.489   6.981  17.294  0.00  0.00    +0.000 A 
BRANCH  18  21
ATOM     21  C   UNL     1       4.667   3.550  18.625  0.00  0.00    +0.000 A 
ATOM     22  N   UNL     1       3.703   2.970  17.832  0.00  0.00    +0.000 NA
ATOM     23  N   UNL     1       3.245   1.915  18.492  0.00  0.00    +0.000 NA
ATOM     24  N   UNL     1       3.940   1.908  19.634  0.00  0.00    +0.000 N 
ATOM     25  N   UNL     1       4.838   2.890  19.785  0.00  0.00    +0.000 NA
ATOM     26  H   UNL     1       3.792   1.195  20.343  0.00  0.00    +0.000 HD
ENDBRANCH  18  21
ENDBRANCH   5  15
TORSDOF 3
ENDMDL
MODEL 7
REMARK VINA RESULT:      -7.7      0.798      1.540
REMARK  Name = 
REMARK  3 active torsions:
REMARK  status: ('A' for Active; 'I' for Inactive)
REMARK    1  A    between atoms: C_5  and  C_6
REMARK    2  A    between atoms: N_10  and  C_11
REMARK    3  A    between atoms: C_14  and  C_15
REMARK                            x       y       z     vdW  Elec       q    Type
REMARK                         _______ _______ _______ _____ _____    ______ ____
ROOT
ATOM      1  C   UNL     1       8.732   9.514  18.105  0.00  0.00    +0.000 A 
ATOM      2  N   UNL     1       8.933   8.556  18.986  0.00  0.00    +0.000 NA
ATOM      3  N   UNL     1       8.102   7.521  18.624  0.00  0.00    +0.000 NA
ATOM      4  C   UNL     1       7.457   7.902  17.543  0.00  0.00    +0.000 A 
ATOM      5  N   UNL     1       6.490   7.327  16.808  0.00  0.00    +0.000 N 
ATOM      6  O   UNL     1       7.833   9.157  17.133  0.00  0.00    +0.000 OA
ATOM      7  H   UNL     1       6.172   7.849  16.002  0.00  0.00    +0.000 HD
ENDROOT
BRANCH   1  12
ATOM      8 CL   UNL     1      10.919  15.077  17.819  0.00  0.00    +0.000 Cl
ATOM      9  C   UNL     1      10.301  13.477  17.911  0.00  0.00    +0.000 A 
ATOM     10  C   UNL     1       8.944  13.245  17.714  0.00  0.00    +0.000 A 
ATOM     11  C   UNL     1       8.445  11.942  17.787  0.00  0.00    +0.000 A 
ATOM     12  C   UNL     1       9.296  10.857  18.060  0.00  0.00    +0.000 A 
ATOM     13  C   UNL     1      10.662  11.107  18.256  0.00  0.00    +0.000 A 
ATOM     14  C   UNL     1      11.163  12.412  18.181  0.00  0.00    +0.000 A 
ENDBRANCH   1  12
BRANCH   5  15
ATOM     15  C   UNL     1       5.594   6.334  17.249  0.00  0.00    +0.000 A 
ATOM     16  C   UNL     1       5.435   5.178  16.471  0.00  0.00    +0.000 A 
ATOM     17  C   UNL     1       4.527   4.175  16.833  0.00  0.00    +0.000 A 
ATOM     18  C   UNL     1       3.762   4.293  17.999  0.00  0.00    +0.000 A 
ATOM     19  C   UNL     1       3.923   5.437  18.786  0.00  0.00    +0.000 A 
ATOM     20  C   UNL     1       4.832   6.439  18.417  0.00  0.00    +0.000 A 
BRANCH  18  21
ATOM     21  C   UNL     1       2.831   3.243  18.386  0.00  0.00    +0.000 A 
ATOM     22  N   UNL     1       2.198   3.216  19.607  0.00  0.00    +0.000 NA
ATOM     23  N   UNL     1       1.418   2.143  19.615  0.00  0.00    +0.000 NA
ATOM     24  N   UNL     1       1.615   1.580  18.418  0.00  0.00    +0.000 N 
ATOM     25  N   UNL     1       2.476   2.206  17.605  0.00  0.00    +0.000 NA
ATOM     26  H   UNL     1       1.135   0.727  18.146  0.00  0.00    +0.000 HD
ENDBRANCH  18  21
ENDBRANCH   5  15
TORSDOF 3
ENDMDL
MODEL 8
REMARK VINA RESULT:      -7.7      4.570     10.005
REMARK  Name = 
REMARK  3 active torsions:
REMARK  status: ('A' for Active; 'I' for Inactive)
REMARK    1  A    between atoms: C_5  and  C_6
REMARK    2  A    between atoms: N_10  and  C_11
REMARK    3  A    between atoms: C_14  and  C_15
REMARK                            x       y       z     vdW  Elec       q    Type
REMARK                         _______ _______ _______ _____ _____    ______ ____
ROOT
ATOM      1  C   UNL     1       6.824   6.188  17.569  0.00  0.00    +0.000 A 
ATOM      2  N   UNL     1       7.357   6.617  16.444  0.00  0.00    +0.000 NA
ATOM      3  N   UNL     1       8.166   7.677  16.783  0.00  0.00    +0.000 NA
ATOM      4  C   UNL     1       8.089   7.822  18.088  0.00  0.00    +0.000 A 
ATOM      5  N   UNL     1       8.610   8.724  18.937  0.00  0.00    +0.000 N 
ATOM      6  O   UNL     1       7.271   6.883  18.664  0.00  0.00    +0.000 OA
ATOM      7  H   UNL     1       8.391   8.593  19.916  0.00  0.00    +0.000 HD
ENDROOT
BRANCH   1  12
ATOM      8 CL   UNL     1       2.846   1.832  18.572  0.00  0.00    +0.000 Cl
ATOM      9  C   UNL     1       3.979   3.087  18.273  0.00  0.00    +0.000 A 
ATOM     10  C   UNL     1       4.679   3.657  19.332  0.00  0.00    +0.000 A 
ATOM     11  C   UNL     1       5.602   4.675  19.085  0.00  0.00    +0.000 A 
ATOM     12  C   UNL     1       5.836   5.138  17.779  0.00  0.00    +0.000 A 
ATOM     13  C   UNL     1       5.123   4.553  16.722  0.00  0.00    +0.000 A 
ATOM     14  C   UNL     1       4.199   3.530  16.967  0.00  0.00    +0.000 A 
ENDBRANCH   1  12
BRANCH   5  15
ATOM     15  C   UNL     1       9.039  10.023  18.605  0.00  0.00    +0.000 A 
ATOM     16  C   UNL     1       8.145  10.877  17.942  0.00  0.00    +0.000 A 
ATOM     17  C   UNL     1       8.525  12.165  17.545  0.00  0.00    +0.000 A 
ATOM     18  C   UNL     1       9.812  12.643  17.817  0.00  0.00    +0.000 A 
ATOM     19  C   UNL     1      10.706  11.802  18.486  0.00  0.00    +0.000 A 
ATOM     20  C   UNL     1      10.320  10.514  18.879  0.00  0.00    +0.000 A 
BRANCH  18  21
ATOM     21  C   UNL     1      10.204  13.989  17.420  0.00  0.00    +0.000 A 
ATOM     22  N   UNL     1       9.532  15.117  17.834  0.00  0.00    +0.000 NA
ATOM     23  N   UNL     1      10.163  16.156  17.305  0.00  0.00    +0.000 NA
ATOM     24  N   UNL     1      11.168  15.618  16.607  0.00  0.00    +0.000 N 
ATOM     25  N   UNL     1      11.255  14.282  16.633  0.00  0.00    +0.000 NA
ATOM     26  H   UNL     1      11.825  16.194  16.089  0.00  0.00    +0.000 HD
ENDBRANCH  18  21
ENDBRANCH   5  15
TORSDOF 3
ENDMDL
MODEL 9
REMARK VINA RESULT:      -7.7      1.776      2.544
REMARK  Name = 
REMARK  3 active torsions:
REMARK  status: ('A' for Active; 'I' for Inactive)
REMARK    1  A    between atoms: C_5  and  C_6
REMARK    2  A    between atoms: N_10  and  C_11
REMARK    3  A    between atoms: C_14  and  C_15
REMARK                            x       y       z     vdW  Elec       q    Type
REMARK                         _______ _______ _______ _____ _____    ______ ____
ROOT
ATOM      1  C   UNL     1       9.126  11.252  18.686  0.00  0.00    +0.000 A 
ATOM      2  N   UNL     1       9.413  10.416  19.661  0.00  0.00    +0.000 NA
ATOM      3  N   UNL     1       8.964   9.181  19.253  0.00  0.00    +0.000 NA
ATOM      4  C   UNL     1       8.445   9.335  18.054  0.00  0.00    +0.000 A 
ATOM      5  N   UNL     1       7.811   8.492  17.220  0.00  0.00    +0.000 N 
ATOM      6  O   UNL     1       8.541  10.631  17.612  0.00  0.00    +0.000 OA
ATOM      7  H   UNL     1       7.515   8.881  16.335  0.00  0.00    +0.000 HD
ENDROOT
BRANCH   1  12
ATOM      8 CL   UNL     1      10.041  17.157  18.364  0.00  0.00    +0.000 Cl
ATOM      9  C   UNL     1       9.765  15.465  18.461  0.00  0.00    +0.000 A 
ATOM     10  C   UNL     1      10.395  14.606  17.565  0.00  0.00    +0.000 A 
ATOM     11  C   UNL     1      10.171  13.231  17.649  0.00  0.00    +0.000 A 
ATOM     12  C   UNL     1       9.312  12.696  18.626  0.00  0.00    +0.000 A 
ATOM     13  C   UNL     1       8.685  13.574  19.521  0.00  0.00    +0.000 A 
ATOM     14  C   UNL     1       8.911  14.953  19.441  0.00  0.00    +0.000 A 
ENDBRANCH   1  12
BRANCH   5  15
ATOM     15  C   UNL     1       7.147   7.306  17.588  0.00  0.00    +0.000 A 
ATOM     16  C   UNL     1       5.870   7.061  17.061  0.00  0.00    +0.000 A 
ATOM     17  C   UNL     1       5.140   5.922  17.423  0.00  0.00    +0.000 A 
ATOM     18  C   UNL     1       5.676   4.984  18.313  0.00  0.00    +0.000 A 
ATOM     19  C   UNL     1       6.952   5.217  18.834  0.00  0.00    +0.000 A 
ATOM     20  C   UNL     1       7.678   6.359  18.469  0.00  0.00    +0.000 A 
BRANCH  18  21
ATOM     21  C   UNL     1       4.925   3.791  18.676  0.00  0.00    +0.000 A 
ATOM     22  N   UNL     1       3.828   3.352  17.970  0.00  0.00    +0.000 NA
ATOM     23  N   UNL     1       3.407   2.243  18.561  0.00  0.00    +0.000 NA
ATOM     24  N   UNL     1       4.253   2.067  19.582  0.00  0.00    +0.000 N 
ATOM     25  N   UNL     1       5.217   2.986  19.714  0.00  0.00    +0.000 NA
ATOM     26  H   UNL     1       4.164   1.278  20.217  0.00  0.00    +0.000 HD
ENDBRANCH  18  21
ENDBRANCH   5  15
TORSDOF 3
ENDMDL
