MODEL 1
REMARK VINA RESULT:      -7.2      0.000      0.000
REMARK  Name = 
REMARK  10 active torsions:
REMARK  status: ('A' for Active; 'I' for Inactive)
REMARK    1  A    between atoms: C_1  and  C_2
REMARK    2  A    between atoms: C_2  and  C_3
REMARK    3  A    between atoms: C_4  and  C_5
REMARK    4  A    between atoms: C_5  and  C_6
REMARK    5  A    between atoms: C_11  and  O_12
REMARK    6  A    between atoms: C_16  and  C_17
REMARK    7  A    between atoms: C_20  and  O_21
REMARK    8  A    between atoms: C_23  and  O_24
REMARK    9  A    between atoms: C_29  and  C_30
REMARK   10  A    between atoms: C_29  and  C_31
REMARK                            x       y       z     vdW  Elec       q    Type
REMARK                         _______ _______ _______ _____ _____    ______ ____
ROOT
ATOM      1  C   UNL     1       9.548  11.485  19.409  0.00  0.00    +0.000 C 
ATOM      2  C   UNL     1       9.218  11.913  20.838  0.00  0.00    +0.000 C 
ATOM      3  C   UNL     1       9.613  13.318  21.134  0.00  0.00    +0.000 A 
ATOM      4  C   UNL     1      10.378  14.059  20.239  0.00  0.00    +0.000 A 
ATOM      5  C   UNL     1      10.716  15.376  20.549  0.00  0.00    +0.000 A 
ATOM      6  C   UNL     1      10.327  15.930  21.778  0.00  0.00    +0.000 A 
ATOM      7  C   UNL     1       9.606  15.171  22.705  0.00  0.00    +0.000 A 
ATOM      8  C   UNL     1       9.258  13.863  22.379  0.00  0.00    +0.000 A 
ATOM      9  O   UNL     1       8.553  13.025  23.202  0.00  0.00    +0.000 OA
ATOM     10  C   UNL     1       8.431  13.435  24.573  0.00  0.00    +0.000 C 
ATOM     11  C   UNL     1       8.041  14.896  24.663  0.00  0.00    +0.000 C 
ATOM     12  C   UNL     1       9.152  15.685  24.022  0.00  0.00    +0.000 C 
ATOM     13  O   UNL     1       9.613  16.680  24.552  0.00  0.00    +0.000 OA
ATOM     14  O   UNL     1      10.821  13.566  19.041  0.00  0.00    +0.000 OA
ATOM     15  C   UNL     1      10.875  12.118  18.915  0.00  0.00    +0.000 C 
ATOM     16  C   UNL     1      11.046  11.844  17.406  0.00  0.00    +0.000 C 
ATOM     17  C   UNL     1      12.152  11.624  19.614  0.00  0.00    +0.000 C 
ENDROOT
BRANCH  10  18
ATOM     18  C   UNL     1       7.400  12.534  25.235  0.00  0.00    +0.000 A 
ATOM     19  C   UNL     1       6.420  11.882  24.463  0.00  0.00    +0.000 A 
ATOM     20  C   UNL     1       5.521  10.988  25.046  0.00  0.00    +0.000 A 
ATOM     21  C   UNL     1       5.582  10.755  26.416  0.00  0.00    +0.000 A 
ATOM     22  C   UNL     1       6.506  11.420  27.212  0.00  0.00    +0.000 A 
ATOM     23  C   UNL     1       7.404  12.308  26.620  0.00  0.00    +0.000 A 
BRANCH  21  24
ATOM     24  O   UNL     1       4.747   9.864  27.022  0.00  0.00    +0.000 OA
ATOM     25  H   UNL     1       4.277  10.317  27.742  0.00  0.00    +0.000 HD
ENDBRANCH  21  24
BRANCH  23  26
ATOM     26  O   UNL     1       8.324  12.956  27.400  0.00  0.00    +0.000 OA
ATOM     27  H   UNL     1       9.213  12.782  27.041  0.00  0.00    +0.000 HD
ENDBRANCH  23  26
ENDBRANCH  10  18
BRANCH   6  28
ATOM     28  O   UNL     1      10.644  17.230  22.048  0.00  0.00    +0.000 OA
ATOM     29  H   UNL     1      10.340  17.471  22.938  0.00  0.00    +0.000 HD
ENDBRANCH   6  28
BRANCH   1  30
ATOM     30  C   UNL     1       9.421   9.951  19.301  0.00  0.00    +0.000 C 
BRANCH  30  34
ATOM     31  C   UNL     1       7.054   7.900  16.994  0.00  0.00    +0.000 C 
ATOM     32  C   UNL     1       8.006   8.206  18.115  0.00  0.00    +0.000 C 
ATOM     33  C   UNL     1       8.430   7.105  19.033  0.00  0.00    +0.000 C 
ATOM     34  C   UNL     1       8.465   9.460  18.246  0.00  0.00    +0.000 C 
ENDBRANCH  30  34
ENDBRANCH   1  30
TORSDOF 6
ENDMDL
MODEL 2
REMARK VINA RESULT:      -7.2     11.277     13.712
REMARK  Name = 
REMARK  10 active torsions:
REMARK  status: ('A' for Active; 'I' for Inactive)
REMARK    1  A    between atoms: C_1  and  C_2
REMARK    2  A    between atoms: C_2  and  C_3
REMARK    3  A    between atoms: C_4  and  C_5
REMARK    4  A    between atoms: C_5  and  C_6
REMARK    5  A    between atoms: C_11  and  O_12
REMARK    6  A    between atoms: C_16  and  C_17
REMARK    7  A    between atoms: C_20  and  O_21
REMARK    8  A    between atoms: C_23  and  O_24
REMARK    9  A    between atoms: C_29  and  C_30
REMARK   10  A    between atoms: C_29  and  C_31
REMARK                            x       y       z     vdW  Elec       q    Type
REMARK                         _______ _______ _______ _____ _____    ______ ____
ROOT
ATOM      1  C   UNL     1      -0.689  10.988  20.356  0.00  0.00    +0.000 C 
ATOM      2  C   UNL     1      -2.096  11.582  20.321  0.00  0.00    +0.000 C 
ATOM      3  C   UNL     1      -2.758  11.442  18.994  0.00  0.00    +0.000 A 
ATOM      4  C   UNL     1      -2.057  10.993  17.879  0.00  0.00    +0.000 A 
ATOM      5  C   UNL     1      -2.718  10.865  16.658  0.00  0.00    +0.000 A 
ATOM      6  C   UNL     1      -4.067  11.234  16.547  0.00  0.00    +0.000 A 
ATOM      7  C   UNL     1      -4.760  11.739  17.651  0.00  0.00    +0.000 A 
ATOM      8  C   UNL     1      -4.097  11.847  18.870  0.00  0.00    +0.000 A 
ATOM      9  O   UNL     1      -4.670  12.325  20.020  0.00  0.00    +0.000 OA
ATOM     10  C   UNL     1      -5.922  13.011  19.868  0.00  0.00    +0.000 C 
ATOM     11  C   UNL     1      -6.855  12.233  18.965  0.00  0.00    +0.000 C 
ATOM     12  C   UNL     1      -6.188  12.146  17.617  0.00  0.00    +0.000 C 
ATOM     13  O   UNL     1      -6.799  12.375  16.590  0.00  0.00    +0.000 OA
ATOM     14  O   UNL     1      -0.731  10.652  17.911  0.00  0.00    +0.000 OA
ATOM     15  C   UNL     1       0.053  11.198  19.008  0.00  0.00    +0.000 C 
ATOM     16  C   UNL     1       1.367  10.390  19.014  0.00  0.00    +0.000 C 
ATOM     17  C   UNL     1       0.413  12.651  18.663  0.00  0.00    +0.000 C 
ENDROOT
BRANCH  10  18
ATOM     18  C   UNL     1      -6.513  13.207  21.256  0.00  0.00    +0.000 A 
ATOM     19  C   UNL     1      -7.363  12.234  21.814  0.00  0.00    +0.000 A 
ATOM     20  C   UNL     1      -7.845  12.363  23.118  0.00  0.00    +0.000 A 
ATOM     21  C   UNL     1      -7.497  13.480  23.867  0.00  0.00    +0.000 A 
ATOM     22  C   UNL     1      -6.699  14.481  23.328  0.00  0.00    +0.000 A 
ATOM     23  C   UNL     1      -6.217  14.343  22.026  0.00  0.00    +0.000 A 
BRANCH  21  24
ATOM     24  O   UNL     1      -7.916  13.629  25.157  0.00  0.00    +0.000 OA
ATOM     25  H   UNL     1      -7.201  14.042  25.671  0.00  0.00    +0.000 HD
ENDBRANCH  21  24
BRANCH  23  26
ATOM     26  O   UNL     1      -5.421  15.322  21.495  0.00  0.00    +0.000 OA
ATOM     27  H   UNL     1      -4.656  15.454  22.084  0.00  0.00    +0.000 HD
ENDBRANCH  23  26
ENDBRANCH  10  18
BRANCH   6  28
ATOM     28  O   UNL     1      -4.701  11.073  15.348  0.00  0.00    +0.000 OA
ATOM     29  H   UNL     1      -5.649  10.923  15.489  0.00  0.00    +0.000 HD
ENDBRANCH   6  28
BRANCH   1  30
ATOM     30  C   UNL     1       0.031  11.472  21.632  0.00  0.00    +0.000 C 
BRANCH  30  34
ATOM     31  C   UNL     1      -1.635  14.289  23.736  0.00  0.00    +0.000 C 
ATOM     32  C   UNL     1      -0.706  13.627  22.757  0.00  0.00    +0.000 C 
ATOM     33  C   UNL     1       0.318  14.454  22.050  0.00  0.00    +0.000 C 
ATOM     34  C   UNL     1      -0.811  12.303  22.565  0.00  0.00    +0.000 C 
ENDBRANCH  30  34
ENDBRANCH   1  30
TORSDOF 6
ENDMDL
MODEL 3
REMARK VINA RESULT:      -7.1      0.977      1.152
REMARK  Name = 
REMARK  10 active torsions:
REMARK  status: ('A' for Active; 'I' for Inactive)
REMARK    1  A    between atoms: C_1  and  C_2
REMARK    2  A    between atoms: C_2  and  C_3
REMARK    3  A    between atoms: C_4  and  C_5
REMARK    4  A    between atoms: C_5  and  C_6
REMARK    5  A    between atoms: C_11  and  O_12
REMARK    6  A    between atoms: C_16  and  C_17
REMARK    7  A    between atoms: C_20  and  O_21
REMARK    8  A    between atoms: C_23  and  O_24
REMARK    9  A    between atoms: C_29  and  C_30
REMARK   10  A    between atoms: C_29  and  C_31
REMARK                            x       y       z     vdW  Elec       q    Type
REMARK                         _______ _______ _______ _____ _____    ______ ____
ROOT
ATOM      1  C   UNL     1       9.710  11.619  19.350  0.00  0.00    +0.000 C 
ATOM      2  C   UNL     1       9.358  12.155  20.737  0.00  0.00    +0.000 C 
ATOM      3  C   UNL     1       9.840  13.545  20.967  0.00  0.00    +0.000 A 
ATOM      4  C   UNL     1      10.689  14.176  20.062  0.00  0.00    +0.000 A 
ATOM      5  C   UNL     1      11.107  15.483  20.310  0.00  0.00    +0.000 A 
ATOM      6  C   UNL     1      10.712  16.137  21.486  0.00  0.00    +0.000 A 
ATOM      7  C   UNL     1       9.906  15.487  22.425  0.00  0.00    +0.000 A 
ATOM      8  C   UNL     1       9.479  14.189  22.162  0.00  0.00    +0.000 A 
ATOM      9  O   UNL     1       8.686  13.452  23.003  0.00  0.00    +0.000 OA
ATOM     10  C   UNL     1       8.541  13.953  24.340  0.00  0.00    +0.000 C 
ATOM     11  C   UNL     1       8.253  15.439  24.329  0.00  0.00    +0.000 C 
ATOM     12  C   UNL     1       9.440  16.110  23.690  0.00  0.00    +0.000 C 
ATOM     13  O   UNL     1       9.950  17.101  24.180  0.00  0.00    +0.000 OA
ATOM     14  O   UNL     1      11.140  13.582  18.914  0.00  0.00    +0.000 OA
ATOM     15  C   UNL     1      11.097  12.129  18.876  0.00  0.00    +0.000 C 
ATOM     16  C   UNL     1      11.304  11.752  17.394  0.00  0.00    +0.000 C 
ATOM     17  C   UNL     1      12.308  11.592  19.655  0.00  0.00    +0.000 C 
ENDROOT
BRANCH  10  18
ATOM     18  C   UNL     1       7.425  13.166  25.011  0.00  0.00    +0.000 A 
ATOM     19  C   UNL     1       6.485  13.818  25.831  0.00  0.00    +0.000 A 
ATOM     20  C   UNL     1       5.409  13.123  26.385  0.00  0.00    +0.000 A 
ATOM     21  C   UNL     1       5.277  11.761  26.139  0.00  0.00    +0.000 A 
ATOM     22  C   UNL     1       6.215  11.080  25.374  0.00  0.00    +0.000 A 
ATOM     23  C   UNL     1       7.285  11.783  24.820  0.00  0.00    +0.000 A 
BRANCH  21  24
ATOM     24  O   UNL     1       4.223  11.049  26.631  0.00  0.00    +0.000 OA
ATOM     25  H   UNL     1       4.519  10.143  26.818  0.00  0.00    +0.000 HD
ENDBRANCH  21  24
BRANCH  23  26
ATOM     26  O   UNL     1       8.205  11.117  24.055  0.00  0.00    +0.000 OA
ATOM     27  H   UNL     1       8.224  11.523  23.169  0.00  0.00    +0.000 HD
ENDBRANCH  23  26
ENDBRANCH  10  18
BRANCH   6  28
ATOM     28  O   UNL     1      11.111  17.427  21.694  0.00  0.00    +0.000 OA
ATOM     29  H   UNL     1      11.975  17.444  22.134  0.00  0.00    +0.000 HD
ENDBRANCH   6  28
BRANCH   1  30
ATOM     30  C   UNL     1       9.479  10.094  19.326  0.00  0.00    +0.000 C 
BRANCH  30  34
ATOM     31  C   UNL     1       7.090   8.055  17.030  0.00  0.00    +0.000 C 
ATOM     32  C   UNL     1       8.050   8.356  18.146  0.00  0.00    +0.000 C 
ATOM     33  C   UNL     1       8.477   7.252  19.059  0.00  0.00    +0.000 C 
ATOM     34  C   UNL     1       8.515   9.609  18.276  0.00  0.00    +0.000 C 
ENDBRANCH  30  34
ENDBRANCH   1  30
TORSDOF 6
ENDMDL
MODEL 4
REMARK VINA RESULT:      -7.1     10.449     12.831
REMARK  Name = 
REMARK  10 active torsions:
REMARK  status: ('A' for Active; 'I' for Inactive)
REMARK    1  A    between atoms: C_1  and  C_2
REMARK    2  A    between atoms: C_2  and  C_3
REMARK    3  A    between atoms: C_4  and  C_5
REMARK    4  A    between atoms: C_5  and  C_6
REMARK    5  A    between atoms: C_11  and  O_12
REMARK    6  A    between atoms: C_16  and  C_17
REMARK    7  A    between atoms: C_20  and  O_21
REMARK    8  A    between atoms: C_23  and  O_24
REMARK    9  A    between atoms: C_29  and  C_30
REMARK   10  A    between atoms: C_29  and  C_31
REMARK                            x       y       z     vdW  Elec       q    Type
REMARK                         _______ _______ _______ _____ _____    ______ ____
ROOT
ATOM      1  C   UNL     1      -3.630  11.675  17.037  0.00  0.00    +0.000 C 
ATOM      2  C   UNL     1      -3.433  11.825  18.544  0.00  0.00    +0.000 C 
ATOM      3  C   UNL     1      -2.161  11.223  19.031  0.00  0.00    +0.000 A 
ATOM      4  C   UNL     1      -1.364  10.442  18.199  0.00  0.00    +0.000 A 
ATOM      5  C   UNL     1      -0.174   9.907  18.692  0.00  0.00    +0.000 A 
ATOM      6  C   UNL     1       0.189  10.116  20.030  0.00  0.00    +0.000 A 
ATOM      7  C   UNL     1      -0.636  10.852  20.886  0.00  0.00    +0.000 A 
ATOM      8  C   UNL     1      -1.813  11.397  20.381  0.00  0.00    +0.000 A 
ATOM      9  O   UNL     1      -2.699  12.137  21.119  0.00  0.00    +0.000 OA
ATOM     10  C   UNL     1      -2.533  12.090  22.545  0.00  0.00    +0.000 C 
ATOM     11  C   UNL     1      -1.078  12.272  22.922  0.00  0.00    +0.000 C 
ATOM     12  C   UNL     1      -0.321  11.123  22.312  0.00  0.00    +0.000 C 
ATOM     13  O   UNL     1       0.500  10.491  22.951  0.00  0.00    +0.000 OA
ATOM     14  O   UNL     1      -1.679  10.170  16.895  0.00  0.00    +0.000 OA
ATOM     15  C   UNL     1      -3.077  10.320  16.520  0.00  0.00    +0.000 C 
ATOM     16  C   UNL     1      -3.090  10.313  14.978  0.00  0.00    +0.000 C 
ATOM     17  C   UNL     1      -3.835   9.068  16.988  0.00  0.00    +0.000 C 
ENDROOT
BRANCH  10  18
ATOM     18  C   UNL     1      -3.414  13.174  23.149  0.00  0.00    +0.000 A 
ATOM     19  C   UNL     1      -2.851  14.191  23.943  0.00  0.00    +0.000 A 
ATOM     20  C   UNL     1      -3.634  15.237  24.434  0.00  0.00    +0.000 A 
ATOM     21  C   UNL     1      -4.995  15.260  24.153  0.00  0.00    +0.000 A 
ATOM     22  C   UNL     1      -5.588  14.246  23.413  0.00  0.00    +0.000 A 
ATOM     23  C   UNL     1      -4.798  13.207  22.921  0.00  0.00    +0.000 A 
BRANCH  21  24
ATOM     24  O   UNL     1      -5.791  16.281  24.582  0.00  0.00    +0.000 OA
ATOM     25  H   UNL     1      -6.580  15.903  25.006  0.00  0.00    +0.000 HD
ENDBRANCH  21  24
BRANCH  23  26
ATOM     26  O   UNL     1      -5.377  12.211  22.182  0.00  0.00    +0.000 OA
ATOM     27  H   UNL     1      -6.264  12.505  21.905  0.00  0.00    +0.000 HD
ENDBRANCH  23  26
ENDBRANCH  10  18
BRANCH   6  28
ATOM     28  O   UNL     1       1.372   9.606  20.483  0.00  0.00    +0.000 OA
ATOM     29  H   UNL     1       2.108   9.941  19.947  0.00  0.00    +0.000 HD
ENDBRANCH   6  28
BRANCH   1  30
ATOM     30  C   UNL     1      -5.093  12.014  16.683  0.00  0.00    +0.000 C 
BRANCH  30  34
ATOM     31  C   UNL     1      -7.394  12.912  19.689  0.00  0.00    +0.000 C 
ATOM     32  C   UNL     1      -6.688  12.075  18.660  0.00  0.00    +0.000 C 
ATOM     33  C   UNL     1      -6.929  10.600  18.629  0.00  0.00    +0.000 C 
ATOM     34  C   UNL     1      -5.877  12.684  17.780  0.00  0.00    +0.000 C 
ENDBRANCH  30  34
ENDBRANCH   1  30
TORSDOF 6
ENDMDL
MODEL 5
REMARK VINA RESULT:      -7.0      9.467     11.125
REMARK  Name = 
REMARK  10 active torsions:
REMARK  status: ('A' for Active; 'I' for Inactive)
REMARK    1  A    between atoms: C_1  and  C_2
REMARK    2  A    between atoms: C_2  and  C_3
REMARK    3  A    between atoms: C_4  and  C_5
REMARK    4  A    between atoms: C_5  and  C_6
REMARK    5  A    between atoms: C_11  and  O_12
REMARK    6  A    between atoms: C_16  and  C_17
REMARK    7  A    between atoms: C_20  and  O_21
REMARK    8  A    between atoms: C_23  and  O_24
REMARK    9  A    between atoms: C_29  and  C_30
REMARK   10  A    between atoms: C_29  and  C_31
REMARK                            x       y       z     vdW  Elec       q    Type
REMARK                         _______ _______ _______ _____ _____    ______ ____
ROOT
ATOM      1  C   UNL     1      -0.729  10.915  18.614  0.00  0.00    +0.000 C 
ATOM      2  C   UNL     1      -1.276  11.866  19.676  0.00  0.00    +0.000 C 
ATOM      3  C   UNL     1      -0.213  12.661  20.354  0.00  0.00    +0.000 A 
ATOM      4  C   UNL     1       1.136  12.388  20.149  0.00  0.00    +0.000 A 
ATOM      5  C   UNL     1       2.099  13.164  20.793  0.00  0.00    +0.000 A 
ATOM      6  C   UNL     1       1.706  14.180  21.677  0.00  0.00    +0.000 A 
ATOM      7  C   UNL     1       0.353  14.421  21.930  0.00  0.00    +0.000 A 
ATOM      8  C   UNL     1      -0.602  13.653  21.269  0.00  0.00    +0.000 A 
ATOM      9  O   UNL     1      -1.955  13.796  21.432  0.00  0.00    +0.000 OA
ATOM     10  C   UNL     1      -2.380  14.582  22.557  0.00  0.00    +0.000 C 
ATOM     11  C   UNL     1      -1.585  15.868  22.645  0.00  0.00    +0.000 C 
ATOM     12  C   UNL     1      -0.144  15.479  22.846  0.00  0.00    +0.000 C 
ATOM     13  O   UNL     1       0.549  16.020  23.687  0.00  0.00    +0.000 OA
ATOM     14  O   UNL     1       1.585  11.389  19.328  0.00  0.00    +0.000 OA
ATOM     15  C   UNL     1       0.643  10.321  19.030  0.00  0.00    +0.000 C 
ATOM     16  C   UNL     1       1.255   9.555  17.839  0.00  0.00    +0.000 C 
ATOM     17  C   UNL     1       0.618   9.357  20.227  0.00  0.00    +0.000 C 
ENDROOT
BRANCH  10  18
ATOM     18  C   UNL     1      -3.869  14.847  22.400  0.00  0.00    +0.000 A 
ATOM     19  C   UNL     1      -4.353  16.165  22.304  0.00  0.00    +0.000 A 
ATOM     20  C   UNL     1      -5.707  16.420  22.077  0.00  0.00    +0.000 A 
ATOM     21  C   UNL     1      -6.592  15.355  21.966  0.00  0.00    +0.000 A 
ATOM     22  C   UNL     1      -6.153  14.045  22.104  0.00  0.00    +0.000 A 
ATOM     23  C   UNL     1      -4.798  13.798  22.326  0.00  0.00    +0.000 A 
BRANCH  21  24
ATOM     24  O   UNL     1      -7.916  15.556  21.709  0.00  0.00    +0.000 OA
ATOM     25  H   UNL     1      -8.061  15.488  20.750  0.00  0.00    +0.000 HD
ENDBRANCH  21  24
BRANCH  23  26
ATOM     26  O   UNL     1      -4.360  12.507  22.451  0.00  0.00    +0.000 OA
ATOM     27  H   UNL     1      -3.587  12.498  23.046  0.00  0.00    +0.000 HD
ENDBRANCH  23  26
ENDBRANCH  10  18
BRANCH   6  28
ATOM     28  O   UNL     1       2.666  14.946  22.275  0.00  0.00    +0.000 OA
ATOM     29  H   UNL     1       3.214  15.382  21.603  0.00  0.00    +0.000 HD
ENDBRANCH   6  28
BRANCH   1  30
ATOM     30  C   UNL     1      -1.834   9.913  18.219  0.00  0.00    +0.000 C 
BRANCH  30  34
ATOM     31  C   UNL     1      -3.323  10.261  14.642  0.00  0.00    +0.000 C 
ATOM     32  C   UNL     1      -3.174  10.440  16.126  0.00  0.00    +0.000 C 
ATOM     33  C   UNL     1      -4.190  11.247  16.868  0.00  0.00    +0.000 C 
ATOM     34  C   UNL     1      -2.141   9.848  16.746  0.00  0.00    +0.000 C 
ENDBRANCH  30  34
ENDBRANCH   1  30
TORSDOF 6
ENDMDL
MODEL 6
REMARK VINA RESULT:      -6.9      9.590     11.208
REMARK  Name = 
REMARK  10 active torsions:
REMARK  status: ('A' for Active; 'I' for Inactive)
REMARK    1  A    between atoms: C_1  and  C_2
REMARK    2  A    between atoms: C_2  and  C_3
REMARK    3  A    between atoms: C_4  and  C_5
REMARK    4  A    between atoms: C_5  and  C_6
REMARK    5  A    between atoms: C_11  and  O_12
REMARK    6  A    between atoms: C_16  and  C_17
REMARK    7  A    between atoms: C_20  and  O_21
REMARK    8  A    between atoms: C_23  and  O_24
REMARK    9  A    between atoms: C_29  and  C_30
REMARK   10  A    between atoms: C_29  and  C_31
REMARK                            x       y       z     vdW  Elec       q    Type
REMARK                         _______ _______ _______ _____ _____    ______ ____
ROOT
ATOM      1  C   UNL     1      -0.823  10.989  18.630  0.00  0.00    +0.000 C 
ATOM      2  C   UNL     1      -1.354  11.953  19.689  0.00  0.00    +0.000 C 
ATOM      3  C   UNL     1      -0.278  12.727  20.369  0.00  0.00    +0.000 A 
ATOM      4  C   UNL     1       1.066  12.427  20.169  0.00  0.00    +0.000 A 
ATOM      5  C   UNL     1       2.042  13.184  20.816  0.00  0.00    +0.000 A 
ATOM      6  C   UNL     1       1.668  14.209  21.697  0.00  0.00    +0.000 A 
ATOM      7  C   UNL     1       0.318  14.477  21.944  0.00  0.00    +0.000 A 
ATOM      8  C   UNL     1      -0.650  13.728  21.281  0.00  0.00    +0.000 A 
ATOM      9  O   UNL     1      -2.000  13.900  21.439  0.00  0.00    +0.000 OA
ATOM     10  C   UNL     1      -2.413  14.695  22.561  0.00  0.00    +0.000 C 
ATOM     11  C   UNL     1      -1.592  15.965  22.649  0.00  0.00    +0.000 C 
ATOM     12  C   UNL     1      -0.161  15.547  22.856  0.00  0.00    +0.000 C 
ATOM     13  O   UNL     1       0.540  16.076  23.700  0.00  0.00    +0.000 OA
ATOM     14  O   UNL     1       1.497  11.416  19.352  0.00  0.00    +0.000 OA
ATOM     15  C   UNL     1       0.535  10.368  19.052  0.00  0.00    +0.000 C 
ATOM     16  C   UNL     1       1.135   9.588  17.865  0.00  0.00    +0.000 C 
ATOM     17  C   UNL     1       0.486   9.407  20.250  0.00  0.00    +0.000 C 
ENDROOT
BRANCH  10  18
ATOM     18  C   UNL     1      -3.896  14.991  22.398  0.00  0.00    +0.000 A 
ATOM     19  C   UNL     1      -4.785  14.793  23.472  0.00  0.00    +0.000 A 
ATOM     20  C   UNL     1      -6.133  15.139  23.362  0.00  0.00    +0.000 A 
ATOM     21  C   UNL     1      -6.607  15.664  22.165  0.00  0.00    +0.000 A 
ATOM     22  C   UNL     1      -5.765  15.825  21.073  0.00  0.00    +0.000 A 
ATOM     23  C   UNL     1      -4.418  15.483  21.193  0.00  0.00    +0.000 A 
BRANCH  21  24
ATOM     24  O   UNL     1      -7.909  16.048  22.025  0.00  0.00    +0.000 OA
ATOM     25  H   UNL     1      -8.458  15.253  21.923  0.00  0.00    +0.000 HD
ENDBRANCH  21  24
BRANCH  23  26
ATOM     26  O   UNL     1      -3.582  15.651  20.121  0.00  0.00    +0.000 OA
ATOM     27  H   UNL     1      -2.739  15.201  20.312  0.00  0.00    +0.000 HD
ENDBRANCH  23  26
ENDBRANCH  10  18
BRANCH   6  28
ATOM     28  O   UNL     1       2.641  14.956  22.296  0.00  0.00    +0.000 OA
ATOM     29  H   UNL     1       2.249  15.733  22.727  0.00  0.00    +0.000 HD
ENDBRANCH   6  28
BRANCH   1  30
ATOM     30  C   UNL     1      -1.947  10.009  18.232  0.00  0.00    +0.000 C 
BRANCH  30  34
ATOM     31  C   UNL     1      -3.244  10.195  14.569  0.00  0.00    +0.000 C 
ATOM     32  C   UNL     1      -3.166  10.451  16.048  0.00  0.00    +0.000 C 
ATOM     33  C   UNL     1      -4.198  11.318  16.693  0.00  0.00    +0.000 C 
ATOM     34  C   UNL     1      -2.181   9.871  16.751  0.00  0.00    +0.000 C 
ENDBRANCH  30  34
ENDBRANCH   1  30
TORSDOF 6
ENDMDL
MODEL 7
REMARK VINA RESULT:      -6.9      4.533      5.091
REMARK  Name = 
REMARK  10 active torsions:
REMARK  status: ('A' for Active; 'I' for Inactive)
REMARK    1  A    between atoms: C_1  and  C_2
REMARK    2  A    between atoms: C_2  and  C_3
REMARK    3  A    between atoms: C_4  and  C_5
REMARK    4  A    between atoms: C_5  and  C_6
REMARK    5  A    between atoms: C_11  and  O_12
REMARK    6  A    between atoms: C_16  and  C_17
REMARK    7  A    between atoms: C_20  and  O_21
REMARK    8  A    between atoms: C_23  and  O_24
REMARK    9  A    between atoms: C_29  and  C_30
REMARK   10  A    between atoms: C_29  and  C_31
REMARK                            x       y       z     vdW  Elec       q    Type
REMARK                         _______ _______ _______ _____ _____    ______ ____
ROOT
ATOM      1  C   UNL     1       9.551  11.572  18.395  0.00  0.00    +0.000 C 
ATOM      2  C   UNL     1       8.474  12.573  18.811  0.00  0.00    +0.000 C 
ATOM      3  C   UNL     1       8.921  13.990  18.709  0.00  0.00    +0.000 A 
ATOM      4  C   UNL     1      10.249  14.314  18.449  0.00  0.00    +0.000 A 
ATOM      5  C   UNL     1      10.623  15.653  18.349  0.00  0.00    +0.000 A 
ATOM      6  C   UNL     1       9.674  16.665  18.557  0.00  0.00    +0.000 A 
ATOM      7  C   UNL     1       8.350  16.346  18.874  0.00  0.00    +0.000 A 
ATOM      8  C   UNL     1       7.982  15.006  18.955  0.00  0.00    +0.000 A 
ATOM      9  O   UNL     1       6.718  14.570  19.255  0.00  0.00    +0.000 OA
ATOM     10  C   UNL     1       5.818  15.552  19.792  0.00  0.00    +0.000 C 
ATOM     11  C   UNL     1       5.879  16.833  18.988  0.00  0.00    +0.000 C 
ATOM     12  C   UNL     1       7.286  17.356  19.103  0.00  0.00    +0.000 C 
ATOM     13  O   UNL     1       7.511  18.528  19.344  0.00  0.00    +0.000 OA
ATOM     14  O   UNL     1      11.231  13.376  18.273  0.00  0.00    +0.000 OA
ATOM     15  C   UNL     1      10.967  12.051  18.812  0.00  0.00    +0.000 C 
ATOM     16  C   UNL     1      12.029  11.131  18.175  0.00  0.00    +0.000 C 
ATOM     17  C   UNL     1      11.242  12.086  20.323  0.00  0.00    +0.000 C 
ENDROOT
BRANCH  10  18
ATOM     18  C   UNL     1       4.422  14.949  19.791  0.00  0.00    +0.000 A 
ATOM     19  C   UNL     1       3.669  14.891  20.979  0.00  0.00    +0.000 A 
ATOM     20  C   UNL     1       2.356  14.417  20.976  0.00  0.00    +0.000 A 
ATOM     21  C   UNL     1       1.793  13.974  19.785  0.00  0.00    +0.000 A 
ATOM     22  C   UNL     1       2.527  13.974  18.606  0.00  0.00    +0.000 A 
ATOM     23  C   UNL     1       3.836  14.455  18.616  0.00  0.00    +0.000 A 
BRANCH  21  24
ATOM     24  O   UNL     1       0.503  13.536  19.729  0.00  0.00    +0.000 OA
ATOM     25  H   UNL     1       0.388  12.821  20.377  0.00  0.00    +0.000 HD
ENDBRANCH  21  24
BRANCH  23  26
ATOM     26  O   UNL     1       4.559  14.466  17.453  0.00  0.00    +0.000 OA
ATOM     27  H   UNL     1       5.459  14.145  17.644  0.00  0.00    +0.000 HD
ENDBRANCH  23  26
ENDBRANCH  10  18
BRANCH   6  28
ATOM     28  O   UNL     1      10.056  17.970  18.426  0.00  0.00    +0.000 OA
ATOM     29  H   UNL     1      10.731  18.189  19.087  0.00  0.00    +0.000 HD
ENDBRANCH   6  28
BRANCH   1  30
ATOM     30  C   UNL     1       9.128  10.160  18.849  0.00  0.00    +0.000 C 
BRANCH  30  34
ATOM     31  C   UNL     1       6.987   7.558  16.905  0.00  0.00    +0.000 C 
ATOM     32  C   UNL     1       7.902   8.122  17.954  0.00  0.00    +0.000 C 
ATOM     33  C   UNL     1       8.441   7.218  19.015  0.00  0.00    +0.000 C 
ATOM     34  C   UNL     1       8.227   9.423  17.893  0.00  0.00    +0.000 C 
ENDBRANCH  30  34
ENDBRANCH   1  30
TORSDOF 6
ENDMDL
MODEL 8
REMARK VINA RESULT:      -6.9     11.651     14.177
REMARK  Name = 
REMARK  10 active torsions:
REMARK  status: ('A' for Active; 'I' for Inactive)
REMARK    1  A    between atoms: C_1  and  C_2
REMARK    2  A    between atoms: C_2  and  C_3
REMARK    3  A    between atoms: C_4  and  C_5
REMARK    4  A    between atoms: C_5  and  C_6
REMARK    5  A    between atoms: C_11  and  O_12
REMARK    6  A    between atoms: C_16  and  C_17
REMARK    7  A    between atoms: C_20  and  O_21
REMARK    8  A    between atoms: C_23  and  O_24
REMARK    9  A    between atoms: C_29  and  C_30
REMARK   10  A    between atoms: C_29  and  C_31
REMARK                            x       y       z     vdW  Elec       q    Type
REMARK                         _______ _______ _______ _____ _____    ______ ____
ROOT
ATOM      1  C   UNL     1      -0.828  12.483  20.052  0.00  0.00    +0.000 C 
ATOM      2  C   UNL     1      -2.338  12.708  19.996  0.00  0.00    +0.000 C 
ATOM      3  C   UNL     1      -2.985  12.677  21.337  0.00  0.00    +0.000 A 
ATOM      4  C   UNL     1      -2.282  12.284  22.471  0.00  0.00    +0.000 A 
ATOM      5  C   UNL     1      -2.922  12.281  23.710  0.00  0.00    +0.000 A 
ATOM      6  C   UNL     1      -4.278  12.626  23.801  0.00  0.00    +0.000 A 
ATOM      7  C   UNL     1      -5.004  12.968  22.656  0.00  0.00    +0.000 A 
ATOM      8  C   UNL     1      -4.353  12.985  21.426  0.00  0.00    +0.000 A 
ATOM      9  O   UNL     1      -4.956  13.304  20.238  0.00  0.00    +0.000 OA
ATOM     10  C   UNL     1      -6.392  13.336  20.242  0.00  0.00    +0.000 C 
ATOM     11  C   UNL     1      -6.908  14.096  21.446  0.00  0.00    +0.000 C 
ATOM     12  C   UNL     1      -6.439  13.351  22.668  0.00  0.00    +0.000 C 
ATOM     13  O   UNL     1      -7.192  13.111  23.594  0.00  0.00    +0.000 OA
ATOM     14  O   UNL     1      -0.968  11.899  22.446  0.00  0.00    +0.000 OA
ATOM     15  C   UNL     1      -0.443  11.467  21.160  0.00  0.00    +0.000 C 
ATOM     16  C   UNL     1       1.090  11.447  21.329  0.00  0.00    +0.000 C 
ATOM     17  C   UNL     1      -0.893  10.017  20.923  0.00  0.00    +0.000 C 
ENDROOT
BRANCH  10  18
ATOM     18  C   UNL     1      -6.844  13.971  18.936  0.00  0.00    +0.000 A 
ATOM     19  C   UNL     1      -7.509  15.212  18.939  0.00  0.00    +0.000 A 
ATOM     20  C   UNL     1      -7.855  15.845  17.744  0.00  0.00    +0.000 A 
ATOM     21  C   UNL     1      -7.559  15.228  16.534  0.00  0.00    +0.000 A 
ATOM     22  C   UNL     1      -6.948  13.982  16.500  0.00  0.00    +0.000 A 
ATOM     23  C   UNL     1      -6.600  13.358  17.698  0.00  0.00    +0.000 A 
BRANCH  21  24
ATOM     24  O   UNL     1      -7.848  15.826  15.343  0.00  0.00    +0.000 OA
ATOM     25  H   UNL     1      -7.193  16.525  15.179  0.00  0.00    +0.000 HD
ENDBRANCH  21  24
BRANCH  23  26
ATOM     26  O   UNL     1      -5.987  12.134  17.668  0.00  0.00    +0.000 OA
ATOM     27  H   UNL     1      -5.170  12.183  18.199  0.00  0.00    +0.000 HD
ENDBRANCH  23  26
ENDBRANCH  10  18
BRANCH   6  28
ATOM     28  O   UNL     1      -4.877  12.644  25.028  0.00  0.00    +0.000 OA
ATOM     29  H   UNL     1      -5.086  13.556  25.286  0.00  0.00    +0.000 HD
ENDBRANCH   6  28
BRANCH   1  30
ATOM     30  C   UNL     1      -0.308  12.195  18.628  0.00  0.00    +0.000 C 
BRANCH  30  34
ATOM     31  C   UNL     1      -2.919  11.083  15.967  0.00  0.00    +0.000 C 
ATOM     32  C   UNL     1      -1.857  10.977  17.024  0.00  0.00    +0.000 C 
ATOM     33  C   UNL     1      -1.356   9.626  17.422  0.00  0.00    +0.000 C 
ATOM     34  C   UNL     1      -1.371  12.106  17.565  0.00  0.00    +0.000 C 
ENDBRANCH  30  34
ENDBRANCH   1  30
TORSDOF 6
ENDMDL
MODEL 9
REMARK VINA RESULT:      -6.9     10.030     12.910
REMARK  Name = 
REMARK  10 active torsions:
REMARK  status: ('A' for Active; 'I' for Inactive)
REMARK    1  A    between atoms: C_1  and  C_2
REMARK    2  A    between atoms: C_2  and  C_3
REMARK    3  A    between atoms: C_4  and  C_5
REMARK    4  A    between atoms: C_5  and  C_6
REMARK    5  A    between atoms: C_11  and  O_12
REMARK    6  A    between atoms: C_16  and  C_17
REMARK    7  A    between atoms: C_20  and  O_21
REMARK    8  A    between atoms: C_23  and  O_24
REMARK    9  A    between atoms: C_29  and  C_30
REMARK   10  A    between atoms: C_29  and  C_31
REMARK                            x       y       z     vdW  Elec       q    Type
REMARK                         _______ _______ _______ _____ _____    ______ ____
ROOT
ATOM      1  C   UNL     1      -5.359  11.818  20.000  0.00  0.00    +0.000 C 
ATOM      2  C   UNL     1      -4.081  12.612  20.264  0.00  0.00    +0.000 C 
ATOM      3  C   UNL     1      -3.930  13.022  21.688  0.00  0.00    +0.000 A 
ATOM      4  C   UNL     1      -4.963  12.850  22.604  0.00  0.00    +0.000 A 
ATOM      5  C   UNL     1      -4.775  13.235  23.931  0.00  0.00    +0.000 A 
ATOM      6  C   UNL     1      -3.571  13.836  24.325  0.00  0.00    +0.000 A 
ATOM      7  C   UNL     1      -2.551  14.062  23.396  0.00  0.00    +0.000 A 
ATOM      8  C   UNL     1      -2.740  13.658  22.077  0.00  0.00    +0.000 A 
ATOM      9  O   UNL     1      -1.815  13.824  21.080  0.00  0.00    +0.000 OA
ATOM     10  C   UNL     1      -0.727  14.717  21.364  0.00  0.00    +0.000 C 
ATOM     11  C   UNL     1      -0.147  14.438  22.734  0.00  0.00    +0.000 C 
ATOM     12  C   UNL     1      -1.245  14.685  23.733  0.00  0.00    +0.000 C 
ATOM     13  O   UNL     1      -1.050  15.332  24.746  0.00  0.00    +0.000 OA
ATOM     14  O   UNL     1      -6.175  12.305  22.277  0.00  0.00    +0.000 OA
ATOM     15  C   UNL     1      -6.539  12.329  20.869  0.00  0.00    +0.000 C 
ATOM     16  C   UNL     1      -7.732  11.360  20.737  0.00  0.00    +0.000 C 
ATOM     17  C   UNL     1      -7.056  13.736  20.532  0.00  0.00    +0.000 C 
ENDROOT
BRANCH  10  18
ATOM     18  C   UNL     1       0.310  14.547  20.264  0.00  0.00    +0.000 A 
ATOM     19  C   UNL     1       0.859  15.672  19.621  0.00  0.00    +0.000 A 
ATOM     20  C   UNL     1       1.872  15.533  18.669  0.00  0.00    +0.000 A 
ATOM     21  C   UNL     1       2.328  14.262  18.338  0.00  0.00    +0.000 A 
ATOM     22  C   UNL     1       1.772  13.131  18.920  0.00  0.00    +0.000 A 
ATOM     23  C   UNL     1       0.764  13.278  19.874  0.00  0.00    +0.000 A 
BRANCH  21  24
ATOM     24  O   UNL     1       3.338  14.083  17.440  0.00  0.00    +0.000 OA
ATOM     25  H   UNL     1       2.955  13.813  16.589  0.00  0.00    +0.000 HD
ENDBRANCH  21  24
BRANCH  23  26
ATOM     26  O   UNL     1       0.222  12.165  20.458  0.00  0.00    +0.000 OA
ATOM     27  H   UNL     1       0.946  11.565  20.714  0.00  0.00    +0.000 HD
ENDBRANCH  23  26
ENDBRANCH  10  18
BRANCH   6  28
ATOM     28  O   UNL     1      -3.398  14.179  25.636  0.00  0.00    +0.000 OA
ATOM     29  H   UNL     1      -3.903  13.579  26.208  0.00  0.00    +0.000 HD
ENDBRANCH   6  28
BRANCH   1  30
ATOM     30  C   UNL     1      -5.595  11.737  18.477  0.00  0.00    +0.000 C 
BRANCH  30  34
ATOM     31  C   UNL     1      -2.343  11.079  16.446  0.00  0.00    +0.000 C 
ATOM     32  C   UNL     1      -3.546  10.801  17.302  0.00  0.00    +0.000 C 
ATOM     33  C   UNL     1      -3.795   9.407  17.780  0.00  0.00    +0.000 C 
ATOM     34  C   UNL     1      -4.352  11.823  17.631  0.00  0.00    +0.000 C 
ENDBRANCH  30  34
ENDBRANCH   1  30
TORSDOF 6
ENDMDL
