MODEL 1
REMARK VINA RESULT:      -6.8      0.000      0.000
REMARK  Name = 
REMARK  7 active torsions:
REMARK  status: ('A' for Active; 'I' for Inactive)
REMARK    1  A    between atoms: C_1  and  C_2
REMARK    2  A    between atoms: C_2  and  C_3
REMARK    3  A    between atoms: C_3  and  N_4
REMARK    4  A    between atoms: C_9  and  C_10
REMARK    5  A    between atoms: C_10  and  O_12
REMARK    6  A    between atoms: C_16  and  C_17
REMARK    7  A    between atoms: C_17  and  O_18
REMARK                            x       y       z     vdW  Elec       q    Type
REMARK                         _______ _______ _______ _____ _____    ______ ____
ROOT
ATOM      1  C   UNL     1       4.440   6.185  16.899  0.00  0.00    +0.000 C 
ATOM      2  C   UNL     1       3.696   5.377  17.975  0.00  0.00    +0.000 C 
ATOM      3  C   UNL     1       4.425   5.129  19.318  0.00  0.00    +0.000 C 
ATOM      4  N   UNL     1       3.907   3.850  19.871  0.00  0.00    +0.000 N 
ATOM      5  C   UNL     1       2.702   3.823  20.520  0.00  0.00    +0.000 C 
ATOM      6  O   UNL     1       2.183   4.652  21.229  0.00  0.00    +0.000 OA
ATOM      7  C   UNL     1       2.224   2.584  19.761  0.00  0.00    +0.000 C 
ATOM      8  C   UNL     1       3.500   2.772  18.915  0.00  0.00    +0.000 C 
ATOM      9  S   UNL     1       3.522   3.660  17.352  0.00  0.00    +0.000 S 
ATOM     10  O   UNL     1       2.253   3.526  16.671  0.00  0.00    +0.000 OA
ATOM     11  O   UNL     1       4.752   3.295  16.671  0.00  0.00    +0.000 OA
ENDROOT
BRANCH   3  12
ATOM     12  C   UNL     1       5.956   5.053  19.223  0.00  0.00    +0.000 C 
ATOM     13  O   UNL     1       6.714   5.913  19.650  0.00  0.00    +0.000 OA
BRANCH  12  14
ATOM     14  O   UNL     1       6.425   3.901  18.687  0.00  0.00    +0.000 OA
ATOM     15  H   UNL     1       6.654   3.238  19.368  0.00  0.00    +0.000 HD
ENDBRANCH  12  14
ENDBRANCH   3  12
BRANCH   2  16
ATOM     16  C   UNL     1       2.275   5.980  18.167  0.00  0.00    +0.000 C 
BRANCH  16  17
ATOM     17  N   UNL     1       2.200   7.418  18.330  0.00  0.00    +0.000 N 
ATOM     18  C   UNL     1       1.937   8.130  19.460  0.00  0.00    +0.000 A 
ATOM     19  C   UNL     1       1.966   9.440  19.040  0.00  0.00    +0.000 A 
ATOM     20  N   UNL     1       2.206   9.475  17.698  0.00  0.00    +0.000 NA
ATOM     21  N   UNL     1       2.325   8.224  17.270  0.00  0.00    +0.000 NA
ENDBRANCH  16  17
ENDBRANCH   2  16
BRANCH   7  22
ATOM     22  C   UNL     1       0.838   2.666  19.153  0.00  0.00    +0.000 C 
BRANCH  22  23
ATOM     23  O   UNL     1       0.644   1.573  18.264  0.00  0.00    +0.000 OA
ATOM     24  H   UNL     1       1.366   0.928  18.395  0.00  0.00    +0.000 HD
ENDBRANCH  22  23
ENDBRANCH   7  22
TORSDOF 6
ENDMDL
MODEL 2
REMARK VINA RESULT:      -6.7      2.909      4.509
REMARK  Name = 
REMARK  7 active torsions:
REMARK  status: ('A' for Active; 'I' for Inactive)
REMARK    1  A    between atoms: C_1  and  C_2
REMARK    2  A    between atoms: C_2  and  C_3
REMARK    3  A    between atoms: C_3  and  N_4
REMARK    4  A    between atoms: C_9  and  C_10
REMARK    5  A    between atoms: C_10  and  O_12
REMARK    6  A    between atoms: C_16  and  C_17
REMARK    7  A    between atoms: C_17  and  O_18
REMARK                            x       y       z     vdW  Elec       q    Type
REMARK                         _______ _______ _______ _____ _____    ______ ____
ROOT
ATOM      1  C   UNL     1       5.190   6.623  17.066  0.00  0.00    +0.000 C 
ATOM      2  C   UNL     1       4.385   5.379  17.476  0.00  0.00    +0.000 C 
ATOM      3  C   UNL     1       2.901   5.582  17.871  0.00  0.00    +0.000 C 
ATOM      4  N   UNL     1       2.552   4.509  18.839  0.00  0.00    +0.000 N 
ATOM      5  C   UNL     1       2.259   3.250  18.388  0.00  0.00    +0.000 C 
ATOM      6  O   UNL     1       1.695   2.898  17.381  0.00  0.00    +0.000 OA
ATOM      7  C   UNL     1       3.159   2.578  19.427  0.00  0.00    +0.000 C 
ATOM      8  C   UNL     1       3.616   4.010  19.767  0.00  0.00    +0.000 C 
ATOM      9  S   UNL     1       5.085   4.769  19.059  0.00  0.00    +0.000 S 
ATOM     10  O   UNL     1       6.091   3.768  18.781  0.00  0.00    +0.000 OA
ATOM     11  O   UNL     1       5.413   5.917  19.886  0.00  0.00    +0.000 OA
ENDROOT
BRANCH   3  12
ATOM     12  C   UNL     1       2.575   6.948  18.494  0.00  0.00    +0.000 C 
ATOM     13  O   UNL     1       2.254   7.937  17.850  0.00  0.00    +0.000 OA
BRANCH  12  14
ATOM     14  O   UNL     1       2.593   6.962  19.848  0.00  0.00    +0.000 OA
ATOM     15  H   UNL     1       3.021   6.167  20.225  0.00  0.00    +0.000 HD
ENDBRANCH  12  14
ENDBRANCH   3  12
BRANCH   2  16
ATOM     16  C   UNL     1       4.572   4.277  16.395  0.00  0.00    +0.000 C 
BRANCH  16  17
ATOM     17  N   UNL     1       5.625   4.496  15.424  0.00  0.00    +0.000 N 
ATOM     18  C   UNL     1       5.577   4.345  14.072  0.00  0.00    +0.000 A 
ATOM     19  C   UNL     1       6.851   4.660  13.658  0.00  0.00    +0.000 A 
ATOM     20  N   UNL     1       7.616   4.953  14.749  0.00  0.00    +0.000 NA
ATOM     21  N   UNL     1       6.857   4.826  15.830  0.00  0.00    +0.000 NA
ENDBRANCH  16  17
ENDBRANCH   2  16
BRANCH   7  22
ATOM     22  C   UNL     1       4.121   1.531  18.900  0.00  0.00    +0.000 C 
BRANCH  22  23
ATOM     23  O   UNL     1       5.109   1.256  19.886  0.00  0.00    +0.000 OA
ATOM     24  H   UNL     1       4.739   1.456  20.768  0.00  0.00    +0.000 HD
ENDBRANCH  22  23
ENDBRANCH   7  22
TORSDOF 6
ENDMDL
MODEL 3
REMARK VINA RESULT:      -6.6      0.878      1.007
REMARK  Name = 
REMARK  7 active torsions:
REMARK  status: ('A' for Active; 'I' for Inactive)
REMARK    1  A    between atoms: C_1  and  C_2
REMARK    2  A    between atoms: C_2  and  C_3
REMARK    3  A    between atoms: C_3  and  N_4
REMARK    4  A    between atoms: C_9  and  C_10
REMARK    5  A    between atoms: C_10  and  O_12
REMARK    6  A    between atoms: C_16  and  C_17
REMARK    7  A    between atoms: C_17  and  O_18
REMARK                            x       y       z     vdW  Elec       q    Type
REMARK                         _______ _______ _______ _____ _____    ______ ____
ROOT
ATOM      1  C   UNL     1       4.395   6.208  16.981  0.00  0.00    +0.000 C 
ATOM      2  C   UNL     1       3.728   5.262  17.993  0.00  0.00    +0.000 C 
ATOM      3  C   UNL     1       4.491   4.963  19.307  0.00  0.00    +0.000 C 
ATOM      4  N   UNL     1       4.079   3.608  19.758  0.00  0.00    +0.000 N 
ATOM      5  C   UNL     1       2.888   3.438  20.411  0.00  0.00    +0.000 C 
ATOM      6  O   UNL     1       2.318   4.165  21.188  0.00  0.00    +0.000 OA
ATOM      7  C   UNL     1       2.495   2.231  19.558  0.00  0.00    +0.000 C 
ATOM      8  C   UNL     1       3.741   2.582  18.720  0.00  0.00    +0.000 C 
ATOM      9  S   UNL     1       3.676   3.592  17.234  0.00  0.00    +0.000 S 
ATOM     10  O   UNL     1       2.412   3.417  16.554  0.00  0.00    +0.000 OA
ATOM     11  O   UNL     1       4.921   3.377  16.517  0.00  0.00    +0.000 OA
ENDROOT
BRANCH   3  12
ATOM     12  C   UNL     1       6.023   5.012  19.195  0.00  0.00    +0.000 C 
ATOM     13  O   UNL     1       6.718   5.897  19.673  0.00  0.00    +0.000 OA
BRANCH  12  14
ATOM     14  O   UNL     1       6.571   3.937  18.579  0.00  0.00    +0.000 OA
ATOM     15  H   UNL     1       5.899   3.359  18.166  0.00  0.00    +0.000 HD
ENDBRANCH  12  14
ENDBRANCH   3  12
BRANCH   2  16
ATOM     16  C   UNL     1       2.268   5.738  18.243  0.00  0.00    +0.000 C 
BRANCH  16  17
ATOM     17  N   UNL     1       2.096   7.129  18.610  0.00  0.00    +0.000 N 
ATOM     18  C   UNL     1       2.062   8.221  17.798  0.00  0.00    +0.000 A 
ATOM     19  C   UNL     1       1.902   9.276  18.669  0.00  0.00    +0.000 A 
ATOM     20  N   UNL     1       1.878   8.801  19.947  0.00  0.00    +0.000 NA
ATOM     21  N   UNL     1       2.022   7.482  19.899  0.00  0.00    +0.000 NA
ENDBRANCH  16  17
ENDBRANCH   2  16
BRANCH   7  22
ATOM     22  C   UNL     1       1.098   2.256  18.968  0.00  0.00    +0.000 C 
BRANCH  22  23
ATOM     23  O   UNL     1       0.204   2.865  19.892  0.00  0.00    +0.000 OA
ATOM     24  H   UNL     1      -0.551   3.241  19.400  0.00  0.00    +0.000 HD
ENDBRANCH  22  23
ENDBRANCH   7  22
TORSDOF 6
ENDMDL
MODEL 4
REMARK VINA RESULT:      -6.5      2.025      4.430
REMARK  Name = 
REMARK  7 active torsions:
REMARK  status: ('A' for Active; 'I' for Inactive)
REMARK    1  A    between atoms: C_1  and  C_2
REMARK    2  A    between atoms: C_2  and  C_3
REMARK    3  A    between atoms: C_3  and  N_4
REMARK    4  A    between atoms: C_9  and  C_10
REMARK    5  A    between atoms: C_10  and  O_12
REMARK    6  A    between atoms: C_16  and  C_17
REMARK    7  A    between atoms: C_17  and  O_18
REMARK                            x       y       z     vdW  Elec       q    Type
REMARK                         _______ _______ _______ _____ _____    ______ ____
ROOT
ATOM      1  C   UNL     1       2.683   4.783  20.075  0.00  0.00    +0.000 C 
ATOM      2  C   UNL     1       3.638   5.174  18.936  0.00  0.00    +0.000 C 
ATOM      3  C   UNL     1       3.247   4.757  17.496  0.00  0.00    +0.000 C 
ATOM      4  N   UNL     1       4.509   4.587  16.729  0.00  0.00    +0.000 N 
ATOM      5  C   UNL     1       5.161   5.684  16.233  0.00  0.00    +0.000 C 
ATOM      6  O   UNL     1       4.718   6.719  15.797  0.00  0.00    +0.000 OA
ATOM      7  C   UNL     1       6.523   5.208  16.738  0.00  0.00    +0.000 C 
ATOM      8  C   UNL     1       5.725   4.099  17.453  0.00  0.00    +0.000 C 
ATOM      9  S   UNL     1       5.188   4.220  19.164  0.00  0.00    +0.000 S 
ATOM     10  O   UNL     1       6.123   5.008  19.937  0.00  0.00    +0.000 OA
ATOM     11  O   UNL     1       4.840   2.878  19.598  0.00  0.00    +0.000 OA
ENDROOT
BRANCH   3  12
ATOM     12  C   UNL     1       2.419   3.467  17.396  0.00  0.00    +0.000 C 
ATOM     13  O   UNL     1       2.900   2.343  17.364  0.00  0.00    +0.000 OA
BRANCH  12  14
ATOM     14  O   UNL     1       1.079   3.661  17.424  0.00  0.00    +0.000 OA
ATOM     15  H   UNL     1       0.638   3.130  18.117  0.00  0.00    +0.000 HD
ENDBRANCH  12  14
ENDBRANCH   3  12
BRANCH   2  16
ATOM     16  C   UNL     1       3.968   6.690  19.050  0.00  0.00    +0.000 C 
BRANCH  16  17
ATOM     17  N   UNL     1       2.870   7.609  18.827  0.00  0.00    +0.000 N 
ATOM     18  C   UNL     1       2.554   8.292  17.693  0.00  0.00    +0.000 A 
ATOM     19  C   UNL     1       1.445   9.026  18.048  0.00  0.00    +0.000 A 
ATOM     20  N   UNL     1       1.154   8.793  19.360  0.00  0.00    +0.000 NA
ATOM     21  N   UNL     1       2.051   7.938  19.834  0.00  0.00    +0.000 NA
ENDBRANCH  16  17
ENDBRANCH   2  16
BRANCH   7  22
ATOM     22  C   UNL     1       7.346   6.226  17.503  0.00  0.00    +0.000 C 
BRANCH  22  23
ATOM     23  O   UNL     1       7.780   7.249  16.615  0.00  0.00    +0.000 OA
ATOM     24  H   UNL     1       7.531   7.003  15.703  0.00  0.00    +0.000 HD
ENDBRANCH  22  23
ENDBRANCH   7  22
TORSDOF 6
ENDMDL
MODEL 5
REMARK VINA RESULT:      -6.4      1.926      4.307
REMARK  Name = 
REMARK  7 active torsions:
REMARK  status: ('A' for Active; 'I' for Inactive)
REMARK    1  A    between atoms: C_1  and  C_2
REMARK    2  A    between atoms: C_2  and  C_3
REMARK    3  A    between atoms: C_3  and  N_4
REMARK    4  A    between atoms: C_9  and  C_10
REMARK    5  A    between atoms: C_10  and  O_12
REMARK    6  A    between atoms: C_16  and  C_17
REMARK    7  A    between atoms: C_17  and  O_18
REMARK                            x       y       z     vdW  Elec       q    Type
REMARK                         _______ _______ _______ _____ _____    ______ ____
ROOT
ATOM      1  C   UNL     1       2.621   5.061  20.019  0.00  0.00    +0.000 C 
ATOM      2  C   UNL     1       3.612   5.283  18.864  0.00  0.00    +0.000 C 
ATOM      3  C   UNL     1       3.216   4.748  17.466  0.00  0.00    +0.000 C 
ATOM      4  N   UNL     1       4.475   4.432  16.742  0.00  0.00    +0.000 N 
ATOM      5  C   UNL     1       5.197   5.436  16.154  0.00  0.00    +0.000 C 
ATOM      6  O   UNL     1       4.821   6.446  15.610  0.00  0.00    +0.000 OA
ATOM      7  C   UNL     1       6.522   4.934  16.728  0.00  0.00    +0.000 C 
ATOM      8  C   UNL     1       5.651   3.949  17.533  0.00  0.00    +0.000 C 
ATOM      9  S   UNL     1       5.100   4.268  19.214  0.00  0.00    +0.000 S 
ATOM     10  O   UNL     1       6.070   5.073  19.923  0.00  0.00    +0.000 OA
ATOM     11  O   UNL     1       4.668   2.998  19.770  0.00  0.00    +0.000 OA
ENDROOT
BRANCH   3  12
ATOM     12  C   UNL     1       2.314   3.505  17.476  0.00  0.00    +0.000 C 
ATOM     13  O   UNL     1       1.092   3.543  17.465  0.00  0.00    +0.000 OA
BRANCH  12  14
ATOM     14  O   UNL     1       2.985   2.330  17.419  0.00  0.00    +0.000 OA
ATOM     15  H   UNL     1       3.210   1.984  18.306  0.00  0.00    +0.000 HD
ENDBRANCH  12  14
ENDBRANCH   3  12
BRANCH   2  16
ATOM     16  C   UNL     1       4.029   6.781  18.837  0.00  0.00    +0.000 C 
BRANCH  16  17
ATOM     17  N   UNL     1       2.971   7.742  18.602  0.00  0.00    +0.000 N 
ATOM     18  C   UNL     1       1.973   8.127  19.445  0.00  0.00    +0.000 A 
ATOM     19  C   UNL     1       1.248   9.034  18.706  0.00  0.00    +0.000 A 
ATOM     20  N   UNL     1       1.798   9.141  17.463  0.00  0.00    +0.000 NA
ATOM     21  N   UNL     1       2.843   8.325  17.404  0.00  0.00    +0.000 NA
ENDBRANCH  16  17
ENDBRANCH   2  16
BRANCH   7  22
ATOM     22  C   UNL     1       7.394   5.974  17.405  0.00  0.00    +0.000 C 
BRANCH  22  23
ATOM     23  O   UNL     1       7.788   6.955  16.454  0.00  0.00    +0.000 OA
ATOM     24  H   UNL     1       8.741   6.847  16.265  0.00  0.00    +0.000 HD
ENDBRANCH  22  23
ENDBRANCH   7  22
TORSDOF 6
ENDMDL
MODEL 6
REMARK VINA RESULT:      -6.0      2.639      4.439
REMARK  Name = 
REMARK  7 active torsions:
REMARK  status: ('A' for Active; 'I' for Inactive)
REMARK    1  A    between atoms: C_1  and  C_2
REMARK    2  A    between atoms: C_2  and  C_3
REMARK    3  A    between atoms: C_3  and  N_4
REMARK    4  A    between atoms: C_9  and  C_10
REMARK    5  A    between atoms: C_10  and  O_12
REMARK    6  A    between atoms: C_16  and  C_17
REMARK    7  A    between atoms: C_17  and  O_18
REMARK                            x       y       z     vdW  Elec       q    Type
REMARK                         _______ _______ _______ _____ _____    ______ ____
ROOT
ATOM      1  C   UNL     1       3.465   1.759  17.594  0.00  0.00    +0.000 C 
ATOM      2  C   UNL     1       3.448   3.221  18.068  0.00  0.00    +0.000 C 
ATOM      3  C   UNL     1       4.210   3.561  19.373  0.00  0.00    +0.000 C 
ATOM      4  N   UNL     1       3.528   4.730  19.989  0.00  0.00    +0.000 N 
ATOM      5  C   UNL     1       3.775   5.992  19.517  0.00  0.00    +0.000 C 
ATOM      6  O   UNL     1       4.792   6.473  19.080  0.00  0.00    +0.000 OA
ATOM      7  C   UNL     1       2.290   6.357  19.476  0.00  0.00    +0.000 C 
ATOM      8  C   UNL     1       2.049   4.871  19.809  0.00  0.00    +0.000 C 
ATOM      9  S   UNL     1       1.726   3.621  18.558  0.00  0.00    +0.000 S 
ATOM     10  O   UNL     1       1.031   4.198  17.428  0.00  0.00    +0.000 OA
ATOM     11  O   UNL     1       1.165   2.468  19.241  0.00  0.00    +0.000 OA
ENDROOT
BRANCH   3  12
ATOM     12  C   UNL     1       4.281   2.421  20.400  0.00  0.00    +0.000 C 
ATOM     13  O   UNL     1       3.512   2.298  21.343  0.00  0.00    +0.000 OA
BRANCH  12  14
ATOM     14  O   UNL     1       5.232   1.494  20.138  0.00  0.00    +0.000 OA
ATOM     15  H   UNL     1       5.874   1.795  19.464  0.00  0.00    +0.000 HD
ENDBRANCH  12  14
ENDBRANCH   3  12
BRANCH   2  16
ATOM     16  C   UNL     1       3.852   4.142  16.882  0.00  0.00    +0.000 C 
BRANCH  16  17
ATOM     17  N   UNL     1       5.262   4.189  16.551  0.00  0.00    +0.000 N 
ATOM     18  C   UNL     1       6.319   4.421  17.378  0.00  0.00    +0.000 A 
ATOM     19  C   UNL     1       7.410   4.376  16.540  0.00  0.00    +0.000 A 
ATOM     20  N   UNL     1       6.985   4.158  15.262  0.00  0.00    +0.000 NA
ATOM     21  N   UNL     1       5.661   4.067  15.280  0.00  0.00    +0.000 NA
ENDBRANCH  16  17
ENDBRANCH   2  16
BRANCH   7  22
ATOM     22  C   UNL     1       1.791   6.982  18.188  0.00  0.00    +0.000 C 
BRANCH  22  23
ATOM     23  O   UNL     1       2.337   8.289  18.052  0.00  0.00    +0.000 OA
ATOM     24  H   UNL     1       2.106   8.812  18.844  0.00  0.00    +0.000 HD
ENDBRANCH  22  23
ENDBRANCH   7  22
TORSDOF 6
ENDMDL
MODEL 7
REMARK VINA RESULT:      -5.9      2.709      4.159
REMARK  Name = 
REMARK  7 active torsions:
REMARK  status: ('A' for Active; 'I' for Inactive)
REMARK    1  A    between atoms: C_1  and  C_2
REMARK    2  A    between atoms: C_2  and  C_3
REMARK    3  A    between atoms: C_3  and  N_4
REMARK    4  A    between atoms: C_9  and  C_10
REMARK    5  A    between atoms: C_10  and  O_12
REMARK    6  A    between atoms: C_16  and  C_17
REMARK    7  A    between atoms: C_17  and  O_18
REMARK                            x       y       z     vdW  Elec       q    Type
REMARK                         _______ _______ _______ _____ _____    ______ ____
ROOT
ATOM      1  C   UNL     1       4.894   3.697  17.508  0.00  0.00    +0.000 C 
ATOM      2  C   UNL     1       3.988   4.047  18.699  0.00  0.00    +0.000 C 
ATOM      3  C   UNL     1       3.384   2.875  19.511  0.00  0.00    +0.000 C 
ATOM      4  N   UNL     1       2.095   3.350  20.080  0.00  0.00    +0.000 N 
ATOM      5  C   UNL     1       2.092   4.130  21.205  0.00  0.00    +0.000 C 
ATOM      6  O   UNL     1       2.820   4.108  22.168  0.00  0.00    +0.000 OA
ATOM      7  C   UNL     1       1.101   5.132  20.609  0.00  0.00    +0.000 C 
ATOM      8  C   UNL     1       1.292   4.343  19.298  0.00  0.00    +0.000 C 
ATOM      9  S   UNL     1       2.467   4.820  18.024  0.00  0.00    +0.000 S 
ATOM     10  O   UNL     1       2.634   6.257  17.997  0.00  0.00    +0.000 OA
ATOM     11  O   UNL     1       2.093   4.112  16.812  0.00  0.00    +0.000 OA
ENDROOT
BRANCH   3  12
ATOM     12  C   UNL     1       3.136   1.588  18.709  0.00  0.00    +0.000 C 
ATOM     13  O   UNL     1       3.964   0.699  18.564  0.00  0.00    +0.000 OA
BRANCH  12  14
ATOM     14  O   UNL     1       1.877   1.467  18.224  0.00  0.00    +0.000 OA
ATOM     15  H   UNL     1       1.449   2.334  18.076  0.00  0.00    +0.000 HD
ENDBRANCH  12  14
ENDBRANCH   3  12
BRANCH   2  16
ATOM     16  C   UNL     1       4.714   5.087  19.599  0.00  0.00    +0.000 C 
BRANCH  16  17
ATOM     17  N   UNL     1       5.978   5.596  19.107  0.00  0.00    +0.000 N 
ATOM     18  C   UNL     1       6.215   6.348  17.997  0.00  0.00    +0.000 A 
ATOM     19  C   UNL     1       7.581   6.522  18.001  0.00  0.00    +0.000 A 
ATOM     20  N   UNL     1       8.114   5.859  19.067  0.00  0.00    +0.000 NA
ATOM     21  N   UNL     1       7.121   5.275  19.726  0.00  0.00    +0.000 NA
ENDBRANCH  16  17
ENDBRANCH   2  16
BRANCH   7  22
ATOM     22  C   UNL     1       1.478   6.595  20.728  0.00  0.00    +0.000 C 
BRANCH  22  23
ATOM     23  O   UNL     1       0.422   7.308  21.361  0.00  0.00    +0.000 OA
ATOM     24  H   UNL     1      -0.213   6.666  21.733  0.00  0.00    +0.000 HD
ENDBRANCH  22  23
ENDBRANCH   7  22
TORSDOF 6
ENDMDL
MODEL 8
REMARK VINA RESULT:      -5.8      1.925      4.419
REMARK  Name = 
REMARK  7 active torsions:
REMARK  status: ('A' for Active; 'I' for Inactive)
REMARK    1  A    between atoms: C_1  and  C_2
REMARK    2  A    between atoms: C_2  and  C_3
REMARK    3  A    between atoms: C_3  and  N_4
REMARK    4  A    between atoms: C_9  and  C_10
REMARK    5  A    between atoms: C_10  and  O_12
REMARK    6  A    between atoms: C_16  and  C_17
REMARK    7  A    between atoms: C_17  and  O_18
REMARK                            x       y       z     vdW  Elec       q    Type
REMARK                         _______ _______ _______ _____ _____    ______ ____
ROOT
ATOM      1  C   UNL     1       2.385   4.777  19.194  0.00  0.00    +0.000 C 
ATOM      2  C   UNL     1       3.558   4.983  18.222  0.00  0.00    +0.000 C 
ATOM      3  C   UNL     1       3.705   3.979  17.052  0.00  0.00    +0.000 C 
ATOM      4  N   UNL     1       5.150   3.910  16.709  0.00  0.00    +0.000 N 
ATOM      5  C   UNL     1       5.718   4.890  15.940  0.00  0.00    +0.000 C 
ATOM      6  O   UNL     1       5.255   5.523  15.023  0.00  0.00    +0.000 OA
ATOM      7  C   UNL     1       6.923   5.039  16.870  0.00  0.00    +0.000 C 
ATOM      8  C   UNL     1       6.153   4.087  17.807  0.00  0.00    +0.000 C 
ATOM      9  S   UNL     1       5.107   4.662  19.151  0.00  0.00    +0.000 S 
ATOM     10  O   UNL     1       5.607   5.908  19.689  0.00  0.00    +0.000 OA
ATOM     11  O   UNL     1       4.884   3.530  20.033  0.00  0.00    +0.000 OA
ENDROOT
BRANCH   3  12
ATOM     12  C   UNL     1       3.188   2.562  17.342  0.00  0.00    +0.000 C 
ATOM     13  O   UNL     1       2.025   2.212  17.195  0.00  0.00    +0.000 OA
BRANCH  12  14
ATOM     14  O   UNL     1       4.150   1.682  17.708  0.00  0.00    +0.000 OA
ATOM     15  H   UNL     1       4.010   1.328  18.609  0.00  0.00    +0.000 HD
ENDBRANCH  12  14
ENDBRANCH   3  12
BRANCH   2  16
ATOM     16  C   UNL     1       3.565   6.464  17.744  0.00  0.00    +0.000 C 
BRANCH  16  17
ATOM     17  N   UNL     1       2.680   7.373  18.446  0.00  0.00    +0.000 N 
ATOM     18  C   UNL     1       1.991   8.436  17.950  0.00  0.00    +0.000 A 
ATOM     19  C   UNL     1       1.340   8.950  19.048  0.00  0.00    +0.000 A 
ATOM     20  N   UNL     1       1.673   8.217  20.150  0.00  0.00    +0.000 NA
ATOM     21  N   UNL     1       2.516   7.265  19.770  0.00  0.00    +0.000 NA
ENDBRANCH  16  17
ENDBRANCH   2  16
BRANCH   7  22
ATOM     22  C   UNL     1       7.280   6.455  17.279  0.00  0.00    +0.000 C 
BRANCH  22  23
ATOM     23  O   UNL     1       8.080   6.421  18.455  0.00  0.00    +0.000 OA
ATOM     24  H   UNL     1       7.663   5.823  19.105  0.00  0.00    +0.000 HD
ENDBRANCH  22  23
ENDBRANCH   7  22
TORSDOF 6
ENDMDL
MODEL 9
REMARK VINA RESULT:      -5.8      3.172      4.415
REMARK  Name = 
REMARK  7 active torsions:
REMARK  status: ('A' for Active; 'I' for Inactive)
REMARK    1  A    between atoms: C_1  and  C_2
REMARK    2  A    between atoms: C_2  and  C_3
REMARK    3  A    between atoms: C_3  and  N_4
REMARK    4  A    between atoms: C_9  and  C_10
REMARK    5  A    between atoms: C_10  and  O_12
REMARK    6  A    between atoms: C_16  and  C_17
REMARK    7  A    between atoms: C_17  and  O_18
REMARK                            x       y       z     vdW  Elec       q    Type
REMARK                         _______ _______ _______ _____ _____    ______ ____
ROOT
ATOM      1  C   UNL     1       7.143   3.967  17.038  0.00  0.00    +0.000 C 
ATOM      2  C   UNL     1       5.848   4.745  17.322  0.00  0.00    +0.000 C 
ATOM      3  C   UNL     1       5.958   6.042  18.161  0.00  0.00    +0.000 C 
ATOM      4  N   UNL     1       4.666   6.217  18.874  0.00  0.00    +0.000 N 
ATOM      5  C   UNL     1       3.586   6.738  18.213  0.00  0.00    +0.000 C 
ATOM      6  O   UNL     1       3.535   7.583  17.352  0.00  0.00    +0.000 OA
ATOM      7  C   UNL     1       2.637   5.660  18.739  0.00  0.00    +0.000 C 
ATOM      8  C   UNL     1       3.911   4.995  19.296  0.00  0.00    +0.000 C 
ATOM      9  S   UNL     1       4.812   3.706  18.424  0.00  0.00    +0.000 S 
ATOM     10  O   UNL     1       3.911   2.911  17.619  0.00  0.00    +0.000 OA
ATOM     11  O   UNL     1       5.680   3.061  19.392  0.00  0.00    +0.000 OA
ENDROOT
BRANCH   3  12
ATOM     12  C   UNL     1       7.104   6.058  19.185  0.00  0.00    +0.000 C 
ATOM     13  O   UNL     1       7.124   5.381  20.204  0.00  0.00    +0.000 OA
BRANCH  12  14
ATOM     14  O   UNL     1       8.155   6.836  18.833  0.00  0.00    +0.000 OA
ATOM     15  H   UNL     1       8.250   7.620  19.410  0.00  0.00    +0.000 HD
ENDBRANCH  12  14
ENDBRANCH   3  12
BRANCH   2  16
ATOM     16  C   UNL     1       5.085   4.961  15.984  0.00  0.00    +0.000 C 
BRANCH  16  17
ATOM     17  N   UNL     1       5.852   4.784  14.767  0.00  0.00    +0.000 N 
ATOM     18  C   UNL     1       5.701   3.837  13.801  0.00  0.00    +0.000 A 
ATOM     19  C   UNL     1       6.702   4.122  12.899  0.00  0.00    +0.000 A 
ATOM     20  N   UNL     1       7.425   5.185  13.355  0.00  0.00    +0.000 NA
ATOM     21  N   UNL     1       6.907   5.568  14.515  0.00  0.00    +0.000 NA
ENDBRANCH  16  17
ENDBRANCH   2  16
BRANCH   7  22
ATOM     22  C   UNL     1       1.761   4.978  17.707  0.00  0.00    +0.000 C 
BRANCH  22  23
ATOM     23  O   UNL     1       1.134   3.843  18.291  0.00  0.00    +0.000 OA
ATOM     24  H   UNL     1       0.320   3.638  17.791  0.00  0.00    +0.000 HD
ENDBRANCH  22  23
ENDBRANCH   7  22
TORSDOF 6
ENDMDL
