MODEL 1
REMARK VINA RESULT:      -9.4      0.000      0.000
REMARK  Name = 
REMARK  6 active torsions:
REMARK  status: ('A' for Active; 'I' for Inactive)
REMARK    1  A    between atoms: C_6  and  C_7
REMARK    2  A    between atoms: C_6  and  N_20
REMARK    3  A    between atoms: C_10  and  O_11
REMARK    4  A    between atoms: O_11  and  C_12
REMARK    5  A    between atoms: N_24  and  C_25
REMARK    6  A    between atoms: C_25  and  C_26
REMARK                            x       y       z     vdW  Elec       q    Type
REMARK                         _______ _______ _______ _____ _____    ______ ____
ROOT
ATOM      1  O   UNL     1       2.107   1.754  20.423  0.00  0.00    +0.000 OA
ATOM      2  C   UNL     1       2.256   2.844  19.895  0.00  0.00    +0.000 C 
ATOM      3  N   UNL     1       3.309   3.638  20.208  0.00  0.00    +0.000 N 
ATOM      4  C   UNL     1       3.723   4.755  19.552  0.00  0.00    +0.000 C 
ATOM      5  O   UNL     1       4.760   5.286  19.966  0.00  0.00    +0.000 OA
ATOM      6  C   UNL     1       2.880   5.273  18.329  0.00  0.00    +0.000 C 
ATOM      7  C   UNL     1       1.631   4.333  18.079  0.00  0.00    +0.000 C 
ATOM      8  O   UNL     1       0.868   4.435  17.113  0.00  0.00    +0.000 OA
ATOM      9  N   UNL     1       1.414   3.296  18.938  0.00  0.00    +0.000 N 
ATOM     10  H   UNL     1       3.919   3.305  20.944  0.00  0.00    +0.000 HD
ATOM     11  H   UNL     1       0.659   2.676  18.684  0.00  0.00    +0.000 HD
ENDROOT
BRANCH   6  12
ATOM     12  N   UNL     1       3.748   5.217  17.048  0.00  0.00    +0.000 NA
ATOM     13  C   UNL     1       4.603   4.011  17.051  0.00  0.00    +0.000 C 
ATOM     14  C   UNL     1       5.266   3.539  15.753  0.00  0.00    +0.000 C 
ATOM     15  C   UNL     1       6.173   4.466  14.953  0.00  0.00    +0.000 C 
ATOM     16  N   UNL     1       6.581   5.738  15.524  0.00  0.00    +0.000 NA
ATOM     17  C   UNL     1       5.420   6.635  15.632  0.00  0.00    +0.000 C 
ATOM     18  C   UNL     1       4.504   6.481  16.865  0.00  0.00    +0.000 C 
BRANCH  16  19
ATOM     19  C   UNL     1       7.401   5.692  16.734  0.00  0.00    +0.000 C 
BRANCH  19  20
ATOM     20  C   UNL     1       7.156   6.841  17.667  0.00  0.00    +0.000 C 
ATOM     21  C   UNL     1       8.193   7.129  18.730  0.00  0.00    +0.000 C 
ATOM     22  C   UNL     1       7.981   8.108  17.613  0.00  0.00    +0.000 C 
ENDBRANCH  19  20
ENDBRANCH  16  19
ENDBRANCH   6  12
BRANCH   6  23
ATOM     23  C   UNL     1       2.301   6.696  18.612  0.00  0.00    +0.000 A 
ATOM     24  C   UNL     1       2.210   7.697  17.626  0.00  0.00    +0.000 A 
ATOM     25  C   UNL     1       1.755   8.986  17.935  0.00  0.00    +0.000 A 
ATOM     26  C   UNL     1       1.391   9.313  19.236  0.00  0.00    +0.000 A 
ATOM     27  C   UNL     1       1.504   8.347  20.235  0.00  0.00    +0.000 A 
ATOM     28  C   UNL     1       1.906   7.044  19.919  0.00  0.00    +0.000 A 
BRANCH  26  29
ATOM     29  O   UNL     1       0.992  10.613  19.442  0.00  0.00    +0.000 OA
BRANCH  29  30
ATOM     30  C   UNL     1      -0.317  10.973  19.217  0.00  0.00    +0.000 A 
ATOM     31  C   UNL     1      -0.978  10.296  18.191  0.00  0.00    +0.000 A 
ATOM     32  C   UNL     1      -2.302  10.613  17.881  0.00  0.00    +0.000 A 
ATOM     33  C   UNL     1      -2.966  11.609  18.598  0.00  0.00    +0.000 A 
ATOM     34  C   UNL     1      -2.321  12.257  19.650  0.00  0.00    +0.000 A 
ATOM     35  C   UNL     1      -1.011  11.917  19.981  0.00  0.00    +0.000 A 
ENDBRANCH  29  30
ENDBRANCH  26  29
ENDBRANCH   6  23
TORSDOF 6
ENDMDL
MODEL 2
REMARK VINA RESULT:      -9.2      0.431      1.260
REMARK  Name = 
REMARK  6 active torsions:
REMARK  status: ('A' for Active; 'I' for Inactive)
REMARK    1  A    between atoms: C_6  and  C_7
REMARK    2  A    between atoms: C_6  and  N_20
REMARK    3  A    between atoms: C_10  and  O_11
REMARK    4  A    between atoms: O_11  and  C_12
REMARK    5  A    between atoms: N_24  and  C_25
REMARK    6  A    between atoms: C_25  and  C_26
REMARK                            x       y       z     vdW  Elec       q    Type
REMARK                         _______ _______ _______ _____ _____    ______ ____
ROOT
ATOM      1  O   UNL     1       2.777   1.993  20.721  0.00  0.00    +0.000 OA
ATOM      2  C   UNL     1       2.810   3.062  20.134  0.00  0.00    +0.000 C 
ATOM      3  N   UNL     1       3.844   3.923  20.300  0.00  0.00    +0.000 N 
ATOM      4  C   UNL     1       4.124   5.027  19.557  0.00  0.00    +0.000 C 
ATOM      5  O   UNL     1       5.167   5.630  19.836  0.00  0.00    +0.000 OA
ATOM      6  C   UNL     1       3.133   5.441  18.408  0.00  0.00    +0.000 C 
ATOM      7  C   UNL     1       1.919   4.427  18.331  0.00  0.00    +0.000 C 
ATOM      8  O   UNL     1       1.057   4.442  17.446  0.00  0.00    +0.000 OA
ATOM      9  N   UNL     1       1.851   3.423  19.252  0.00  0.00    +0.000 N 
ATOM     10  H   UNL     1       4.543   3.658  20.982  0.00  0.00    +0.000 HD
ATOM     11  H   UNL     1       1.109   2.754  19.106  0.00  0.00    +0.000 HD
ENDROOT
BRANCH   6  12
ATOM     12  N   UNL     1       3.867   5.368  17.047  0.00  0.00    +0.000 NA
ATOM     13  C   UNL     1       4.720   4.162  16.980  0.00  0.00    +0.000 C 
ATOM     14  C   UNL     1       5.250   3.673  15.629  0.00  0.00    +0.000 C 
ATOM     15  C   UNL     1       6.069   4.589  14.728  0.00  0.00    +0.000 C 
ATOM     16  N   UNL     1       6.529   5.869  15.236  0.00  0.00    +0.000 NA
ATOM     17  C   UNL     1       5.383   6.766  15.448  0.00  0.00    +0.000 C 
ATOM     18  C   UNL     1       4.597   6.629  16.770  0.00  0.00    +0.000 C 
BRANCH  16  19
ATOM     19  C   UNL     1       7.468   5.842  16.357  0.00  0.00    +0.000 C 
BRANCH  19  20
ATOM     20  C   UNL     1       7.169   6.865  17.413  0.00  0.00    +0.000 C 
ATOM     21  C   UNL     1       8.119   6.979  18.585  0.00  0.00    +0.000 C 
ATOM     22  C   UNL     1       8.021   8.102  17.595  0.00  0.00    +0.000 C 
ENDBRANCH  19  20
ENDBRANCH  16  19
ENDBRANCH   6  12
BRANCH   6  23
ATOM     23  C   UNL     1       2.507   6.844  18.688  0.00  0.00    +0.000 A 
ATOM     24  C   UNL     1       2.002   7.222  19.947  0.00  0.00    +0.000 A 
ATOM     25  C   UNL     1       1.379   8.462  20.141  0.00  0.00    +0.000 A 
ATOM     26  C   UNL     1       1.233   9.352  19.083  0.00  0.00    +0.000 A 
ATOM     27  C   UNL     1       1.696   8.986  17.820  0.00  0.00    +0.000 A 
ATOM     28  C   UNL     1       2.368   7.772  17.637  0.00  0.00    +0.000 A 
BRANCH  26  29
ATOM     29  O   UNL     1       0.576  10.527  19.369  0.00  0.00    +0.000 OA
BRANCH  29  30
ATOM     30  C   UNL     1      -0.708  10.723  18.913  0.00  0.00    +0.000 A 
ATOM     31  C   UNL     1      -1.433  11.747  19.524  0.00  0.00    +0.000 A 
ATOM     32  C   UNL     1      -2.750  12.000  19.137  0.00  0.00    +0.000 A 
ATOM     33  C   UNL     1      -3.343  11.228  18.138  0.00  0.00    +0.000 A 
ATOM     34  C   UNL     1      -2.608  10.232  17.498  0.00  0.00    +0.000 A 
ATOM     35  C   UNL     1      -1.282  10.002  17.860  0.00  0.00    +0.000 A 
ENDBRANCH  29  30
ENDBRANCH  26  29
ENDBRANCH   6  23
TORSDOF 6
ENDMDL
MODEL 3
REMARK VINA RESULT:      -9.0      0.791      1.329
REMARK  Name = 
REMARK  6 active torsions:
REMARK  status: ('A' for Active; 'I' for Inactive)
REMARK    1  A    between atoms: C_6  and  C_7
REMARK    2  A    between atoms: C_6  and  N_20
REMARK    3  A    between atoms: C_10  and  O_11
REMARK    4  A    between atoms: O_11  and  C_12
REMARK    5  A    between atoms: N_24  and  C_25
REMARK    6  A    between atoms: C_25  and  C_26
REMARK                            x       y       z     vdW  Elec       q    Type
REMARK                         _______ _______ _______ _____ _____    ______ ____
ROOT
ATOM      1  O   UNL     1       2.396   1.122  19.751  0.00  0.00    +0.000 OA
ATOM      2  C   UNL     1       2.529   2.291  19.425  0.00  0.00    +0.000 C 
ATOM      3  N   UNL     1       3.621   3.004  19.796  0.00  0.00    +0.000 N 
ATOM      4  C   UNL     1       4.009   4.220  19.328  0.00  0.00    +0.000 C 
ATOM      5  O   UNL     1       5.086   4.656  19.750  0.00  0.00    +0.000 OA
ATOM      6  C   UNL     1       3.088   4.965  18.294  0.00  0.00    +0.000 C 
ATOM      7  C   UNL     1       1.802   4.099  17.972  0.00  0.00    +0.000 C 
ATOM      8  O   UNL     1       0.970   4.386  17.105  0.00  0.00    +0.000 OA
ATOM      9  N   UNL     1       1.628   2.921  18.638  0.00  0.00    +0.000 N 
ATOM     10  H   UNL     1       4.276   2.534  20.407  0.00  0.00    +0.000 HD
ATOM     11  H   UNL     1       0.841   2.366  18.333  0.00  0.00    +0.000 HD
ENDROOT
BRANCH   6  12
ATOM     12  N   UNL     1       3.854   5.143  16.960  0.00  0.00    +0.000 NA
ATOM     13  C   UNL     1       4.722   3.974  16.699  0.00  0.00    +0.000 C 
ATOM     14  C   UNL     1       5.289   3.740  15.296  0.00  0.00    +0.000 C 
ATOM     15  C   UNL     1       6.119   4.809  14.595  0.00  0.00    +0.000 C 
ATOM     16  N   UNL     1       6.553   5.979  15.337  0.00  0.00    +0.000 NA
ATOM     17  C   UNL     1       5.393   6.816  15.678  0.00  0.00    +0.000 C 
ATOM     18  C   UNL     1       4.577   6.438  16.933  0.00  0.00    +0.000 C 
BRANCH  16  19
ATOM     19  C   UNL     1       7.465   5.757  16.458  0.00  0.00    +0.000 C 
BRANCH  19  20
ATOM     20  C   UNL     1       7.187   6.637  17.640  0.00  0.00    +0.000 C 
ATOM     21  C   UNL     1       8.200   6.664  18.764  0.00  0.00    +0.000 C 
ATOM     22  C   UNL     1       7.994   7.886  17.918  0.00  0.00    +0.000 C 
ENDBRANCH  19  20
ENDBRANCH  16  19
ENDBRANCH   6  12
BRANCH   6  23
ATOM     23  C   UNL     1       2.565   6.314  18.880  0.00  0.00    +0.000 A 
ATOM     24  C   UNL     1       2.171   6.466  20.223  0.00  0.00    +0.000 A 
ATOM     25  C   UNL     1       1.635   7.672  20.695  0.00  0.00    +0.000 A 
ATOM     26  C   UNL     1       1.468   8.753  19.837  0.00  0.00    +0.000 A 
ATOM     27  C   UNL     1       1.820   8.616  18.495  0.00  0.00    +0.000 A 
ATOM     28  C   UNL     1       2.406   7.431  18.035  0.00  0.00    +0.000 A 
BRANCH  26  29
ATOM     29  O   UNL     1       0.901   9.879  20.389  0.00  0.00    +0.000 OA
BRANCH  29  30
ATOM     30  C   UNL     1       0.110  10.698  19.616  0.00  0.00    +0.000 A 
ATOM     31  C   UNL     1       0.681  11.904  19.206  0.00  0.00    +0.000 A 
ATOM     32  C   UNL     1      -0.058  12.804  18.437  0.00  0.00    +0.000 A 
ATOM     33  C   UNL     1      -1.371  12.498  18.076  0.00  0.00    +0.000 A 
ATOM     34  C   UNL     1      -1.929  11.276  18.449  0.00  0.00    +0.000 A 
ATOM     35  C   UNL     1      -1.179  10.364  19.188  0.00  0.00    +0.000 A 
ENDBRANCH  29  30
ENDBRANCH  26  29
ENDBRANCH   6  23
TORSDOF 6
ENDMDL
MODEL 4
REMARK VINA RESULT:      -8.8      4.613      8.898
REMARK  Name = 
REMARK  6 active torsions:
REMARK  status: ('A' for Active; 'I' for Inactive)
REMARK    1  A    between atoms: C_6  and  C_7
REMARK    2  A    between atoms: C_6  and  N_20
REMARK    3  A    between atoms: C_10  and  O_11
REMARK    4  A    between atoms: O_11  and  C_12
REMARK    5  A    between atoms: N_24  and  C_25
REMARK    6  A    between atoms: C_25  and  C_26
REMARK                            x       y       z     vdW  Elec       q    Type
REMARK                         _______ _______ _______ _____ _____    ______ ____
ROOT
ATOM      1  O   UNL     1      -3.880  12.633  21.108  0.00  0.00    +0.000 OA
ATOM      2  C   UNL     1      -2.814  12.249  20.654  0.00  0.00    +0.000 C 
ATOM      3  N   UNL     1      -2.703  11.853  19.362  0.00  0.00    +0.000 N 
ATOM      4  C   UNL     1      -1.556  11.621  18.668  0.00  0.00    +0.000 C 
ATOM      5  O   UNL     1      -1.684  11.341  17.470  0.00  0.00    +0.000 OA
ATOM      6  C   UNL     1      -0.178  11.737  19.416  0.00  0.00    +0.000 C 
ATOM      7  C   UNL     1      -0.403  12.130  20.934  0.00  0.00    +0.000 C 
ATOM      8  O   UNL     1       0.508  12.406  21.722  0.00  0.00    +0.000 OA
ATOM      9  N   UNL     1      -1.682  12.246  21.393  0.00  0.00    +0.000 N 
ATOM     10  H   UNL     1      -3.559  11.832  18.824  0.00  0.00    +0.000 HD
ATOM     11  H   UNL     1      -1.771  12.584  22.341  0.00  0.00    +0.000 HD
ENDROOT
BRANCH   6  12
ATOM     12  N   UNL     1       0.657  12.874  18.777  0.00  0.00    +0.000 NA
ATOM     13  C   UNL     1       2.085  12.734  19.134  0.00  0.00    +0.000 C 
ATOM     14  C   UNL     1       3.151  13.499  18.342  0.00  0.00    +0.000 C 
ATOM     15  C   UNL     1       3.091  15.015  18.207  0.00  0.00    +0.000 C 
ATOM     16  N   UNL     1       2.137  15.768  19.002  0.00  0.00    +0.000 NA
ATOM     17  C   UNL     1       0.767  15.472  18.556  0.00  0.00    +0.000 C 
ATOM     18  C   UNL     1       0.088  14.203  19.113  0.00  0.00    +0.000 C 
BRANCH  16  19
ATOM     19  C   UNL     1       2.302  15.728  20.455  0.00  0.00    +0.000 C 
BRANCH  19  20
ATOM     20  C   UNL     1       2.724  17.041  21.046  0.00  0.00    +0.000 C 
ATOM     21  C   UNL     1       2.088  18.303  20.507  0.00  0.00    +0.000 C 
ATOM     22  C   UNL     1       1.797  17.866  21.912  0.00  0.00    +0.000 C 
ENDBRANCH  19  20
ENDBRANCH  16  19
ENDBRANCH   6  12
BRANCH   6  23
ATOM     23  C   UNL     1       0.569  10.366  19.431  0.00  0.00    +0.000 A 
ATOM     24  C   UNL     1       0.711   9.581  20.591  0.00  0.00    +0.000 A 
ATOM     25  C   UNL     1       1.453   8.393  20.582  0.00  0.00    +0.000 A 
ATOM     26  C   UNL     1       2.081   7.962  19.419  0.00  0.00    +0.000 A 
ATOM     27  C   UNL     1       1.981   8.740  18.266  0.00  0.00    +0.000 A 
ATOM     28  C   UNL     1       1.196   9.897  18.259  0.00  0.00    +0.000 A 
BRANCH  26  29
ATOM     29  O   UNL     1       2.814   6.802  19.524  0.00  0.00    +0.000 OA
BRANCH  29  30
ATOM     30  C   UNL     1       2.197   5.583  19.355  0.00  0.00    +0.000 A 
ATOM     31  C   UNL     1       1.686   4.983  20.507  0.00  0.00    +0.000 A 
ATOM     32  C   UNL     1       1.064   3.736  20.430  0.00  0.00    +0.000 A 
ATOM     33  C   UNL     1       0.952   3.088  19.199  0.00  0.00    +0.000 A 
ATOM     34  C   UNL     1       1.425   3.704  18.042  0.00  0.00    +0.000 A 
ATOM     35  C   UNL     1       2.016   4.964  18.114  0.00  0.00    +0.000 A 
ENDBRANCH  29  30
ENDBRANCH  26  29
ENDBRANCH   6  23
TORSDOF 6
ENDMDL
MODEL 5
REMARK VINA RESULT:      -8.5      1.492      1.992
REMARK  Name = 
REMARK  6 active torsions:
REMARK  status: ('A' for Active; 'I' for Inactive)
REMARK    1  A    between atoms: C_6  and  C_7
REMARK    2  A    between atoms: C_6  and  N_20
REMARK    3  A    between atoms: C_10  and  O_11
REMARK    4  A    between atoms: O_11  and  C_12
REMARK    5  A    between atoms: N_24  and  C_25
REMARK    6  A    between atoms: C_25  and  C_26
REMARK                            x       y       z     vdW  Elec       q    Type
REMARK                         _______ _______ _______ _____ _____    ______ ____
ROOT
ATOM      1  O   UNL     1       1.974   1.433  19.859  0.00  0.00    +0.000 OA
ATOM      2  C   UNL     1       2.173   2.586  19.512  0.00  0.00    +0.000 C 
ATOM      3  N   UNL     1       3.252   3.276  19.956  0.00  0.00    +0.000 N 
ATOM      4  C   UNL     1       3.718   4.466  19.488  0.00  0.00    +0.000 C 
ATOM      5  O   UNL     1       4.769   4.882  19.989  0.00  0.00    +0.000 OA
ATOM      6  C   UNL     1       2.913   5.205  18.358  0.00  0.00    +0.000 C 
ATOM      7  C   UNL     1       1.631   4.369  17.952  0.00  0.00    +0.000 C 
ATOM      8  O   UNL     1       0.886   4.654  17.008  0.00  0.00    +0.000 OA
ATOM      9  N   UNL     1       1.363   3.218  18.633  0.00  0.00    +0.000 N 
ATOM     10  H   UNL     1       3.838   2.806  20.633  0.00  0.00    +0.000 HD
ATOM     11  H   UNL     1       0.587   2.677  18.278  0.00  0.00    +0.000 HD
ENDROOT
BRANCH   6  12
ATOM     12  N   UNL     1       3.795   5.318  17.091  0.00  0.00    +0.000 NA
ATOM     13  C   UNL     1       4.495   4.043  16.829  0.00  0.00    +0.000 C 
ATOM     14  C   UNL     1       5.124   3.782  15.456  0.00  0.00    +0.000 C 
ATOM     15  C   UNL     1       6.156   4.739  14.871  0.00  0.00    +0.000 C 
ATOM     16  N   UNL     1       6.704   5.797  15.700  0.00  0.00    +0.000 NA
ATOM     17  C   UNL     1       5.660   6.787  16.005  0.00  0.00    +0.000 C 
ATOM     18  C   UNL     1       4.705   6.488  17.181  0.00  0.00    +0.000 C 
BRANCH  16  19
ATOM     19  C   UNL     1       7.485   5.391  16.868  0.00  0.00    +0.000 C 
BRANCH  19  20
ATOM     20  C   UNL     1       7.241   6.244  18.078  0.00  0.00    +0.000 C 
ATOM     21  C   UNL     1       8.099   6.007  19.302  0.00  0.00    +0.000 C 
ATOM     22  C   UNL     1       8.233   7.291  18.535  0.00  0.00    +0.000 C 
ENDBRANCH  19  20
ENDBRANCH  16  19
ENDBRANCH   6  12
BRANCH   6  23
ATOM     23  C   UNL     1       2.386   6.587  18.859  0.00  0.00    +0.000 A 
ATOM     24  C   UNL     1       2.041   6.837  20.201  0.00  0.00    +0.000 A 
ATOM     25  C   UNL     1       1.500   8.067  20.599  0.00  0.00    +0.000 A 
ATOM     26  C   UNL     1       1.279   9.075  19.668  0.00  0.00    +0.000 A 
ATOM     27  C   UNL     1       1.583   8.839  18.327  0.00  0.00    +0.000 A 
ATOM     28  C   UNL     1       2.174   7.632  17.937  0.00  0.00    +0.000 A 
BRANCH  26  29
ATOM     29  O   UNL     1       0.712  10.231  20.153  0.00  0.00    +0.000 OA
BRANCH  29  30
ATOM     30  C   UNL     1       1.264  11.451  19.836  0.00  0.00    +0.000 A 
ATOM     31  C   UNL     1       1.756  11.590  18.537  0.00  0.00    +0.000 A 
ATOM     32  C   UNL     1       2.351  12.788  18.138  0.00  0.00    +0.000 A 
ATOM     33  C   UNL     1       2.455  13.848  19.039  0.00  0.00    +0.000 A 
ATOM     34  C   UNL     1       1.927  13.726  20.323  0.00  0.00    +0.000 A 
ATOM     35  C   UNL     1       1.302  12.542  20.710  0.00  0.00    +0.000 A 
ENDBRANCH  29  30
ENDBRANCH  26  29
ENDBRANCH   6  23
TORSDOF 6
ENDMDL
MODEL 6
REMARK VINA RESULT:      -8.4      4.601      8.668
REMARK  Name = 
REMARK  6 active torsions:
REMARK  status: ('A' for Active; 'I' for Inactive)
REMARK    1  A    between atoms: C_6  and  C_7
REMARK    2  A    between atoms: C_6  and  N_20
REMARK    3  A    between atoms: C_10  and  O_11
REMARK    4  A    between atoms: O_11  and  C_12
REMARK    5  A    between atoms: N_24  and  C_25
REMARK    6  A    between atoms: C_25  and  C_26
REMARK                            x       y       z     vdW  Elec       q    Type
REMARK                         _______ _______ _______ _____ _____    ______ ____
ROOT
ATOM      1  O   UNL     1      -3.742  12.286  21.084  0.00  0.00    +0.000 OA
ATOM      2  C   UNL     1      -2.655  11.978  20.622  0.00  0.00    +0.000 C 
ATOM      3  N   UNL     1      -2.526  11.586  19.330  0.00  0.00    +0.000 N 
ATOM      4  C   UNL     1      -1.371  11.435  18.628  0.00  0.00    +0.000 C 
ATOM      5  O   UNL     1      -1.488  11.142  17.432  0.00  0.00    +0.000 OA
ATOM      6  C   UNL     1       0.001  11.653  19.364  0.00  0.00    +0.000 C 
ATOM      7  C   UNL     1      -0.239  12.034  20.882  0.00  0.00    +0.000 C 
ATOM      8  O   UNL     1       0.656  12.377  21.662  0.00  0.00    +0.000 OA
ATOM      9  N   UNL     1      -1.519  12.059  21.352  0.00  0.00    +0.000 N 
ATOM     10  H   UNL     1      -3.383  11.502  18.800  0.00  0.00    +0.000 HD
ATOM     11  H   UNL     1      -1.625  12.393  22.299  0.00  0.00    +0.000 HD
ENDROOT
BRANCH   6  12
ATOM     12  N   UNL     1       0.747  12.844  18.715  0.00  0.00    +0.000 NA
ATOM     13  C   UNL     1       2.172  12.844  19.110  0.00  0.00    +0.000 C 
ATOM     14  C   UNL     1       3.185  13.682  18.325  0.00  0.00    +0.000 C 
ATOM     15  C   UNL     1       2.992  15.183  18.147  0.00  0.00    +0.000 C 
ATOM     16  N   UNL     1       1.953  15.866  18.896  0.00  0.00    +0.000 NA
ATOM     17  C   UNL     1       0.628  15.435  18.424  0.00  0.00    +0.000 C 
ATOM     18  C   UNL     1       0.051  14.124  18.999  0.00  0.00    +0.000 C 
BRANCH  16  19
ATOM     19  C   UNL     1       2.081  15.878  20.353  0.00  0.00    +0.000 C 
BRANCH  19  20
ATOM     20  C   UNL     1       3.437  16.306  20.832  0.00  0.00    +0.000 C 
ATOM     21  C   UNL     1       3.655  17.772  21.138  0.00  0.00    +0.000 C 
ATOM     22  C   UNL     1       3.677  16.768  22.253  0.00  0.00    +0.000 C 
ENDBRANCH  19  20
ENDBRANCH  16  19
ENDBRANCH   6  12
BRANCH   6  23
ATOM     23  C   UNL     1       0.844  10.339  19.376  0.00  0.00    +0.000 A 
ATOM     24  C   UNL     1       1.542   9.863  18.249  0.00  0.00    +0.000 A 
ATOM     25  C   UNL     1       2.226   8.641  18.276  0.00  0.00    +0.000 A 
ATOM     26  C   UNL     1       2.223   7.856  19.424  0.00  0.00    +0.000 A 
ATOM     27  C   UNL     1       1.513   8.291  20.542  0.00  0.00    +0.000 A 
ATOM     28  C   UNL     1       0.875   9.537  20.534  0.00  0.00    +0.000 A 
BRANCH  26  29
ATOM     29  O   UNL     1       2.894   6.658  19.336  0.00  0.00    +0.000 OA
BRANCH  29  30
ATOM     30  C   UNL     1       2.187   5.478  19.283  0.00  0.00    +0.000 A 
ATOM     31  C   UNL     1       1.773   4.948  20.506  0.00  0.00    +0.000 A 
ATOM     32  C   UNL     1       1.069   3.743  20.545  0.00  0.00    +0.000 A 
ATOM     33  C   UNL     1       0.778   3.068  19.359  0.00  0.00    +0.000 A 
ATOM     34  C   UNL     1       1.154   3.616  18.134  0.00  0.00    +0.000 A 
ATOM     35  C   UNL     1       1.827   4.836  18.094  0.00  0.00    +0.000 A 
ENDBRANCH  29  30
ENDBRANCH  26  29
ENDBRANCH   6  23
TORSDOF 6
ENDMDL
MODEL 7
REMARK VINA RESULT:      -8.3      4.591      8.887
REMARK  Name = 
REMARK  6 active torsions:
REMARK  status: ('A' for Active; 'I' for Inactive)
REMARK    1  A    between atoms: C_6  and  C_7
REMARK    2  A    between atoms: C_6  and  N_20
REMARK    3  A    between atoms: C_10  and  O_11
REMARK    4  A    between atoms: O_11  and  C_12
REMARK    5  A    between atoms: N_24  and  C_25
REMARK    6  A    between atoms: C_25  and  C_26
REMARK                            x       y       z     vdW  Elec       q    Type
REMARK                         _______ _______ _______ _____ _____    ______ ____
ROOT
ATOM      1  O   UNL     1      -2.955  12.526  22.268  0.00  0.00    +0.000 OA
ATOM      2  C   UNL     1      -2.066  12.154  21.519  0.00  0.00    +0.000 C 
ATOM      3  N   UNL     1      -2.328  11.815  20.233  0.00  0.00    +0.000 N 
ATOM      4  C   UNL     1      -1.426  11.604  19.237  0.00  0.00    +0.000 C 
ATOM      5  O   UNL     1      -1.889  11.379  18.112  0.00  0.00    +0.000 OA
ATOM      6  C   UNL     1       0.108  11.676  19.574  0.00  0.00    +0.000 C 
ATOM      7  C   UNL     1       0.324  12.004  21.108  0.00  0.00    +0.000 C 
ATOM      8  O   UNL     1       1.424  12.236  21.620  0.00  0.00    +0.000 OA
ATOM      9  N   UNL     1      -0.773  12.109  21.911  0.00  0.00    +0.000 N 
ATOM     10  H   UNL     1      -3.301  11.825  19.956  0.00  0.00    +0.000 HD
ATOM     11  H   UNL     1      -0.587  12.406  22.859  0.00  0.00    +0.000 HD
ENDROOT
BRANCH   6  12
ATOM     12  N   UNL     1       0.754  12.833  18.773  0.00  0.00    +0.000 NA
ATOM     13  C   UNL     1       2.205  12.910  19.048  0.00  0.00    +0.000 C 
ATOM     14  C   UNL     1       3.120  13.712  18.117  0.00  0.00    +0.000 C 
ATOM     15  C   UNL     1       2.857  15.187  17.837  0.00  0.00    +0.000 C 
ATOM     16  N   UNL     1       1.856  15.896  18.614  0.00  0.00    +0.000 NA
ATOM     17  C   UNL     1       0.515  15.387  18.289  0.00  0.00    +0.000 C 
ATOM     18  C   UNL     1       0.035  14.109  19.012  0.00  0.00    +0.000 C 
BRANCH  16  19
ATOM     19  C   UNL     1       2.099  16.032  20.050  0.00  0.00    +0.000 C 
BRANCH  19  20
ATOM     20  C   UNL     1       2.351  17.445  20.484  0.00  0.00    +0.000 C 
ATOM     21  C   UNL     1       1.461  18.532  19.923  0.00  0.00    +0.000 C 
ATOM     22  C   UNL     1       1.388  18.192  21.382  0.00  0.00    +0.000 C 
ENDBRANCH  19  20
ENDBRANCH  16  19
ENDBRANCH   6  12
BRANCH   6  23
ATOM     23  C   UNL     1       0.801  10.300  19.323  0.00  0.00    +0.000 A 
ATOM     24  C   UNL     1       0.988   9.339  20.335  0.00  0.00    +0.000 A 
ATOM     25  C   UNL     1       1.682   8.146  20.090  0.00  0.00    +0.000 A 
ATOM     26  C   UNL     1       2.217   7.887  18.834  0.00  0.00    +0.000 A 
ATOM     27  C   UNL     1       2.073   8.838  17.825  0.00  0.00    +0.000 A 
ATOM     28  C   UNL     1       1.334  10.004  18.052  0.00  0.00    +0.000 A 
BRANCH  26  29
ATOM     29  O   UNL     1       2.910   6.705  18.706  0.00  0.00    +0.000 OA
BRANCH  29  30
ATOM     30  C   UNL     1       2.302   5.514  19.032  0.00  0.00    +0.000 A 
ATOM     31  C   UNL     1       1.988   4.667  17.968  0.00  0.00    +0.000 A 
ATOM     32  C   UNL     1       1.350   3.449  18.207  0.00  0.00    +0.000 A 
ATOM     33  C   UNL     1       1.026   3.077  19.512  0.00  0.00    +0.000 A 
ATOM     34  C   UNL     1       1.375   3.901  20.579  0.00  0.00    +0.000 A 
ATOM     35  C   UNL     1       2.042   5.102  20.343  0.00  0.00    +0.000 A 
ENDBRANCH  29  30
ENDBRANCH  26  29
ENDBRANCH   6  23
TORSDOF 6
ENDMDL
MODEL 8
REMARK VINA RESULT:      -8.3      4.509     10.000
REMARK  Name = 
REMARK  6 active torsions:
REMARK  status: ('A' for Active; 'I' for Inactive)
REMARK    1  A    between atoms: C_6  and  C_7
REMARK    2  A    between atoms: C_6  and  N_20
REMARK    3  A    between atoms: C_10  and  O_11
REMARK    4  A    between atoms: O_11  and  C_12
REMARK    5  A    between atoms: N_24  and  C_25
REMARK    6  A    between atoms: C_25  and  C_26
REMARK                            x       y       z     vdW  Elec       q    Type
REMARK                         _______ _______ _______ _____ _____    ______ ____
ROOT
ATOM      1  O   UNL     1       0.537  15.104  17.864  0.00  0.00    +0.000 OA
ATOM      2  C   UNL     1       0.369  14.048  18.453  0.00  0.00    +0.000 C 
ATOM      3  N   UNL     1       0.856  13.857  19.704  0.00  0.00    +0.000 N 
ATOM      4  C   UNL     1       0.559  12.840  20.556  0.00  0.00    +0.000 C 
ATOM      5  O   UNL     1       1.060  12.902  21.685  0.00  0.00    +0.000 OA
ATOM      6  C   UNL     1      -0.391  11.688  20.063  0.00  0.00    +0.000 C 
ATOM      7  C   UNL     1      -0.854  11.951  18.571  0.00  0.00    +0.000 C 
ATOM      8  O   UNL     1      -1.696  11.272  17.975  0.00  0.00    +0.000 OA
ATOM      9  N   UNL     1      -0.351  13.037  17.917  0.00  0.00    +0.000 N 
ATOM     10  H   UNL     1       1.415  14.608  20.086  0.00  0.00    +0.000 HD
ATOM     11  H   UNL     1      -0.744  13.210  17.002  0.00  0.00    +0.000 HD
ENDROOT
BRANCH   6  12
ATOM     12  N   UNL     1      -1.672  11.673  20.933  0.00  0.00    +0.000 NA
ATOM     13  C   UNL     1      -2.628  12.701  20.471  0.00  0.00    +0.000 C 
ATOM     14  C   UNL     1      -4.092  12.643  20.919  0.00  0.00    +0.000 C 
ATOM     15  C   UNL     1      -4.461  12.628  22.397  0.00  0.00    +0.000 C 
ATOM     16  N   UNL     1      -3.436  12.878  23.394  0.00  0.00    +0.000 NA
ATOM     17  C   UNL     1      -2.474  11.766  23.415  0.00  0.00    +0.000 C 
ATOM     18  C   UNL     1      -1.334  11.780  22.374  0.00  0.00    +0.000 C 
BRANCH  16  19
ATOM     19  C   UNL     1      -2.805  14.198  23.385  0.00  0.00    +0.000 C 
BRANCH  19  20
ATOM     20  C   UNL     1      -2.385  14.671  24.745  0.00  0.00    +0.000 C 
ATOM     21  C   UNL     1      -1.650  15.989  24.845  0.00  0.00    +0.000 C 
ATOM     22  C   UNL     1      -3.033  15.863  25.415  0.00  0.00    +0.000 C 
ENDBRANCH  19  20
ENDBRANCH  16  19
ENDBRANCH   6  12
BRANCH   6  23
ATOM     23  C   UNL     1       0.353  10.316  20.049  0.00  0.00    +0.000 A 
ATOM     24  C   UNL     1       0.422   9.468  21.172  0.00  0.00    +0.000 A 
ATOM     25  C   UNL     1       1.163   8.280  21.144  0.00  0.00    +0.000 A 
ATOM     26  C   UNL     1       1.863   7.911  20.001  0.00  0.00    +0.000 A 
ATOM     27  C   UNL     1       1.836   8.750  18.888  0.00  0.00    +0.000 A 
ATOM     28  C   UNL     1       1.052   9.909  18.895  0.00  0.00    +0.000 A 
BRANCH  26  29
ATOM     29  O   UNL     1       2.588   6.744  20.088  0.00  0.00    +0.000 OA
BRANCH  29  30
ATOM     30  C   UNL     1       2.067   5.574  19.584  0.00  0.00    +0.000 A 
ATOM     31  C   UNL     1       1.429   4.736  20.499  0.00  0.00    +0.000 A 
ATOM     32  C   UNL     1       0.891   3.518  20.078  0.00  0.00    +0.000 A 
ATOM     33  C   UNL     1       0.992   3.139  18.738  0.00  0.00    +0.000 A 
ATOM     34  C   UNL     1       1.592   3.993  17.815  0.00  0.00    +0.000 A 
ATOM     35  C   UNL     1       2.099   5.223  18.231  0.00  0.00    +0.000 A 
ENDBRANCH  29  30
ENDBRANCH  26  29
ENDBRANCH   6  23
TORSDOF 6
ENDMDL
MODEL 9
REMARK VINA RESULT:      -8.3      4.590      8.889
REMARK  Name = 
REMARK  6 active torsions:
REMARK  status: ('A' for Active; 'I' for Inactive)
REMARK    1  A    between atoms: C_6  and  C_7
REMARK    2  A    between atoms: C_6  and  N_20
REMARK    3  A    between atoms: C_10  and  O_11
REMARK    4  A    between atoms: O_11  and  C_12
REMARK    5  A    between atoms: N_24  and  C_25
REMARK    6  A    between atoms: C_25  and  C_26
REMARK                            x       y       z     vdW  Elec       q    Type
REMARK                         _______ _______ _______ _____ _____    ______ ____
ROOT
ATOM      1  O   UNL     1      -4.085  12.257  20.531  0.00  0.00    +0.000 OA
ATOM      2  C   UNL     1      -2.949  11.980  20.180  0.00  0.00    +0.000 C 
ATOM      3  N   UNL     1      -2.680  11.609  18.904  0.00  0.00    +0.000 N 
ATOM      4  C   UNL     1      -1.456  11.493  18.321  0.00  0.00    +0.000 C 
ATOM      5  O   UNL     1      -1.444  11.213  17.116  0.00  0.00    +0.000 OA
ATOM      6  C   UNL     1      -0.172  11.734  19.196  0.00  0.00    +0.000 C 
ATOM      7  C   UNL     1      -0.574  12.090  20.685  0.00  0.00    +0.000 C 
ATOM      8  O   UNL     1       0.228  12.443  21.556  0.00  0.00    +0.000 OA
ATOM      9  N   UNL     1      -1.896  12.079  21.022  0.00  0.00    +0.000 N 
ATOM     10  H   UNL     1      -3.476  11.511  18.288  0.00  0.00    +0.000 HD
ATOM     11  H   UNL     1      -2.106  12.398  21.957  0.00  0.00    +0.000 HD
ENDROOT
BRANCH   6  12
ATOM     12  N   UNL     1       0.607  12.951  18.638  0.00  0.00    +0.000 NA
ATOM     13  C   UNL     1       2.015  12.918  19.088  0.00  0.00    +0.000 C 
ATOM     14  C   UNL     1       3.064  13.787  18.386  0.00  0.00    +0.000 C 
ATOM     15  C   UNL     1       2.888  15.297  18.279  0.00  0.00    +0.000 C 
ATOM     16  N   UNL     1       1.825  15.949  19.023  0.00  0.00    +0.000 NA
ATOM     17  C   UNL     1       0.517  15.554  18.479  0.00  0.00    +0.000 C 
ATOM     18  C   UNL     1      -0.091  14.220  18.962  0.00  0.00    +0.000 C 
BRANCH  16  19
ATOM     19  C   UNL     1       1.897  15.884  20.483  0.00  0.00    +0.000 C 
BRANCH  19  20
ATOM     20  C   UNL     1       2.115  17.219  21.131  0.00  0.00    +0.000 C 
ATOM     21  C   UNL     1       1.766  18.461  20.341  0.00  0.00    +0.000 C 
ATOM     22  C   UNL     1       0.963  18.102  21.558  0.00  0.00    +0.000 C 
ENDBRANCH  19  20
ENDBRANCH  16  19
ENDBRANCH   6  12
BRANCH   6  23
ATOM     23  C   UNL     1       0.698  10.440  19.280  0.00  0.00    +0.000 A 
ATOM     24  C   UNL     1       1.406   9.917  18.181  0.00  0.00    +0.000 A 
ATOM     25  C   UNL     1       2.115   8.713  18.275  0.00  0.00    +0.000 A 
ATOM     26  C   UNL     1       2.127   7.992  19.464  0.00  0.00    +0.000 A 
ATOM     27  C   UNL     1       1.407   8.473  20.556  0.00  0.00    +0.000 A 
ATOM     28  C   UNL     1       0.744   9.703  20.481  0.00  0.00    +0.000 A 
BRANCH  26  29
ATOM     29  O   UNL     1       2.822   6.805  19.442  0.00  0.00    +0.000 OA
BRANCH  29  30
ATOM     30  C   UNL     1       2.139   5.611  19.394  0.00  0.00    +0.000 A 
ATOM     31  C   UNL     1       2.046   5.001  18.142  0.00  0.00    +0.000 A 
ATOM     32  C   UNL     1       1.352   3.798  17.999  0.00  0.00    +0.000 A 
ATOM     33  C   UNL     1       0.751   3.204  19.110  0.00  0.00    +0.000 A 
ATOM     34  C   UNL     1       0.878   3.790  20.368  0.00  0.00    +0.000 A 
ATOM     35  C   UNL     1       1.599   4.973  20.516  0.00  0.00    +0.000 A 
ENDBRANCH  29  30
ENDBRANCH  26  29
ENDBRANCH   6  23
TORSDOF 6
ENDMDL
