MODEL 1
REMARK VINA RESULT:      -6.2      0.000      0.000
REMARK  Name = 
REMARK  12 active torsions:
REMARK  status: ('A' for Active; 'I' for Inactive)
REMARK    1  A    between atoms: C_2  and  C_3
REMARK    2  A    between atoms: C_3  and  C_4
REMARK    3  A    between atoms: C_6  and  C_7
REMARK    4  A    between atoms: C_7  and  N_8
REMARK    5  A    between atoms: N_8  and  C_9
REMARK    6  A    between atoms: N_8  and  C_10
REMARK    7  A    between atoms: C_10  and  C_11
REMARK    8  A    between atoms: C_11  and  C_12
REMARK    9  A    between atoms: C_18  and  O_19
REMARK   10  A    between atoms: O_19  and  C_20
REMARK   11  A    between atoms: C_20  and  C_21
REMARK   12  A    between atoms: C_20  and  C_22
REMARK                            x       y       z     vdW  Elec       q    Type
REMARK                         _______ _______ _______ _____ _____    ______ ____
ROOT
ATOM      1  C   UNL     1       2.892   5.706  19.627  0.00  0.00    +0.000 A 
ATOM      2  C   UNL     1       2.305   6.962  19.377  0.00  0.00    +0.000 A 
ATOM      3  C   UNL     1       2.684   7.738  18.279  0.00  0.00    +0.000 A 
ATOM      4  C   UNL     1       3.766   7.325  17.501  0.00  0.00    +0.000 A 
ATOM      5  C   UNL     1       4.363   6.101  17.747  0.00  0.00    +0.000 A 
ATOM      6  C   UNL     1       3.851   5.230  18.719  0.00  0.00    +0.000 A 
ENDROOT
BRANCH   1   7
ATOM      7  C   UNL     1       2.430   4.944  20.849  0.00  0.00    +0.000 C 
BRANCH   7   9
ATOM      8  C   UNL     1       1.117   2.776  20.490  0.00  0.00    +0.000 C 
ATOM      9  C   UNL     1       1.189   4.100  20.689  0.00  0.00    +0.000 C 
ENDBRANCH   7   9
ENDBRANCH   1   7
BRANCH   3  10
ATOM     10  C   UNL     1       1.826   8.875  17.798  0.00  0.00    +0.000 C 
BRANCH  10  11
ATOM     11  N   UNL     1       1.626   9.984  18.737  0.00  0.00    +0.000 NA
ATOM     12  C   UNL     1       2.069  11.245  18.125  0.00  0.00    +0.000 C 
BRANCH  11  13
ATOM     13  C   UNL     1       0.194  10.087  19.119  0.00  0.00    +0.000 C 
BRANCH  13  14
ATOM     14  C   UNL     1      -0.038  10.232  20.640  0.00  0.00    +0.000 C 
ATOM     15  C   UNL     1      -1.053  11.320  20.987  0.00  0.00    +0.000 C 
ATOM     16  C   UNL     1       1.221  10.141  21.545  0.00  0.00    +0.000 C 
ATOM     17  O   UNL     1       0.893   8.798  21.955  0.00  0.00    +0.000 OA
ATOM     18  C   UNL     1      -0.399   8.893  21.324  0.00  0.00    +0.000 C 
ENDBRANCH  13  14
ENDBRANCH  11  13
ENDBRANCH  10  11
ENDBRANCH   3  10
BRANCH   6  19
ATOM     19  O   UNL     1       4.232   3.906  18.772  0.00  0.00    +0.000 OA
BRANCH  19  20
ATOM     20  C   UNL     1       3.760   3.097  17.668  0.00  0.00    +0.000 C 
ATOM     21  C   UNL     1       3.630   1.646  18.121  0.00  0.00    +0.000 C 
ATOM     22  C   UNL     1       2.425   3.630  17.159  0.00  0.00    +0.000 C 
ENDBRANCH  19  20
ENDBRANCH   6  19
TORSDOF 8
ENDMDL
MODEL 2
REMARK VINA RESULT:      -6.1      2.043      6.635
REMARK  Name = 
REMARK  12 active torsions:
REMARK  status: ('A' for Active; 'I' for Inactive)
REMARK    1  A    between atoms: C_2  and  C_3
REMARK    2  A    between atoms: C_3  and  C_4
REMARK    3  A    between atoms: C_6  and  C_7
REMARK    4  A    between atoms: C_7  and  N_8
REMARK    5  A    between atoms: N_8  and  C_9
REMARK    6  A    between atoms: N_8  and  C_10
REMARK    7  A    between atoms: C_10  and  C_11
REMARK    8  A    between atoms: C_11  and  C_12
REMARK    9  A    between atoms: C_18  and  O_19
REMARK   10  A    between atoms: O_19  and  C_20
REMARK   11  A    between atoms: C_20  and  C_21
REMARK   12  A    between atoms: C_20  and  C_22
REMARK                            x       y       z     vdW  Elec       q    Type
REMARK                         _______ _______ _______ _____ _____    ______ ____
ROOT
ATOM      1  C   UNL     1       1.411   8.661  20.337  0.00  0.00    +0.000 A 
ATOM      2  C   UNL     1       2.179   7.528  20.004  0.00  0.00    +0.000 A 
ATOM      3  C   UNL     1       2.552   7.265  18.683  0.00  0.00    +0.000 A 
ATOM      4  C   UNL     1       2.028   8.058  17.662  0.00  0.00    +0.000 A 
ATOM      5  C   UNL     1       1.256   9.163  17.976  0.00  0.00    +0.000 A 
ATOM      6  C   UNL     1       1.052   9.547  19.309  0.00  0.00    +0.000 A 
ENDROOT
BRANCH   1   7
ATOM      7  C   UNL     1       1.041   8.857  21.791  0.00  0.00    +0.000 C 
BRANCH   7   9
ATOM      8  C   UNL     1      -0.823  10.042  23.085  0.00  0.00    +0.000 C 
ATOM      9  C   UNL     1      -0.380   9.278  22.076  0.00  0.00    +0.000 C 
ENDBRANCH   7   9
ENDBRANCH   1   7
BRANCH   3  10
ATOM     10  C   UNL     1       3.658   6.298  18.366  0.00  0.00    +0.000 C 
BRANCH  10  11
ATOM     11  N   UNL     1       3.267   4.894  18.197  0.00  0.00    +0.000 NA
ATOM     12  C   UNL     1       4.029   4.291  17.094  0.00  0.00    +0.000 C 
BRANCH  11  13
ATOM     13  C   UNL     1       3.513   4.134  19.450  0.00  0.00    +0.000 C 
BRANCH  13  14
ATOM     14  C   UNL     1       2.300   3.301  19.923  0.00  0.00    +0.000 C 
ATOM     15  C   UNL     1       2.208   3.194  21.445  0.00  0.00    +0.000 C 
ATOM     16  C   UNL     1       1.986   2.012  19.115  0.00  0.00    +0.000 C 
ATOM     17  O   UNL     1       0.876   2.641  18.443  0.00  0.00    +0.000 OA
ATOM     18  C   UNL     1       0.963   3.785  19.315  0.00  0.00    +0.000 C 
ENDBRANCH  13  14
ENDBRANCH  11  13
ENDBRANCH  10  11
ENDBRANCH   3  10
BRANCH   6  19
ATOM     19  O   UNL     1       0.554  10.791  19.633  0.00  0.00    +0.000 OA
BRANCH  19  20
ATOM     20  C   UNL     1       1.561  11.809  19.841  0.00  0.00    +0.000 C 
ATOM     21  C   UNL     1       1.808  12.554  18.533  0.00  0.00    +0.000 C 
ATOM     22  C   UNL     1       1.118  12.770  20.940  0.00  0.00    +0.000 C 
ENDBRANCH  19  20
ENDBRANCH   6  19
TORSDOF 8
ENDMDL
MODEL 3
REMARK VINA RESULT:      -6.1      1.051      1.423
REMARK  Name = 
REMARK  12 active torsions:
REMARK  status: ('A' for Active; 'I' for Inactive)
REMARK    1  A    between atoms: C_2  and  C_3
REMARK    2  A    between atoms: C_3  and  C_4
REMARK    3  A    between atoms: C_6  and  C_7
REMARK    4  A    between atoms: C_7  and  N_8
REMARK    5  A    between atoms: N_8  and  C_9
REMARK    6  A    between atoms: N_8  and  C_10
REMARK    7  A    between atoms: C_10  and  C_11
REMARK    8  A    between atoms: C_11  and  C_12
REMARK    9  A    between atoms: C_18  and  O_19
REMARK   10  A    between atoms: O_19  and  C_20
REMARK   11  A    between atoms: C_20  and  C_21
REMARK   12  A    between atoms: C_20  and  C_22
REMARK                            x       y       z     vdW  Elec       q    Type
REMARK                         _______ _______ _______ _____ _____    ______ ____
ROOT
ATOM      1  C   UNL     1       2.896   5.708  19.680  0.00  0.00    +0.000 A 
ATOM      2  C   UNL     1       2.289   6.950  19.412  0.00  0.00    +0.000 A 
ATOM      3  C   UNL     1       2.606   7.683  18.265  0.00  0.00    +0.000 A 
ATOM      4  C   UNL     1       3.650   7.245  17.450  0.00  0.00    +0.000 A 
ATOM      5  C   UNL     1       4.267   6.034  17.714  0.00  0.00    +0.000 A 
ATOM      6  C   UNL     1       3.811   5.200  18.745  0.00  0.00    +0.000 A 
ENDROOT
BRANCH   1   7
ATOM      7  C   UNL     1       2.502   4.993  20.954  0.00  0.00    +0.000 C 
BRANCH   7   9
ATOM      8  C   UNL     1       1.323   2.745  21.284  0.00  0.00    +0.000 C 
ATOM      9  C   UNL     1       1.358   4.014  20.852  0.00  0.00    +0.000 C 
ENDBRANCH   7   9
ENDBRANCH   1   7
BRANCH   3  10
ATOM     10  C   UNL     1       1.717   8.795  17.783  0.00  0.00    +0.000 C 
BRANCH  10  11
ATOM     11  N   UNL     1       1.628   9.978  18.645  0.00  0.00    +0.000 NA
ATOM     12  C   UNL     1       2.361  11.098  18.039  0.00  0.00    +0.000 C 
BRANCH  11  13
ATOM     13  C   UNL     1       0.207  10.362  18.852  0.00  0.00    +0.000 C 
BRANCH  13  14
ATOM     14  C   UNL     1      -0.141  10.704  20.319  0.00  0.00    +0.000 C 
ATOM     15  C   UNL     1      -0.118   9.482  21.236  0.00  0.00    +0.000 C 
ATOM     16  C   UNL     1      -1.296  11.717  20.539  0.00  0.00    +0.000 C 
ATOM     17  O   UNL     1      -0.374  12.780  20.855  0.00  0.00    +0.000 OA
ATOM     18  C   UNL     1       0.726  11.849  20.892  0.00  0.00    +0.000 C 
ENDBRANCH  13  14
ENDBRANCH  11  13
ENDBRANCH  10  11
ENDBRANCH   3  10
BRANCH   6  19
ATOM     19  O   UNL     1       4.203   3.881  18.831  0.00  0.00    +0.000 OA
BRANCH  19  20
ATOM     20  C   UNL     1       3.707   3.033  17.769  0.00  0.00    +0.000 C 
ATOM     21  C   UNL     1       3.598   1.598  18.275  0.00  0.00    +0.000 C 
ATOM     22  C   UNL     1       2.355   3.541  17.277  0.00  0.00    +0.000 C 
ENDBRANCH  19  20
ENDBRANCH   6  19
TORSDOF 8
ENDMDL
MODEL 4
REMARK VINA RESULT:      -6.1      2.850      5.833
REMARK  Name = 
REMARK  12 active torsions:
REMARK  status: ('A' for Active; 'I' for Inactive)
REMARK    1  A    between atoms: C_2  and  C_3
REMARK    2  A    between atoms: C_3  and  C_4
REMARK    3  A    between atoms: C_6  and  C_7
REMARK    4  A    between atoms: C_7  and  N_8
REMARK    5  A    between atoms: N_8  and  C_9
REMARK    6  A    between atoms: N_8  and  C_10
REMARK    7  A    between atoms: C_10  and  C_11
REMARK    8  A    between atoms: C_11  and  C_12
REMARK    9  A    between atoms: C_18  and  O_19
REMARK   10  A    between atoms: O_19  and  C_20
REMARK   11  A    between atoms: C_20  and  C_21
REMARK   12  A    between atoms: C_20  and  C_22
REMARK                            x       y       z     vdW  Elec       q    Type
REMARK                         _______ _______ _______ _____ _____    ______ ____
ROOT
ATOM      1  C   UNL     1       4.072   6.089  17.221  0.00  0.00    +0.000 A 
ATOM      2  C   UNL     1       3.111   5.082  17.433  0.00  0.00    +0.000 A 
ATOM      3  C   UNL     1       3.325   3.769  17.006  0.00  0.00    +0.000 A 
ATOM      4  C   UNL     1       4.448   3.486  16.227  0.00  0.00    +0.000 A 
ATOM      5  C   UNL     1       5.391   4.472  15.996  0.00  0.00    +0.000 A 
ATOM      6  C   UNL     1       5.279   5.734  16.596  0.00  0.00    +0.000 A 
ENDROOT
BRANCH   1   7
ATOM      7  C   UNL     1       3.747   7.485  17.703  0.00  0.00    +0.000 C 
BRANCH   7   9
ATOM      8  C   UNL     1       1.689   8.974  18.023  0.00  0.00    +0.000 C 
ATOM      9  C   UNL     1       2.295   7.778  17.992  0.00  0.00    +0.000 C 
ENDBRANCH   7   9
ENDBRANCH   1   7
BRANCH   3  10
ATOM     10  C   UNL     1       2.501   2.633  17.543  0.00  0.00    +0.000 C 
BRANCH  10  11
ATOM     11  N   UNL     1       2.924   2.072  18.831  0.00  0.00    +0.000 NA
ATOM     12  C   UNL     1       4.055   1.155  18.632  0.00  0.00    +0.000 C 
BRANCH  11  13
ATOM     13  C   UNL     1       3.319   3.159  19.764  0.00  0.00    +0.000 C 
BRANCH  13  14
ATOM     14  C   UNL     1       2.211   3.556  20.766  0.00  0.00    +0.000 C 
ATOM     15  C   UNL     1       2.100   2.590  21.945  0.00  0.00    +0.000 C 
ATOM     16  C   UNL     1       0.877   4.067  20.158  0.00  0.00    +0.000 C 
ATOM     17  O   UNL     1       1.197   5.437  20.474  0.00  0.00    +0.000 OA
ATOM     18  C   UNL     1       2.335   5.018  21.253  0.00  0.00    +0.000 C 
ENDBRANCH  13  14
ENDBRANCH  11  13
ENDBRANCH  10  11
ENDBRANCH   3  10
BRANCH   6  19
ATOM     19  O   UNL     1       6.340   6.614  16.628  0.00  0.00    +0.000 OA
BRANCH  19  20
ATOM     20  C   UNL     1       6.962   6.763  17.926  0.00  0.00    +0.000 C 
ATOM     21  C   UNL     1       7.652   5.458  18.310  0.00  0.00    +0.000 C 
ATOM     22  C   UNL     1       7.956   7.920  17.904  0.00  0.00    +0.000 C 
ENDBRANCH  19  20
ENDBRANCH   6  19
TORSDOF 8
ENDMDL
MODEL 5
REMARK VINA RESULT:      -6.0      1.950      6.443
REMARK  Name = 
REMARK  12 active torsions:
REMARK  status: ('A' for Active; 'I' for Inactive)
REMARK    1  A    between atoms: C_2  and  C_3
REMARK    2  A    between atoms: C_3  and  C_4
REMARK    3  A    between atoms: C_6  and  C_7
REMARK    4  A    between atoms: C_7  and  N_8
REMARK    5  A    between atoms: N_8  and  C_9
REMARK    6  A    between atoms: N_8  and  C_10
REMARK    7  A    between atoms: C_10  and  C_11
REMARK    8  A    between atoms: C_11  and  C_12
REMARK    9  A    between atoms: C_18  and  O_19
REMARK   10  A    between atoms: O_19  and  C_20
REMARK   11  A    between atoms: C_20  and  C_21
REMARK   12  A    between atoms: C_20  and  C_22
REMARK                            x       y       z     vdW  Elec       q    Type
REMARK                         _______ _______ _______ _____ _____    ______ ____
ROOT
ATOM      1  C   UNL     1       1.551   8.343  20.252  0.00  0.00    +0.000 A 
ATOM      2  C   UNL     1       2.392   7.277  19.875  0.00  0.00    +0.000 A 
ATOM      3  C   UNL     1       2.899   7.174  18.578  0.00  0.00    +0.000 A 
ATOM      4  C   UNL     1       2.445   8.061  17.601  0.00  0.00    +0.000 A 
ATOM      5  C   UNL     1       1.604   9.102  17.956  0.00  0.00    +0.000 A 
ATOM      6  C   UNL     1       1.258   9.328  19.295  0.00  0.00    +0.000 A 
ENDROOT
BRANCH   1   7
ATOM      7  C   UNL     1       1.037   8.364  21.674  0.00  0.00    +0.000 C 
BRANCH   7   9
ATOM      8  C   UNL     1      -0.691   9.803  22.899  0.00  0.00    +0.000 C 
ATOM      9  C   UNL     1      -0.315   8.999  21.894  0.00  0.00    +0.000 C 
ENDBRANCH   7   9
ENDBRANCH   1   7
BRANCH   3  10
ATOM     10  C   UNL     1       4.067   6.280  18.269  0.00  0.00    +0.000 C 
BRANCH  10  11
ATOM     11  N   UNL     1       3.844   5.241  17.258  0.00  0.00    +0.000 NA
ATOM     12  C   UNL     1       4.946   5.243  16.285  0.00  0.00    +0.000 C 
BRANCH  11  13
ATOM     13  C   UNL     1       3.745   3.906  17.900  0.00  0.00    +0.000 C 
BRANCH  13  14
ATOM     14  C   UNL     1       2.324   3.556  18.400  0.00  0.00    +0.000 C 
ATOM     15  C   UNL     1       1.222   4.162  17.531  0.00  0.00    +0.000 C 
ATOM     16  C   UNL     1       2.100   3.595  19.936  0.00  0.00    +0.000 C 
ATOM     17  O   UNL     1       2.131   2.157  20.030  0.00  0.00    +0.000 OA
ATOM     18  C   UNL     1       2.111   2.037  18.593  0.00  0.00    +0.000 C 
ENDBRANCH  13  14
ENDBRANCH  11  13
ENDBRANCH  10  11
ENDBRANCH   3  10
BRANCH   6  19
ATOM     19  O   UNL     1       0.682  10.513  19.701  0.00  0.00    +0.000 OA
BRANCH  19  20
ATOM     20  C   UNL     1      -0.118  11.172  18.691  0.00  0.00    +0.000 C 
ATOM     21  C   UNL     1      -1.564  10.699  18.801  0.00  0.00    +0.000 C 
ATOM     22  C   UNL     1      -0.027  12.686  18.852  0.00  0.00    +0.000 C 
ENDBRANCH  19  20
ENDBRANCH   6  19
TORSDOF 8
ENDMDL
MODEL 6
REMARK VINA RESULT:      -6.0      3.942      6.487
REMARK  Name = 
REMARK  12 active torsions:
REMARK  status: ('A' for Active; 'I' for Inactive)
REMARK    1  A    between atoms: C_2  and  C_3
REMARK    2  A    between atoms: C_3  and  C_4
REMARK    3  A    between atoms: C_6  and  C_7
REMARK    4  A    between atoms: C_7  and  N_8
REMARK    5  A    between atoms: N_8  and  C_9
REMARK    6  A    between atoms: N_8  and  C_10
REMARK    7  A    between atoms: C_10  and  C_11
REMARK    8  A    between atoms: C_11  and  C_12
REMARK    9  A    between atoms: C_18  and  O_19
REMARK   10  A    between atoms: O_19  and  C_20
REMARK   11  A    between atoms: C_20  and  C_21
REMARK   12  A    between atoms: C_20  and  C_22
REMARK                            x       y       z     vdW  Elec       q    Type
REMARK                         _______ _______ _______ _____ _____    ______ ____
ROOT
ATOM      1  C   UNL     1       5.403   4.856  16.521  0.00  0.00    +0.000 A 
ATOM      2  C   UNL     1       4.247   4.123  16.854  0.00  0.00    +0.000 A 
ATOM      3  C   UNL     1       3.204   4.700  17.581  0.00  0.00    +0.000 A 
ATOM      4  C   UNL     1       3.376   5.979  18.112  0.00  0.00    +0.000 A 
ATOM      5  C   UNL     1       4.516   6.703  17.806  0.00  0.00    +0.000 A 
ATOM      6  C   UNL     1       5.470   6.203  16.909  0.00  0.00    +0.000 A 
ENDROOT
BRANCH   1   7
ATOM      7  C   UNL     1       6.489   4.143  15.744  0.00  0.00    +0.000 C 
BRANCH   7   9
ATOM      8  C   UNL     1       5.670   3.812  13.342  0.00  0.00    +0.000 C 
ATOM      9  C   UNL     1       6.496   4.351  14.249  0.00  0.00    +0.000 C 
ENDBRANCH   7   9
ENDBRANCH   1   7
BRANCH   3  10
ATOM     10  C   UNL     1       1.840   4.069  17.619  0.00  0.00    +0.000 C 
BRANCH  10  11
ATOM     11  N   UNL     1       1.521   3.277  18.811  0.00  0.00    +0.000 NA
ATOM     12  C   UNL     1       0.287   2.511  18.589  0.00  0.00    +0.000 C 
BRANCH  11  13
ATOM     13  C   UNL     1       2.636   2.350  19.131  0.00  0.00    +0.000 C 
BRANCH  13  14
ATOM     14  C   UNL     1       3.202   2.521  20.559  0.00  0.00    +0.000 C 
ATOM     15  C   UNL     1       4.680   2.147  20.663  0.00  0.00    +0.000 C 
ATOM     16  C   UNL     1       2.286   2.066  21.727  0.00  0.00    +0.000 C 
ATOM     17  O   UNL     1       1.939   3.426  22.055  0.00  0.00    +0.000 OA
ATOM     18  C   UNL     1       2.939   3.928  21.146  0.00  0.00    +0.000 C 
ENDBRANCH  13  14
ENDBRANCH  11  13
ENDBRANCH  10  11
ENDBRANCH   3  10
BRANCH   6  19
ATOM     19  O   UNL     1       6.441   7.016  16.363  0.00  0.00    +0.000 OA
BRANCH  19  20
ATOM     20  C   UNL     1       7.602   7.217  17.204  0.00  0.00    +0.000 C 
ATOM     21  C   UNL     1       7.640   8.667  17.678  0.00  0.00    +0.000 C 
ATOM     22  C   UNL     1       7.566   6.257  18.389  0.00  0.00    +0.000 C 
ENDBRANCH  19  20
ENDBRANCH   6  19
TORSDOF 8
ENDMDL
MODEL 7
REMARK VINA RESULT:      -5.9      2.740      6.655
REMARK  Name = 
REMARK  12 active torsions:
REMARK  status: ('A' for Active; 'I' for Inactive)
REMARK    1  A    between atoms: C_2  and  C_3
REMARK    2  A    between atoms: C_3  and  C_4
REMARK    3  A    between atoms: C_6  and  C_7
REMARK    4  A    between atoms: C_7  and  N_8
REMARK    5  A    between atoms: N_8  and  C_9
REMARK    6  A    between atoms: N_8  and  C_10
REMARK    7  A    between atoms: C_10  and  C_11
REMARK    8  A    between atoms: C_11  and  C_12
REMARK    9  A    between atoms: C_18  and  O_19
REMARK   10  A    between atoms: O_19  and  C_20
REMARK   11  A    between atoms: C_20  and  C_21
REMARK   12  A    between atoms: C_20  and  C_22
REMARK                            x       y       z     vdW  Elec       q    Type
REMARK                         _______ _______ _______ _____ _____    ______ ____
ROOT
ATOM      1  C   UNL     1       2.554   5.227  20.255  0.00  0.00    +0.000 A 
ATOM      2  C   UNL     1       3.759   4.718  19.732  0.00  0.00    +0.000 A 
ATOM      3  C   UNL     1       4.553   5.472  18.865  0.00  0.00    +0.000 A 
ATOM      4  C   UNL     1       4.069   6.693  18.395  0.00  0.00    +0.000 A 
ATOM      5  C   UNL     1       2.877   7.196  18.887  0.00  0.00    +0.000 A 
ATOM      6  C   UNL     1       2.181   6.536  19.910  0.00  0.00    +0.000 A 
ENDROOT
BRANCH   1   7
ATOM      7  C   UNL     1       1.752   4.333  21.174  0.00  0.00    +0.000 C 
BRANCH   7   9
ATOM      8  C   UNL     1       0.928   2.877  19.237  0.00  0.00    +0.000 C 
ATOM      9  C   UNL     1       0.889   3.285  20.513  0.00  0.00    +0.000 C 
ENDBRANCH   7   9
ENDBRANCH   1   7
BRANCH   3  10
ATOM     10  C   UNL     1       5.987   5.103  18.605  0.00  0.00    +0.000 C 
BRANCH  10  11
ATOM     11  N   UNL     1       6.743   6.006  17.731  0.00  0.00    +0.000 NA
ATOM     12  C   UNL     1       7.870   6.592  18.471  0.00  0.00    +0.000 C 
BRANCH  11  13
ATOM     13  C   UNL     1       7.251   5.271  16.544  0.00  0.00    +0.000 C 
BRANCH  13  14
ATOM     14  C   UNL     1       6.239   5.192  15.378  0.00  0.00    +0.000 C 
ATOM     15  C   UNL     1       5.348   6.430  15.278  0.00  0.00    +0.000 C 
ATOM     16  C   UNL     1       5.550   3.820  15.150  0.00  0.00    +0.000 C 
ATOM     17  O   UNL     1       6.385   3.531  14.011  0.00  0.00    +0.000 OA
ATOM     18  C   UNL     1       6.908   4.874  14.021  0.00  0.00    +0.000 C 
ENDBRANCH  13  14
ENDBRANCH  11  13
ENDBRANCH  10  11
ENDBRANCH   3  10
BRANCH   6  19
ATOM     19  O   UNL     1       1.174   7.160  20.616  0.00  0.00    +0.000 OA
BRANCH  19  20
ATOM     20  C   UNL     1       1.386   8.573  20.848  0.00  0.00    +0.000 C 
ATOM     21  C   UNL     1       0.440   9.379  19.964  0.00  0.00    +0.000 C 
ATOM     22  C   UNL     1       1.167   8.902  22.322  0.00  0.00    +0.000 C 
ENDBRANCH  19  20
ENDBRANCH   6  19
TORSDOF 8
ENDMDL
MODEL 8
REMARK VINA RESULT:      -5.9      2.135      3.013
REMARK  Name = 
REMARK  12 active torsions:
REMARK  status: ('A' for Active; 'I' for Inactive)
REMARK    1  A    between atoms: C_2  and  C_3
REMARK    2  A    between atoms: C_3  and  C_4
REMARK    3  A    between atoms: C_6  and  C_7
REMARK    4  A    between atoms: C_7  and  N_8
REMARK    5  A    between atoms: N_8  and  C_9
REMARK    6  A    between atoms: N_8  and  C_10
REMARK    7  A    between atoms: C_10  and  C_11
REMARK    8  A    between atoms: C_11  and  C_12
REMARK    9  A    between atoms: C_18  and  O_19
REMARK   10  A    between atoms: O_19  and  C_20
REMARK   11  A    between atoms: C_20  and  C_21
REMARK   12  A    between atoms: C_20  and  C_22
REMARK                            x       y       z     vdW  Elec       q    Type
REMARK                         _______ _______ _______ _____ _____    ______ ____
ROOT
ATOM      1  C   UNL     1       2.514   6.104  19.649  0.00  0.00    +0.000 A 
ATOM      2  C   UNL     1       1.838   7.190  20.238  0.00  0.00    +0.000 A 
ATOM      3  C   UNL     1       1.703   8.411  19.573  0.00  0.00    +0.000 A 
ATOM      4  C   UNL     1       2.377   8.602  18.367  0.00  0.00    +0.000 A 
ATOM      5  C   UNL     1       3.061   7.548  17.787  0.00  0.00    +0.000 A 
ATOM      6  C   UNL     1       3.025   6.265  18.352  0.00  0.00    +0.000 A 
ENDROOT
BRANCH   1   7
ATOM      7  C   UNL     1       2.625   4.825  20.450  0.00  0.00    +0.000 C 
BRANCH   7   9
ATOM      8  C   UNL     1       0.845   3.072  19.893  0.00  0.00    +0.000 C 
ATOM      9  C   UNL     1       1.348   4.048  20.661  0.00  0.00    +0.000 C 
ENDBRANCH   7   9
ENDBRANCH   1   7
BRANCH   3  10
ATOM     10  C   UNL     1       0.687   9.428  20.014  0.00  0.00    +0.000 C 
BRANCH  10  11
ATOM     11  N   UNL     1       0.614  10.660  19.223  0.00  0.00    +0.000 NA
ATOM     12  C   UNL     1      -0.758  10.861  18.733  0.00  0.00    +0.000 C 
BRANCH  11  13
ATOM     13  C   UNL     1       1.028  11.828  20.043  0.00  0.00    +0.000 C 
BRANCH  13  14
ATOM     14  C   UNL     1       1.849  12.880  19.263  0.00  0.00    +0.000 C 
ATOM     15  C   UNL     1       2.556  12.296  18.040  0.00  0.00    +0.000 C 
ATOM     16  C   UNL     1       2.656  13.899  20.112  0.00  0.00    +0.000 C 
ATOM     17  O   UNL     1       1.695  14.945  19.864  0.00  0.00    +0.000 OA
ATOM     18  C   UNL     1       1.021  14.130  18.885  0.00  0.00    +0.000 C 
ENDBRANCH  13  14
ENDBRANCH  11  13
ENDBRANCH  10  11
ENDBRANCH   3  10
BRANCH   6  19
ATOM     19  O   UNL     1       3.435   5.154  17.645  0.00  0.00    +0.000 OA
BRANCH  19  20
ATOM     20  C   UNL     1       4.820   5.184  17.224  0.00  0.00    +0.000 C 
ATOM     21  C   UNL     1       5.713   4.763  18.387  0.00  0.00    +0.000 C 
ATOM     22  C   UNL     1       5.024   4.269  16.021  0.00  0.00    +0.000 C 
ENDBRANCH  19  20
ENDBRANCH   6  19
TORSDOF 8
ENDMDL
MODEL 9
REMARK VINA RESULT:      -5.9      2.019      6.577
REMARK  Name = 
REMARK  12 active torsions:
REMARK  status: ('A' for Active; 'I' for Inactive)
REMARK    1  A    between atoms: C_2  and  C_3
REMARK    2  A    between atoms: C_3  and  C_4
REMARK    3  A    between atoms: C_6  and  C_7
REMARK    4  A    between atoms: C_7  and  N_8
REMARK    5  A    between atoms: N_8  and  C_9
REMARK    6  A    between atoms: N_8  and  C_10
REMARK    7  A    between atoms: C_10  and  C_11
REMARK    8  A    between atoms: C_11  and  C_12
REMARK    9  A    between atoms: C_18  and  O_19
REMARK   10  A    between atoms: O_19  and  C_20
REMARK   11  A    between atoms: C_20  and  C_21
REMARK   12  A    between atoms: C_20  and  C_22
REMARK                            x       y       z     vdW  Elec       q    Type
REMARK                         _______ _______ _______ _____ _____    ______ ____
ROOT
ATOM      1  C   UNL     1       1.304   8.857  20.357  0.00  0.00    +0.000 A 
ATOM      2  C   UNL     1       2.138   7.834  19.866  0.00  0.00    +0.000 A 
ATOM      3  C   UNL     1       2.419   7.716  18.503  0.00  0.00    +0.000 A 
ATOM      4  C   UNL     1       1.744   8.537  17.599  0.00  0.00    +0.000 A 
ATOM      5  C   UNL     1       0.908   9.535  18.069  0.00  0.00    +0.000 A 
ATOM      6  C   UNL     1       0.784   9.787  19.443  0.00  0.00    +0.000 A 
ENDROOT
BRANCH   1   7
ATOM      7  C   UNL     1       1.043   8.897  21.847  0.00  0.00    +0.000 C 
BRANCH   7   9
ATOM      8  C   UNL     1      -0.824  10.092  23.129  0.00  0.00    +0.000 C 
ATOM      9  C   UNL     1      -0.381   9.157  22.276  0.00  0.00    +0.000 C 
ENDBRANCH   7   9
ENDBRANCH   1   7
BRANCH   3  10
ATOM     10  C   UNL     1       3.575   6.887  18.017  0.00  0.00    +0.000 C 
BRANCH  10  11
ATOM     11  N   UNL     1       3.399   5.432  18.066  0.00  0.00    +0.000 NA
ATOM     12  C   UNL     1       4.188   4.794  17.002  0.00  0.00    +0.000 C 
BRANCH  11  13
ATOM     13  C   UNL     1       3.824   4.904  19.388  0.00  0.00    +0.000 C 
BRANCH  13  14
ATOM     14  C   UNL     1       2.893   3.805  19.950  0.00  0.00    +0.000 C 
ATOM     15  C   UNL     1       3.603   2.466  20.147  0.00  0.00    +0.000 C 
ATOM     16  C   UNL     1       1.454   3.750  19.369  0.00  0.00    +0.000 C 
ATOM     17  O   UNL     1       0.898   4.365  20.548  0.00  0.00    +0.000 OA
ATOM     18  C   UNL     1       2.157   4.240  21.239  0.00  0.00    +0.000 C 
ENDBRANCH  13  14
ENDBRANCH  11  13
ENDBRANCH  10  11
ENDBRANCH   3  10
BRANCH   6  19
ATOM     19  O   UNL     1       0.208  10.948  19.914  0.00  0.00    +0.000 OA
BRANCH  19  20
ATOM     20  C   UNL     1       1.115  12.070  20.025  0.00  0.00    +0.000 C 
ATOM     21  C   UNL     1       1.118  12.851  18.715  0.00  0.00    +0.000 C 
ATOM     22  C   UNL     1       0.706  12.964  21.191  0.00  0.00    +0.000 C 
ENDBRANCH  19  20
ENDBRANCH   6  19
TORSDOF 8
ENDMDL
