MODEL 1
REMARK VINA RESULT:      -7.1      0.000      0.000
REMARK  Name = 
REMARK  15 active torsions:
REMARK  status: ('A' for Active; 'I' for Inactive)
REMARK    1  A    between atoms: C_1  and  C_2
REMARK    2  A    between atoms: C_2  and  C_3
REMARK    3  A    between atoms: C_2  and  C_4
REMARK    4  A    between atoms: C_4  and  C_5
REMARK    5  A    between atoms: C_5  and  C_6
REMARK    6  A    between atoms: C_5  and  N_12
REMARK    7  A    between atoms: C_6  and  N_7
REMARK    8  A    between atoms: N_7  and  C_8
REMARK    9  A    between atoms: C_8  and  C_9
REMARK   10  A    between atoms: C_9  and  O_11
REMARK   11  A    between atoms: N_12  and  C_13
REMARK   12  A    between atoms: C_13  and  C_14
REMARK   13  A    between atoms: C_19  and  O_21
REMARK   14  A    between atoms: O_21  and  C_22
REMARK   15  A    between atoms: C_22  and  C_23
REMARK                            x       y       z     vdW  Elec       q    Type
REMARK                         _______ _______ _______ _____ _____    ______ ____
ROOT
ATOM      1  C   UNL     1       4.411   3.611  16.599  0.00  0.00    +0.000 C 
ENDROOT
BRANCH   1   2
ATOM      2  C   UNL     1       3.632   3.232  17.888  0.00  0.00    +0.000 C 
ATOM      3  C   UNL     1       2.632   2.105  17.572  0.00  0.00    +0.000 C 
ATOM      4  C   UNL     1       1.685   2.140  18.762  0.00  0.00    +0.000 C 
ATOM      5  C   UNL     1       1.596   3.621  19.106  0.00  0.00    +0.000 C 
ATOM      6  N   UNL     1       2.753   4.241  18.482  0.00  0.00    +0.000 N 
ATOM      7  C   UNL     1       3.074   5.563  18.720  0.00  0.00    +0.000 C 
ATOM      8  O   UNL     1       4.193   6.050  18.598  0.00  0.00    +0.000 OA
BRANCH   7   9
ATOM      9  O   UNL     1       1.981   6.275  19.095  0.00  0.00    +0.000 OA
BRANCH   9  10
ATOM     10  C   UNL     1       2.163   7.183  20.187  0.00  0.00    +0.000 C 
BRANCH  10  11
ATOM     11  C   UNL     1       1.417   8.473  19.930  0.00  0.00    +0.000 A 
ATOM     12  C   UNL     1       0.622   9.056  20.929  0.00  0.00    +0.000 A 
ATOM     13  C   UNL     1      -0.010  10.281  20.709  0.00  0.00    +0.000 A 
ATOM     14  C   UNL     1       0.136  10.933  19.485  0.00  0.00    +0.000 A 
ATOM     15  C   UNL     1       0.898  10.351  18.475  0.00  0.00    +0.000 A 
ATOM     16  C   UNL     1       1.531   9.123  18.693  0.00  0.00    +0.000 A 
ENDBRANCH  10  11
ENDBRANCH   9  10
ENDBRANCH   7   9
ENDBRANCH   1   2
BRANCH   1  17
ATOM     17  N   UNL     1       5.875   3.753  16.674  0.00  0.00    +0.000 NA
ATOM     18  H   UNL     1       6.120   4.308  17.492  0.00  0.00    +0.000 HD
BRANCH  17  19
ATOM     19  C   UNL     1       6.514   4.324  15.470  0.00  0.00    +0.000 C 
BRANCH  19  20
ATOM     20  C   UNL     1       5.530   4.281  14.279  0.00  0.00    +0.000 C 
BRANCH  20  22
ATOM     21  C   UNL     1       4.898   3.342  11.998  0.00  0.00    +0.000 C 
ATOM     22  C   UNL     1       6.024   3.554  13.012  0.00  0.00    +0.000 C 
ATOM     23  C   UNL     1       7.159   4.368  12.374  0.00  0.00    +0.000 C 
ENDBRANCH  20  22
ENDBRANCH  19  20
BRANCH  19  24
ATOM     24  C   UNL     1       7.041   5.758  15.779  0.00  0.00    +0.000 C 
BRANCH  24  25
ATOM     25  N   UNL     1       6.481   6.344  17.017  0.00  0.00    +0.000 NA
ATOM     26  H   UNL     1       5.973   5.572  17.467  0.00  0.00    +0.000 HD
BRANCH  25  27
ATOM     27  C   UNL     1       7.605   6.712  17.926  0.00  0.00    +0.000 C 
BRANCH  27  28
ATOM     28  C   UNL     1       7.845   5.564  18.902  0.00  0.00    +0.000 C 
ATOM     29  O   UNL     1       8.080   4.408  18.589  0.00  0.00    +0.000 OA
BRANCH  28  30
ATOM     30  O   UNL     1       7.818   5.999  20.191  0.00  0.00    +0.000 OA
ATOM     31  H   UNL     1       8.133   5.239  20.739  0.00  0.00    +0.000 HD
ENDBRANCH  28  30
ENDBRANCH  27  28
ENDBRANCH  25  27
ENDBRANCH  24  25
ENDBRANCH  19  24
ENDBRANCH  17  19
ENDBRANCH   1  17
TORSDOF 13
ENDMDL
MODEL 2
REMARK VINA RESULT:      -7.0      0.596      1.237
REMARK  Name = 
REMARK  15 active torsions:
REMARK  status: ('A' for Active; 'I' for Inactive)
REMARK    1  A    between atoms: C_1  and  C_2
REMARK    2  A    between atoms: C_2  and  C_3
REMARK    3  A    between atoms: C_2  and  C_4
REMARK    4  A    between atoms: C_4  and  C_5
REMARK    5  A    between atoms: C_5  and  C_6
REMARK    6  A    between atoms: C_5  and  N_12
REMARK    7  A    between atoms: C_6  and  N_7
REMARK    8  A    between atoms: N_7  and  C_8
REMARK    9  A    between atoms: C_8  and  C_9
REMARK   10  A    between atoms: C_9  and  O_11
REMARK   11  A    between atoms: N_12  and  C_13
REMARK   12  A    between atoms: C_13  and  C_14
REMARK   13  A    between atoms: C_19  and  O_21
REMARK   14  A    between atoms: O_21  and  C_22
REMARK   15  A    between atoms: C_22  and  C_23
REMARK                            x       y       z     vdW  Elec       q    Type
REMARK                         _______ _______ _______ _____ _____    ______ ____
ROOT
ATOM      1  C   UNL     1       5.043   3.497  17.783  0.00  0.00    +0.000 C 
ENDROOT
BRANCH   1   2
ATOM      2  C   UNL     1       3.736   3.192  18.563  0.00  0.00    +0.000 C 
ATOM      3  C   UNL     1       2.845   2.253  17.729  0.00  0.00    +0.000 C 
ATOM      4  C   UNL     1       1.484   2.388  18.393  0.00  0.00    +0.000 C 
ATOM      5  C   UNL     1       1.438   3.849  18.824  0.00  0.00    +0.000 C 
ATOM      6  N   UNL     1       2.819   4.302  18.828  0.00  0.00    +0.000 N 
ATOM      7  C   UNL     1       3.165   5.544  19.322  0.00  0.00    +0.000 C 
ATOM      8  O   UNL     1       4.274   5.851  19.746  0.00  0.00    +0.000 OA
BRANCH   7   9
ATOM      9  O   UNL     1       2.116   6.405  19.266  0.00  0.00    +0.000 OA
BRANCH   9  10
ATOM     10  C   UNL     1       1.971   7.295  20.378  0.00  0.00    +0.000 C 
BRANCH  10  11
ATOM     11  C   UNL     1       1.299   8.577  19.944  0.00  0.00    +0.000 A 
ATOM     12  C   UNL     1       1.532   9.117  18.670  0.00  0.00    +0.000 A 
ATOM     13  C   UNL     1       0.858  10.265  18.249  0.00  0.00    +0.000 A 
ATOM     14  C   UNL     1      -0.049  10.894  19.101  0.00  0.00    +0.000 A 
ATOM     15  C   UNL     1      -0.268  10.386  20.379  0.00  0.00    +0.000 A 
ATOM     16  C   UNL     1       0.408   9.237  20.802  0.00  0.00    +0.000 A 
ENDBRANCH  10  11
ENDBRANCH   9  10
ENDBRANCH   7   9
ENDBRANCH   1   2
BRANCH   1  17
ATOM     17  N   UNL     1       5.060   3.294  16.324  0.00  0.00    +0.000 NA
ATOM     18  H   UNL     1       5.348   2.340  16.118  0.00  0.00    +0.000 HD
BRANCH  17  19
ATOM     19  C   UNL     1       5.898   4.248  15.567  0.00  0.00    +0.000 C 
BRANCH  19  20
ATOM     20  C   UNL     1       5.369   4.385  14.121  0.00  0.00    +0.000 C 
BRANCH  20  22
ATOM     21  C   UNL     1       5.193   3.125  11.917  0.00  0.00    +0.000 C 
ATOM     22  C   UNL     1       6.123   3.589  13.039  0.00  0.00    +0.000 C 
ATOM     23  C   UNL     1       7.247   4.461  12.463  0.00  0.00    +0.000 C 
ENDBRANCH  20  22
ENDBRANCH  19  20
BRANCH  19  24
ATOM     24  C   UNL     1       5.973   5.607  16.326  0.00  0.00    +0.000 C 
BRANCH  24  25
ATOM     25  N   UNL     1       7.355   6.077  16.569  0.00  0.00    +0.000 NA
ATOM     26  H   UNL     1       7.484   6.862  15.918  0.00  0.00    +0.000 HD
BRANCH  25  27
ATOM     27  C   UNL     1       7.434   6.640  17.949  0.00  0.00    +0.000 C 
BRANCH  27  28
ATOM     28  C   UNL     1       7.755   5.510  18.923  0.00  0.00    +0.000 C 
ATOM     29  O   UNL     1       7.540   5.533  20.125  0.00  0.00    +0.000 OA
BRANCH  28  30
ATOM     30  O   UNL     1       8.270   4.430  18.276  0.00  0.00    +0.000 OA
ATOM     31  H   UNL     1       9.243   4.595  18.208  0.00  0.00    +0.000 HD
ENDBRANCH  28  30
ENDBRANCH  27  28
ENDBRANCH  25  27
ENDBRANCH  24  25
ENDBRANCH  19  24
ENDBRANCH  17  19
ENDBRANCH   1  17
TORSDOF 13
ENDMDL
MODEL 3
REMARK VINA RESULT:      -7.0      2.167      3.830
REMARK  Name = 
REMARK  15 active torsions:
REMARK  status: ('A' for Active; 'I' for Inactive)
REMARK    1  A    between atoms: C_1  and  C_2
REMARK    2  A    between atoms: C_2  and  C_3
REMARK    3  A    between atoms: C_2  and  C_4
REMARK    4  A    between atoms: C_4  and  C_5
REMARK    5  A    between atoms: C_5  and  C_6
REMARK    6  A    between atoms: C_5  and  N_12
REMARK    7  A    between atoms: C_6  and  N_7
REMARK    8  A    between atoms: N_7  and  C_8
REMARK    9  A    between atoms: C_8  and  C_9
REMARK   10  A    between atoms: C_9  and  O_11
REMARK   11  A    between atoms: N_12  and  C_13
REMARK   12  A    between atoms: C_13  and  C_14
REMARK   13  A    between atoms: C_19  and  O_21
REMARK   14  A    between atoms: O_21  and  C_22
REMARK   15  A    between atoms: C_22  and  C_23
REMARK                            x       y       z     vdW  Elec       q    Type
REMARK                         _______ _______ _______ _____ _____    ______ ____
ROOT
ATOM      1  C   UNL     1       4.608   3.615  17.662  0.00  0.00    +0.000 C 
ENDROOT
BRANCH   1   2
ATOM      2  C   UNL     1       3.446   3.214  18.610  0.00  0.00    +0.000 C 
ATOM      3  C   UNL     1       2.437   2.338  17.845  0.00  0.00    +0.000 C 
ATOM      4  C   UNL     1       1.200   2.383  18.729  0.00  0.00    +0.000 C 
ATOM      5  C   UNL     1       1.217   3.797  19.297  0.00  0.00    +0.000 C 
ATOM      6  N   UNL     1       2.577   4.276  19.122  0.00  0.00    +0.000 N 
ATOM      7  C   UNL     1       2.993   5.474  19.668  0.00  0.00    +0.000 C 
ATOM      8  O   UNL     1       4.154   5.764  19.935  0.00  0.00    +0.000 OA
BRANCH   7   9
ATOM      9  O   UNL     1       1.945   6.315  19.863  0.00  0.00    +0.000 OA
BRANCH   9  10
ATOM     10  C   UNL     1       2.156   7.683  19.499  0.00  0.00    +0.000 C 
BRANCH  10  11
ATOM     11  C   UNL     1       1.284   8.593  20.333  0.00  0.00    +0.000 A 
ATOM     12  C   UNL     1       1.216   8.446  21.727  0.00  0.00    +0.000 A 
ATOM     13  C   UNL     1       0.461   9.331  22.499  0.00  0.00    +0.000 A 
ATOM     14  C   UNL     1      -0.242  10.367  21.887  0.00  0.00    +0.000 A 
ATOM     15  C   UNL     1      -0.207  10.507  20.502  0.00  0.00    +0.000 A 
ATOM     16  C   UNL     1       0.547   9.620  19.727  0.00  0.00    +0.000 A 
ENDBRANCH  10  11
ENDBRANCH   9  10
ENDBRANCH   7   9
ENDBRANCH   1   2
BRANCH   1  17
ATOM     17  N   UNL     1       4.323   4.526  16.540  0.00  0.00    +0.000 NA
ATOM     18  H   UNL     1       3.977   3.989  15.748  0.00  0.00    +0.000 HD
BRANCH  17  19
ATOM     19  C   UNL     1       5.456   5.375  16.116  0.00  0.00    +0.000 C 
BRANCH  19  20
ATOM     20  C   UNL     1       5.815   6.377  17.236  0.00  0.00    +0.000 C 
BRANCH  20  22
ATOM     21  C   UNL     1       7.733   8.020  17.556  0.00  0.00    +0.000 C 
ATOM     22  C   UNL     1       7.315   6.548  17.544  0.00  0.00    +0.000 C 
ATOM     23  C   UNL     1       7.628   5.903  18.902  0.00  0.00    +0.000 C 
ENDBRANCH  20  22
ENDBRANCH  19  20
BRANCH  19  24
ATOM     24  C   UNL     1       6.657   4.479  15.685  0.00  0.00    +0.000 C 
BRANCH  24  25
ATOM     25  N   UNL     1       6.284   3.391  14.754  0.00  0.00    +0.000 NA
ATOM     26  H   UNL     1       5.544   2.870  15.242  0.00  0.00    +0.000 HD
BRANCH  25  27
ATOM     27  C   UNL     1       5.661   3.992  13.538  0.00  0.00    +0.000 C 
BRANCH  27  28
ATOM     28  C   UNL     1       6.449   3.545  12.310  0.00  0.00    +0.000 C 
ATOM     29  O   UNL     1       7.317   4.198  11.752  0.00  0.00    +0.000 OA
BRANCH  28  30
ATOM     30  O   UNL     1       6.102   2.285  11.932  0.00  0.00    +0.000 OA
ATOM     31  H   UNL     1       6.555   1.678  12.569  0.00  0.00    +0.000 HD
ENDBRANCH  28  30
ENDBRANCH  27  28
ENDBRANCH  25  27
ENDBRANCH  24  25
ENDBRANCH  19  24
ENDBRANCH  17  19
ENDBRANCH   1  17
TORSDOF 13
ENDMDL
MODEL 4
REMARK VINA RESULT:      -6.9      1.911      3.670
REMARK  Name = 
REMARK  15 active torsions:
REMARK  status: ('A' for Active; 'I' for Inactive)
REMARK    1  A    between atoms: C_1  and  C_2
REMARK    2  A    between atoms: C_2  and  C_3
REMARK    3  A    between atoms: C_2  and  C_4
REMARK    4  A    between atoms: C_4  and  C_5
REMARK    5  A    between atoms: C_5  and  C_6
REMARK    6  A    between atoms: C_5  and  N_12
REMARK    7  A    between atoms: C_6  and  N_7
REMARK    8  A    between atoms: N_7  and  C_8
REMARK    9  A    between atoms: C_8  and  C_9
REMARK   10  A    between atoms: C_9  and  O_11
REMARK   11  A    between atoms: N_12  and  C_13
REMARK   12  A    between atoms: C_13  and  C_14
REMARK   13  A    between atoms: C_19  and  O_21
REMARK   14  A    between atoms: O_21  and  C_22
REMARK   15  A    between atoms: C_22  and  C_23
REMARK                            x       y       z     vdW  Elec       q    Type
REMARK                         _______ _______ _______ _____ _____    ______ ____
ROOT
ATOM      1  C   UNL     1       4.054   2.906  18.612  0.00  0.00    +0.000 C 
ENDROOT
BRANCH   1   2
ATOM      2  C   UNL     1       3.135   3.179  19.834  0.00  0.00    +0.000 C 
ATOM      3  C   UNL     1       1.925   2.228  19.790  0.00  0.00    +0.000 C 
ATOM      4  C   UNL     1       0.943   2.875  20.755  0.00  0.00    +0.000 C 
ATOM      5  C   UNL     1       1.174   4.367  20.555  0.00  0.00    +0.000 C 
ATOM      6  N   UNL     1       2.476   4.483  19.921  0.00  0.00    +0.000 N 
ATOM      7  C   UNL     1       3.076   5.713  19.733  0.00  0.00    +0.000 C 
ATOM      8  O   UNL     1       4.281   5.898  19.606  0.00  0.00    +0.000 OA
BRANCH   7   9
ATOM      9  O   UNL     1       2.153   6.708  19.689  0.00  0.00    +0.000 OA
BRANCH   9  10
ATOM     10  C   UNL     1       2.230   7.591  18.565  0.00  0.00    +0.000 C 
BRANCH  10  11
ATOM     11  C   UNL     1       1.725   8.966  18.938  0.00  0.00    +0.000 A 
ATOM     12  C   UNL     1       1.956  10.069  18.103  0.00  0.00    +0.000 A 
ATOM     13  C   UNL     1       1.430  11.323  18.420  0.00  0.00    +0.000 A 
ATOM     14  C   UNL     1       0.676  11.492  19.580  0.00  0.00    +0.000 A 
ATOM     15  C   UNL     1       0.464  10.412  20.433  0.00  0.00    +0.000 A 
ATOM     16  C   UNL     1       0.992   9.156  20.118  0.00  0.00    +0.000 A 
ENDBRANCH  10  11
ENDBRANCH   9  10
ENDBRANCH   7   9
ENDBRANCH   1   2
BRANCH   1  17
ATOM     17  N   UNL     1       5.435   3.417  18.639  0.00  0.00    +0.000 NA
ATOM     18  H   UNL     1       5.611   3.870  19.533  0.00  0.00    +0.000 HD
BRANCH  17  19
ATOM     19  C   UNL     1       5.788   4.332  17.533  0.00  0.00    +0.000 C 
BRANCH  19  20
ATOM     20  C   UNL     1       7.317   4.551  17.495  0.00  0.00    +0.000 C 
BRANCH  20  22
ATOM     21  C   UNL     1       6.972   7.074  17.497  0.00  0.00    +0.000 C 
ATOM     22  C   UNL     1       7.824   5.912  18.012  0.00  0.00    +0.000 C 
ATOM     23  C   UNL     1       7.823   5.900  19.547  0.00  0.00    +0.000 C 
ENDBRANCH  20  22
ENDBRANCH  19  20
BRANCH  19  24
ATOM     24  C   UNL     1       5.213   3.787  16.191  0.00  0.00    +0.000 C 
BRANCH  24  25
ATOM     25  N   UNL     1       6.252   3.344  15.234  0.00  0.00    +0.000 NA
ATOM     26  H   UNL     1       6.088   2.336  15.116  0.00  0.00    +0.000 HD
BRANCH  25  27
ATOM     27  C   UNL     1       5.990   3.983  13.911  0.00  0.00    +0.000 C 
BRANCH  27  28
ATOM     28  C   UNL     1       7.199   4.831  13.526  0.00  0.00    +0.000 C 
ATOM     29  O   UNL     1       7.858   5.512  14.296  0.00  0.00    +0.000 OA
BRANCH  28  30
ATOM     30  O   UNL     1       7.498   4.694  12.206  0.00  0.00    +0.000 OA
ATOM     31  H   UNL     1       6.877   4.007  11.859  0.00  0.00    +0.000 HD
ENDBRANCH  28  30
ENDBRANCH  27  28
ENDBRANCH  25  27
ENDBRANCH  24  25
ENDBRANCH  19  24
ENDBRANCH  17  19
ENDBRANCH   1  17
TORSDOF 13
ENDMDL
MODEL 5
REMARK VINA RESULT:      -6.8      2.319      4.111
REMARK  Name = 
REMARK  15 active torsions:
REMARK  status: ('A' for Active; 'I' for Inactive)
REMARK    1  A    between atoms: C_1  and  C_2
REMARK    2  A    between atoms: C_2  and  C_3
REMARK    3  A    between atoms: C_2  and  C_4
REMARK    4  A    between atoms: C_4  and  C_5
REMARK    5  A    between atoms: C_5  and  C_6
REMARK    6  A    between atoms: C_5  and  N_12
REMARK    7  A    between atoms: C_6  and  N_7
REMARK    8  A    between atoms: N_7  and  C_8
REMARK    9  A    between atoms: C_8  and  C_9
REMARK   10  A    between atoms: C_9  and  O_11
REMARK   11  A    between atoms: N_12  and  C_13
REMARK   12  A    between atoms: C_13  and  C_14
REMARK   13  A    between atoms: C_19  and  O_21
REMARK   14  A    between atoms: O_21  and  C_22
REMARK   15  A    between atoms: C_22  and  C_23
REMARK                            x       y       z     vdW  Elec       q    Type
REMARK                         _______ _______ _______ _____ _____    ______ ____
ROOT
ATOM      1  C   UNL     1       4.772   3.205  17.718  0.00  0.00    +0.000 C 
ENDROOT
BRANCH   1   2
ATOM      2  C   UNL     1       3.490   2.999  18.571  0.00  0.00    +0.000 C 
ATOM      3  C   UNL     1       2.479   2.146  17.783  0.00  0.00    +0.000 C 
ATOM      4  C   UNL     1       1.173   2.385  18.526  0.00  0.00    +0.000 C 
ATOM      5  C   UNL     1       1.273   3.839  18.968  0.00  0.00    +0.000 C 
ATOM      6  N   UNL     1       2.684   4.177  18.896  0.00  0.00    +0.000 N 
ATOM      7  C   UNL     1       3.159   5.381  19.377  0.00  0.00    +0.000 C 
ATOM      8  O   UNL     1       4.312   5.591  19.739  0.00  0.00    +0.000 OA
BRANCH   7   9
ATOM      9  O   UNL     1       2.184   6.326  19.389  0.00  0.00    +0.000 OA
BRANCH   9  10
ATOM     10  C   UNL     1       2.487   7.555  18.720  0.00  0.00    +0.000 C 
BRANCH  10  11
ATOM     11  C   UNL     1       1.544   8.647  19.169  0.00  0.00    +0.000 A 
ATOM     12  C   UNL     1       0.965   9.526  18.242  0.00  0.00    +0.000 A 
ATOM     13  C   UNL     1       0.044  10.490  18.655  0.00  0.00    +0.000 A 
ATOM     14  C   UNL     1      -0.303  10.594  20.001  0.00  0.00    +0.000 A 
ATOM     15  C   UNL     1       0.286   9.747  20.936  0.00  0.00    +0.000 A 
ATOM     16  C   UNL     1       1.211   8.782  20.525  0.00  0.00    +0.000 A 
ENDBRANCH  10  11
ENDBRANCH   9  10
ENDBRANCH   7   9
ENDBRANCH   1   2
BRANCH   1  17
ATOM     17  N   UNL     1       4.715   4.118  16.565  0.00  0.00    +0.000 NA
ATOM     18  H   UNL     1       4.342   3.622  15.758  0.00  0.00    +0.000 HD
BRANCH  17  19
ATOM     19  C   UNL     1       5.996   4.764  16.210  0.00  0.00    +0.000 C 
BRANCH  19  20
ATOM     20  C   UNL     1       6.963   4.719  17.415  0.00  0.00    +0.000 C 
BRANCH  20  22
ATOM     21  C   UNL     1       8.026   5.843  19.437  0.00  0.00    +0.000 C 
ATOM     22  C   UNL     1       7.067   6.006  18.255  0.00  0.00    +0.000 C 
ATOM     23  C   UNL     1       7.535   7.159  17.356  0.00  0.00    +0.000 C 
ENDBRANCH  20  22
ENDBRANCH  19  20
BRANCH  19  24
ATOM     24  C   UNL     1       6.584   4.106  14.926  0.00  0.00    +0.000 C 
BRANCH  24  25
ATOM     25  N   UNL     1       5.731   4.272  13.728  0.00  0.00    +0.000 NA
ATOM     26  H   UNL     1       5.765   5.278  13.519  0.00  0.00    +0.000 HD
BRANCH  25  27
ATOM     27  C   UNL     1       6.373   3.568  12.580  0.00  0.00    +0.000 C 
BRANCH  27  28
ATOM     28  C   UNL     1       5.314   2.747  11.851  0.00  0.00    +0.000 C 
ATOM     29  O   UNL     1       4.193   3.137  11.562  0.00  0.00    +0.000 OA
BRANCH  28  30
ATOM     30  O   UNL     1       5.791   1.520  11.506  0.00  0.00    +0.000 OA
ATOM     31  H   UNL     1       6.314   1.657  10.678  0.00  0.00    +0.000 HD
ENDBRANCH  28  30
ENDBRANCH  27  28
ENDBRANCH  25  27
ENDBRANCH  24  25
ENDBRANCH  19  24
ENDBRANCH  17  19
ENDBRANCH   1  17
TORSDOF 13
ENDMDL
MODEL 6
REMARK VINA RESULT:      -6.8      2.282      3.885
REMARK  Name = 
REMARK  15 active torsions:
REMARK  status: ('A' for Active; 'I' for Inactive)
REMARK    1  A    between atoms: C_1  and  C_2
REMARK    2  A    between atoms: C_2  and  C_3
REMARK    3  A    between atoms: C_2  and  C_4
REMARK    4  A    between atoms: C_4  and  C_5
REMARK    5  A    between atoms: C_5  and  C_6
REMARK    6  A    between atoms: C_5  and  N_12
REMARK    7  A    between atoms: C_6  and  N_7
REMARK    8  A    between atoms: N_7  and  C_8
REMARK    9  A    between atoms: C_8  and  C_9
REMARK   10  A    between atoms: C_9  and  O_11
REMARK   11  A    between atoms: N_12  and  C_13
REMARK   12  A    between atoms: C_13  and  C_14
REMARK   13  A    between atoms: C_19  and  O_21
REMARK   14  A    between atoms: O_21  and  C_22
REMARK   15  A    between atoms: C_22  and  C_23
REMARK                            x       y       z     vdW  Elec       q    Type
REMARK                         _______ _______ _______ _____ _____    ______ ____
ROOT
ATOM      1  C   UNL     1       3.831   3.624  17.380  0.00  0.00    +0.000 C 
ENDROOT
BRANCH   1   2
ATOM      2  C   UNL     1       2.977   3.135  18.582  0.00  0.00    +0.000 C 
ATOM      3  C   UNL     1       1.846   2.223  18.072  0.00  0.00    +0.000 C 
ATOM      4  C   UNL     1       0.883   2.178  19.249  0.00  0.00    +0.000 C 
ATOM      5  C   UNL     1       0.981   3.575  19.846  0.00  0.00    +0.000 C 
ATOM      6  N   UNL     1       2.224   4.134  19.342  0.00  0.00    +0.000 N 
ATOM      7  C   UNL     1       2.710   5.340  19.807  0.00  0.00    +0.000 C 
ATOM      8  O   UNL     1       3.886   5.687  19.774  0.00  0.00    +0.000 OA
BRANCH   7   9
ATOM      9  O   UNL     1       1.710   6.116  20.300  0.00  0.00    +0.000 OA
BRANCH   9  10
ATOM     10  C   UNL     1       2.093   7.408  20.783  0.00  0.00    +0.000 C 
BRANCH  10  11
ATOM     11  C   UNL     1       1.380   8.493  20.010  0.00  0.00    +0.000 A 
ATOM     12  C   UNL     1       0.408   9.296  20.626  0.00  0.00    +0.000 A 
ATOM     13  C   UNL     1      -0.199  10.340  19.926  0.00  0.00    +0.000 A 
ATOM     14  C   UNL     1       0.150  10.588  18.599  0.00  0.00    +0.000 A 
ATOM     15  C   UNL     1       1.092   9.780  17.967  0.00  0.00    +0.000 A 
ATOM     16  C   UNL     1       1.700   8.733  18.666  0.00  0.00    +0.000 A 
ENDBRANCH  10  11
ENDBRANCH   9  10
ENDBRANCH   7   9
ENDBRANCH   1   2
BRANCH   1  17
ATOM     17  N   UNL     1       5.297   3.657  17.522  0.00  0.00    +0.000 NA
ATOM     18  H   UNL     1       5.541   4.052  18.428  0.00  0.00    +0.000 HD
BRANCH  17  19
ATOM     19  C   UNL     1       6.016   4.376  16.449  0.00  0.00    +0.000 C 
BRANCH  19  20
ATOM     20  C   UNL     1       7.425   4.781  16.935  0.00  0.00    +0.000 C 
BRANCH  20  22
ATOM     21  C   UNL     1       6.347   7.059  17.296  0.00  0.00    +0.000 C 
ATOM     22  C   UNL     1       7.542   6.159  17.616  0.00  0.00    +0.000 C 
ATOM     23  C   UNL     1       7.661   5.963  19.134  0.00  0.00    +0.000 C 
ENDBRANCH  20  22
ENDBRANCH  19  20
BRANCH  19  24
ATOM     24  C   UNL     1       6.038   3.510  15.153  0.00  0.00    +0.000 C 
BRANCH  24  25
ATOM     25  N   UNL     1       5.615   4.244  13.940  0.00  0.00    +0.000 NA
ATOM     26  H   UNL     1       5.928   5.210  14.094  0.00  0.00    +0.000 HD
BRANCH  25  27
ATOM     27  C   UNL     1       6.381   3.721  12.771  0.00  0.00    +0.000 C 
BRANCH  27  28
ATOM     28  C   UNL     1       5.453   2.861  11.918  0.00  0.00    +0.000 C 
ATOM     29  O   UNL     1       5.713   1.744  11.499  0.00  0.00    +0.000 OA
BRANCH  28  30
ATOM     30  O   UNL     1       4.255   3.474  11.720  0.00  0.00    +0.000 OA
ATOM     31  H   UNL     1       3.674   3.178  12.463  0.00  0.00    +0.000 HD
ENDBRANCH  28  30
ENDBRANCH  27  28
ENDBRANCH  25  27
ENDBRANCH  24  25
ENDBRANCH  19  24
ENDBRANCH  17  19
ENDBRANCH   1  17
TORSDOF 13
ENDMDL
MODEL 7
REMARK VINA RESULT:      -6.7      2.229      4.063
REMARK  Name = 
REMARK  15 active torsions:
REMARK  status: ('A' for Active; 'I' for Inactive)
REMARK    1  A    between atoms: C_1  and  C_2
REMARK    2  A    between atoms: C_2  and  C_3
REMARK    3  A    between atoms: C_2  and  C_4
REMARK    4  A    between atoms: C_4  and  C_5
REMARK    5  A    between atoms: C_5  and  C_6
REMARK    6  A    between atoms: C_5  and  N_12
REMARK    7  A    between atoms: C_6  and  N_7
REMARK    8  A    between atoms: N_7  and  C_8
REMARK    9  A    between atoms: C_8  and  C_9
REMARK   10  A    between atoms: C_9  and  O_11
REMARK   11  A    between atoms: N_12  and  C_13
REMARK   12  A    between atoms: C_13  and  C_14
REMARK   13  A    between atoms: C_19  and  O_21
REMARK   14  A    between atoms: O_21  and  C_22
REMARK   15  A    between atoms: C_22  and  C_23
REMARK                            x       y       z     vdW  Elec       q    Type
REMARK                         _______ _______ _______ _____ _____    ______ ____
ROOT
ATOM      1  C   UNL     1       4.002   3.847  17.001  0.00  0.00    +0.000 C 
ENDROOT
BRANCH   1   2
ATOM      2  C   UNL     1       3.249   3.440  18.296  0.00  0.00    +0.000 C 
ATOM      3  C   UNL     1       2.084   2.497  17.941  0.00  0.00    +0.000 C 
ATOM      4  C   UNL     1       1.218   2.532  19.191  0.00  0.00    +0.000 C 
ATOM      5  C   UNL     1       1.357   3.967  19.684  0.00  0.00    +0.000 C 
ATOM      6  N   UNL     1       2.554   4.488  19.046  0.00  0.00    +0.000 N 
ATOM      7  C   UNL     1       3.071   5.722  19.390  0.00  0.00    +0.000 C 
ATOM      8  O   UNL     1       4.239   6.065  19.240  0.00  0.00    +0.000 OA
BRANCH   7   9
ATOM      9  O   UNL     1       2.110   6.531  19.908  0.00  0.00    +0.000 OA
BRANCH   9  10
ATOM     10  C   UNL     1       2.014   7.841  19.340  0.00  0.00    +0.000 C 
BRANCH  10  11
ATOM     11  C   UNL     1       1.287   8.773  20.282  0.00  0.00    +0.000 A 
ATOM     12  C   UNL     1       0.737   9.978  19.821  0.00  0.00    +0.000 A 
ATOM     13  C   UNL     1       0.010  10.803  20.682  0.00  0.00    +0.000 A 
ATOM     14  C   UNL     1      -0.168  10.438  22.015  0.00  0.00    +0.000 A 
ATOM     15  C   UNL     1       0.398   9.258  22.493  0.00  0.00    +0.000 A 
ATOM     16  C   UNL     1       1.128   8.432  21.633  0.00  0.00    +0.000 A 
ENDBRANCH  10  11
ENDBRANCH   9  10
ENDBRANCH   7   9
ENDBRANCH   1   2
BRANCH   1  17
ATOM     17  N   UNL     1       5.439   3.543  16.894  0.00  0.00    +0.000 NA
ATOM     18  H   UNL     1       5.738   3.028  17.720  0.00  0.00    +0.000 HD
BRANCH  17  19
ATOM     19  C   UNL     1       6.315   4.714  16.684  0.00  0.00    +0.000 C 
BRANCH  19  20
ATOM     20  C   UNL     1       7.576   4.597  17.570  0.00  0.00    +0.000 C 
BRANCH  20  22
ATOM     21  C   UNL     1       7.386   7.130  17.731  0.00  0.00    +0.000 C 
ATOM     22  C   UNL     1       7.986   5.864  18.345  0.00  0.00    +0.000 C 
ATOM     23  C   UNL     1       7.537   5.727  19.807  0.00  0.00    +0.000 C 
ENDBRANCH  20  22
ENDBRANCH  19  20
BRANCH  19  24
ATOM     24  C   UNL     1       6.642   4.868  15.168  0.00  0.00    +0.000 C 
BRANCH  24  25
ATOM     25  N   UNL     1       6.415   3.634  14.383  0.00  0.00    +0.000 NA
ATOM     26  H   UNL     1       6.099   2.938  15.071  0.00  0.00    +0.000 HD
BRANCH  25  27
ATOM     27  C   UNL     1       5.277   3.864  13.446  0.00  0.00    +0.000 C 
BRANCH  27  28
ATOM     28  C   UNL     1       5.586   3.179  12.118  0.00  0.00    +0.000 C 
ATOM     29  O   UNL     1       6.685   2.773  11.771  0.00  0.00    +0.000 OA
BRANCH  28  30
ATOM     30  O   UNL     1       4.461   3.021  11.370  0.00  0.00    +0.000 OA
ATOM     31  H   UNL     1       4.419   2.058  11.145  0.00  0.00    +0.000 HD
ENDBRANCH  28  30
ENDBRANCH  27  28
ENDBRANCH  25  27
ENDBRANCH  24  25
ENDBRANCH  19  24
ENDBRANCH  17  19
ENDBRANCH   1  17
TORSDOF 13
ENDMDL
MODEL 8
REMARK VINA RESULT:      -6.7      2.749      5.045
REMARK  Name = 
REMARK  15 active torsions:
REMARK  status: ('A' for Active; 'I' for Inactive)
REMARK    1  A    between atoms: C_1  and  C_2
REMARK    2  A    between atoms: C_2  and  C_3
REMARK    3  A    between atoms: C_2  and  C_4
REMARK    4  A    between atoms: C_4  and  C_5
REMARK    5  A    between atoms: C_5  and  C_6
REMARK    6  A    between atoms: C_5  and  N_12
REMARK    7  A    between atoms: C_6  and  N_7
REMARK    8  A    between atoms: N_7  and  C_8
REMARK    9  A    between atoms: C_8  and  C_9
REMARK   10  A    between atoms: C_9  and  O_11
REMARK   11  A    between atoms: N_12  and  C_13
REMARK   12  A    between atoms: C_13  and  C_14
REMARK   13  A    between atoms: C_19  and  O_21
REMARK   14  A    between atoms: O_21  and  C_22
REMARK   15  A    between atoms: C_22  and  C_23
REMARK                            x       y       z     vdW  Elec       q    Type
REMARK                         _______ _______ _______ _____ _____    ______ ____
ROOT
ATOM      1  C   UNL     1       2.064   6.642  19.306  0.00  0.00    +0.000 C 
ENDROOT
BRANCH   1   2
ATOM      2  C   UNL     1       2.004   7.974  20.101  0.00  0.00    +0.000 C 
ATOM      3  C   UNL     1       1.355   7.724  21.475  0.00  0.00    +0.000 C 
ATOM      4  C   UNL     1       0.984   9.123  21.941  0.00  0.00    +0.000 C 
ATOM      5  C   UNL     1       0.589   9.837  20.654  0.00  0.00    +0.000 C 
ATOM      6  N   UNL     1       1.164   9.052  19.576  0.00  0.00    +0.000 N 
ATOM      7  C   UNL     1       1.133   9.496  18.268  0.00  0.00    +0.000 C 
ATOM      8  O   UNL     1       1.910   9.148  17.386  0.00  0.00    +0.000 OA
BRANCH   7   9
ATOM      9  O   UNL     1       0.112  10.369  18.070  0.00  0.00    +0.000 OA
BRANCH   9  10
ATOM     10  C   UNL     1      -1.062   9.836  17.446  0.00  0.00    +0.000 C 
BRANCH  10  11
ATOM     11  C   UNL     1      -2.292  10.579  17.914  0.00  0.00    +0.000 A 
ATOM     12  C   UNL     1      -3.565  10.242  17.431  0.00  0.00    +0.000 A 
ATOM     13  C   UNL     1      -4.704  10.887  17.916  0.00  0.00    +0.000 A 
ATOM     14  C   UNL     1      -4.584  11.884  18.882  0.00  0.00    +0.000 A 
ATOM     15  C   UNL     1      -3.323  12.249  19.350  0.00  0.00    +0.000 A 
ATOM     16  C   UNL     1      -2.182  11.606  18.863  0.00  0.00    +0.000 A 
ENDBRANCH  10  11
ENDBRANCH   9  10
ENDBRANCH   7   9
ENDBRANCH   1   2
BRANCH   1  17
ATOM     17  N   UNL     1       3.218   6.397  18.423  0.00  0.00    +0.000 NA
ATOM     18  H   UNL     1       2.945   6.563  17.456  0.00  0.00    +0.000 HD
BRANCH  17  19
ATOM     19  C   UNL     1       3.834   5.060  18.550  0.00  0.00    +0.000 C 
BRANCH  19  20
ATOM     20  C   UNL     1       3.565   4.229  17.275  0.00  0.00    +0.000 C 
BRANCH  20  22
ATOM     21  C   UNL     1       3.416   1.855  18.181  0.00  0.00    +0.000 C 
ATOM     22  C   UNL     1       2.681   2.980  17.449  0.00  0.00    +0.000 C 
ATOM     23  C   UNL     1       1.410   3.365  18.219  0.00  0.00    +0.000 C 
ENDBRANCH  20  22
ENDBRANCH  19  20
BRANCH  19  24
ATOM     24  C   UNL     1       5.351   5.205  18.880  0.00  0.00    +0.000 C 
BRANCH  24  25
ATOM     25  N   UNL     1       6.172   4.065  18.415  0.00  0.00    +0.000 NA
ATOM     26  H   UNL     1       5.608   3.615  17.683  0.00  0.00    +0.000 HD
BRANCH  25  27
ATOM     27  C   UNL     1       7.398   4.597  17.751  0.00  0.00    +0.000 C 
BRANCH  27  28
ATOM     28  C   UNL     1       7.114   4.778  16.263  0.00  0.00    +0.000 C 
ATOM     29  O   UNL     1       6.608   3.939  15.534  0.00  0.00    +0.000 OA
BRANCH  28  30
ATOM     30  O   UNL     1       7.448   6.028  15.845  0.00  0.00    +0.000 OA
ATOM     31  H   UNL     1       6.726   6.623  16.168  0.00  0.00    +0.000 HD
ENDBRANCH  28  30
ENDBRANCH  27  28
ENDBRANCH  25  27
ENDBRANCH  24  25
ENDBRANCH  19  24
ENDBRANCH  17  19
ENDBRANCH   1  17
TORSDOF 13
ENDMDL
MODEL 9
REMARK VINA RESULT:      -6.6      2.345      4.010
REMARK  Name = 
REMARK  15 active torsions:
REMARK  status: ('A' for Active; 'I' for Inactive)
REMARK    1  A    between atoms: C_1  and  C_2
REMARK    2  A    between atoms: C_2  and  C_3
REMARK    3  A    between atoms: C_2  and  C_4
REMARK    4  A    between atoms: C_4  and  C_5
REMARK    5  A    between atoms: C_5  and  C_6
REMARK    6  A    between atoms: C_5  and  N_12
REMARK    7  A    between atoms: C_6  and  N_7
REMARK    8  A    between atoms: N_7  and  C_8
REMARK    9  A    between atoms: C_8  and  C_9
REMARK   10  A    between atoms: C_9  and  O_11
REMARK   11  A    between atoms: N_12  and  C_13
REMARK   12  A    between atoms: C_13  and  C_14
REMARK   13  A    between atoms: C_19  and  O_21
REMARK   14  A    between atoms: O_21  and  C_22
REMARK   15  A    between atoms: C_22  and  C_23
REMARK                            x       y       z     vdW  Elec       q    Type
REMARK                         _______ _______ _______ _____ _____    ______ ____
ROOT
ATOM      1  C   UNL     1       4.122   3.523  17.178  0.00  0.00    +0.000 C 
ENDROOT
BRANCH   1   2
ATOM      2  C   UNL     1       4.042   3.626  18.725  0.00  0.00    +0.000 C 
ATOM      3  C   UNL     1       3.526   2.295  19.303  0.00  0.00    +0.000 C 
ATOM      4  C   UNL     1       3.106   2.673  20.716  0.00  0.00    +0.000 C 
ATOM      5  C   UNL     1       2.562   4.087  20.562  0.00  0.00    +0.000 C 
ATOM      6  N   UNL     1       3.094   4.580  19.303  0.00  0.00    +0.000 N 
ATOM      7  C   UNL     1       2.927   5.896  18.919  0.00  0.00    +0.000 C 
ATOM      8  O   UNL     1       3.649   6.498  18.132  0.00  0.00    +0.000 OA
BRANCH   7   9
ATOM      9  O   UNL     1       1.839   6.448  19.514  0.00  0.00    +0.000 OA
BRANCH   9  10
ATOM     10  C   UNL     1       2.088   7.564  20.375  0.00  0.00    +0.000 C 
BRANCH  10  11
ATOM     11  C   UNL     1       1.237   8.745  19.968  0.00  0.00    +0.000 A 
ATOM     12  C   UNL     1       0.253   9.254  20.828  0.00  0.00    +0.000 A 
ATOM     13  C   UNL     1      -0.485  10.386  20.475  0.00  0.00    +0.000 A 
ATOM     14  C   UNL     1      -0.255  11.016  19.253  0.00  0.00    +0.000 A 
ATOM     15  C   UNL     1       0.699  10.504  18.376  0.00  0.00    +0.000 A 
ATOM     16  C   UNL     1       1.437   9.369  18.728  0.00  0.00    +0.000 A 
ENDBRANCH  10  11
ENDBRANCH   9  10
ENDBRANCH   7   9
ENDBRANCH   1   2
BRANCH   1  17
ATOM     17  N   UNL     1       5.440   3.332  16.549  0.00  0.00    +0.000 NA
ATOM     18  H   UNL     1       5.975   2.652  17.085  0.00  0.00    +0.000 HD
BRANCH  17  19
ATOM     19  C   UNL     1       6.233   4.565  16.365  0.00  0.00    +0.000 C 
BRANCH  19  20
ATOM     20  C   UNL     1       7.423   4.581  17.351  0.00  0.00    +0.000 C 
BRANCH  20  22
ATOM     21  C   UNL     1       6.868   7.063  17.463  0.00  0.00    +0.000 C 
ATOM     22  C   UNL     1       7.738   5.934  18.019  0.00  0.00    +0.000 C 
ATOM     23  C   UNL     1       7.530   5.809  19.535  0.00  0.00    +0.000 C 
ENDBRANCH  20  22
ENDBRANCH  19  20
BRANCH  19  24
ATOM     24  C   UNL     1       6.669   4.698  14.875  0.00  0.00    +0.000 C 
BRANCH  24  25
ATOM     25  N   UNL     1       5.671   4.176  13.914  0.00  0.00    +0.000 NA
ATOM     26  H   UNL     1       5.190   5.011  13.556  0.00  0.00    +0.000 HD
BRANCH  25  27
ATOM     27  C   UNL     1       6.390   3.561  12.761  0.00  0.00    +0.000 C 
BRANCH  27  28
ATOM     28  C   UNL     1       5.372   2.878  11.853  0.00  0.00    +0.000 C 
ATOM     29  O   UNL     1       4.320   3.370  11.476  0.00  0.00    +0.000 OA
BRANCH  28  30
ATOM     30  O   UNL     1       5.807   1.651  11.459  0.00  0.00    +0.000 OA
ATOM     31  H   UNL     1       6.575   1.816  10.858  0.00  0.00    +0.000 HD
ENDBRANCH  28  30
ENDBRANCH  27  28
ENDBRANCH  25  27
ENDBRANCH  24  25
ENDBRANCH  19  24
ENDBRANCH  17  19
ENDBRANCH   1  17
TORSDOF 13
ENDMDL
