MODEL 1
REMARK VINA RESULT:      -5.4      0.000      0.000
REMARK  Name = 
REMARK  3 active torsions:
REMARK  status: ('A' for Active; 'I' for Inactive)
REMARK    1  A    between atoms: C_2  and  O_3
REMARK    2  A    between atoms: C_2  and  C_4
REMARK    3  A    between atoms: C_5  and  C_6
REMARK                            x       y       z     vdW  Elec       q    Type
REMARK                         _______ _______ _______ _____ _____    ______ ____
ROOT
ATOM      1  C   UNL     1       7.757   6.603  18.629  0.00  0.00    +0.000 C 
ATOM      2  C   UNL     1       7.488   6.775  17.327  0.00  0.00    +0.000 C 
ENDROOT
BRANCH   2   3
ATOM      3  C   UNL     1       6.818   5.900  16.438  0.00  0.00    +0.000 A 
ATOM      4  C   UNL     1       5.558   5.964  15.868  0.00  0.00    +0.000 A 
ATOM      5  C   UNL     1       5.350   4.775  15.126  0.00  0.00    +0.000 A 
ATOM      6  C   UNL     1       6.481   4.008  15.266  0.00  0.00    +0.000 A 
ATOM      7  N   UNL     1       7.369   4.703  16.044  0.00  0.00    +0.000 N 
ATOM      8  H   UNL     1       8.314   4.398  16.260  0.00  0.00    +0.000 HD
ENDBRANCH   2   3
BRANCH   1  10
ATOM      9  O   UNL     1       6.582   4.620  19.307  0.00  0.00    +0.000 OA
ATOM     10  C   UNL     1       7.434   5.465  19.518  0.00  0.00    +0.000 C 
BRANCH  10  11
ATOM     11  O   UNL     1       8.173   5.484  20.646  0.00  0.00    +0.000 OA
ATOM     12  H   UNL     1       8.283   6.354  21.071  0.00  0.00    +0.000 HD
ENDBRANCH  10  11
ENDBRANCH   1  10
TORSDOF 3
ENDMDL
MODEL 2
REMARK VINA RESULT:      -5.3      1.884      2.130
REMARK  Name = 
REMARK  3 active torsions:
REMARK  status: ('A' for Active; 'I' for Inactive)
REMARK    1  A    between atoms: C_2  and  O_3
REMARK    2  A    between atoms: C_2  and  C_4
REMARK    3  A    between atoms: C_5  and  C_6
REMARK                            x       y       z     vdW  Elec       q    Type
REMARK                         _______ _______ _______ _____ _____    ______ ____
ROOT
ATOM      1  C   UNL     1       7.706   5.724  18.379  0.00  0.00    +0.000 C 
ATOM      2  C   UNL     1       7.356   4.647  17.662  0.00  0.00    +0.000 C 
ENDROOT
BRANCH   2   3
ATOM      3  C   UNL     1       6.912   4.583  16.319  0.00  0.00    +0.000 A 
ATOM      4  C   UNL     1       5.846   3.917  15.738  0.00  0.00    +0.000 A 
ATOM      5  C   UNL     1       5.913   4.117  14.337  0.00  0.00    +0.000 A 
ATOM      6  C   UNL     1       7.022   4.890  14.091  0.00  0.00    +0.000 A 
ATOM      7  N   UNL     1       7.607   5.183  15.295  0.00  0.00    +0.000 N 
ATOM      8  H   UNL     1       8.412   5.792  15.416  0.00  0.00    +0.000 HD
ENDBRANCH   2   3
BRANCH   1  10
ATOM      9  O   UNL     1       7.148   7.638  17.039  0.00  0.00    +0.000 OA
ATOM     10  C   UNL     1       7.739   7.150  17.986  0.00  0.00    +0.000 C 
BRANCH  10  11
ATOM     11  O   UNL     1       8.555   7.871  18.782  0.00  0.00    +0.000 OA
ATOM     12  H   UNL     1       8.158   8.218  19.602  0.00  0.00    +0.000 HD
ENDBRANCH  10  11
ENDBRANCH   1  10
TORSDOF 3
ENDMDL
MODEL 3
REMARK VINA RESULT:      -5.2      3.195      3.489
REMARK  Name = 
REMARK  3 active torsions:
REMARK  status: ('A' for Active; 'I' for Inactive)
REMARK    1  A    between atoms: C_2  and  O_3
REMARK    2  A    between atoms: C_2  and  C_4
REMARK    3  A    between atoms: C_5  and  C_6
REMARK                            x       y       z     vdW  Elec       q    Type
REMARK                         _______ _______ _______ _____ _____    ______ ____
ROOT
ATOM      1  C   UNL     1       6.772   5.612  18.684  0.00  0.00    +0.000 C 
ATOM      2  C   UNL     1       5.668   5.097  19.245  0.00  0.00    +0.000 C 
ENDROOT
BRANCH   2   3
ATOM      3  C   UNL     1       4.857   4.030  18.786  0.00  0.00    +0.000 A 
ATOM      4  C   UNL     1       3.915   3.967  17.773  0.00  0.00    +0.000 A 
ATOM      5  C   UNL     1       3.326   2.679  17.799  0.00  0.00    +0.000 A 
ATOM      6  C   UNL     1       3.912   1.987  18.832  0.00  0.00    +0.000 A 
ATOM      7  N   UNL     1       4.848   2.804  19.409  0.00  0.00    +0.000 N 
ATOM      8  H   UNL     1       5.476   2.528  20.160  0.00  0.00    +0.000 HD
ENDBRANCH   2   3
BRANCH   1  10
ATOM      9  O   UNL     1       7.412   5.821  16.378  0.00  0.00    +0.000 OA
ATOM     10  C   UNL     1       7.467   5.222  17.437  0.00  0.00    +0.000 C 
BRANCH  10  11
ATOM     11  O   UNL     1       8.155   4.072  17.585  0.00  0.00    +0.000 OA
ATOM     12  H   UNL     1       8.503   3.672  16.767  0.00  0.00    +0.000 HD
ENDBRANCH  10  11
ENDBRANCH   1  10
TORSDOF 3
ENDMDL
MODEL 4
REMARK VINA RESULT:      -5.1      0.880      1.188
REMARK  Name = 
REMARK  3 active torsions:
REMARK  status: ('A' for Active; 'I' for Inactive)
REMARK    1  A    between atoms: C_2  and  O_3
REMARK    2  A    between atoms: C_2  and  C_4
REMARK    3  A    between atoms: C_5  and  C_6
REMARK                            x       y       z     vdW  Elec       q    Type
REMARK                         _______ _______ _______ _____ _____    ______ ____
ROOT
ATOM      1  C   UNL     1       7.784   6.714  18.561  0.00  0.00    +0.000 C 
ATOM      2  C   UNL     1       7.489   6.765  17.254  0.00  0.00    +0.000 C 
ENDROOT
BRANCH   2   3
ATOM      3  C   UNL     1       6.841   5.792  16.454  0.00  0.00    +0.000 A 
ATOM      4  C   UNL     1       7.080   4.439  16.287  0.00  0.00    +0.000 A 
ATOM      5  C   UNL     1       6.194   3.955  15.294  0.00  0.00    +0.000 A 
ATOM      6  C   UNL     1       5.441   5.023  14.868  0.00  0.00    +0.000 A 
ATOM      7  N   UNL     1       5.826   6.123  15.588  0.00  0.00    +0.000 N 
ATOM      8  H   UNL     1       5.392   7.040  15.523  0.00  0.00    +0.000 HD
ENDBRANCH   2   3
BRANCH   1  10
ATOM      9  O   UNL     1       6.434   5.142  19.776  0.00  0.00    +0.000 OA
ATOM     10  C   UNL     1       7.521   5.644  19.548  0.00  0.00    +0.000 C 
BRANCH  10  11
ATOM     11  O   UNL     1       8.635   5.301  20.226  0.00  0.00    +0.000 OA
ATOM     12  H   UNL     1       9.075   6.018  20.718  0.00  0.00    +0.000 HD
ENDBRANCH  10  11
ENDBRANCH   1  10
TORSDOF 3
ENDMDL
MODEL 5
REMARK VINA RESULT:      -5.1      4.859      5.465
REMARK  Name = 
REMARK  3 active torsions:
REMARK  status: ('A' for Active; 'I' for Inactive)
REMARK    1  A    between atoms: C_2  and  O_3
REMARK    2  A    between atoms: C_2  and  C_4
REMARK    3  A    between atoms: C_5  and  C_6
REMARK                            x       y       z     vdW  Elec       q    Type
REMARK                         _______ _______ _______ _____ _____    ______ ____
ROOT
ATOM      1  C   UNL     1       1.019   3.475  20.339  0.00  0.00    +0.000 C 
ATOM      2  C   UNL     1       1.119   3.522  19.002  0.00  0.00    +0.000 C 
ENDROOT
BRANCH   2   3
ATOM      3  C   UNL     1       2.241   3.869  18.210  0.00  0.00    +0.000 A 
ATOM      4  C   UNL     1       3.083   3.096  17.429  0.00  0.00    +0.000 A 
ATOM      5  C   UNL     1       4.107   3.935  16.923  0.00  0.00    +0.000 A 
ATOM      6  C   UNL     1       3.874   5.197  17.413  0.00  0.00    +0.000 A 
ATOM      7  N   UNL     1       2.735   5.152  18.172  0.00  0.00    +0.000 N 
ATOM      8  H   UNL     1       2.295   5.959  18.607  0.00  0.00    +0.000 HD
ENDBRANCH   2   3
BRANCH   1  10
ATOM      9  O   UNL     1       2.455   2.968  22.197  0.00  0.00    +0.000 OA
ATOM     10  C   UNL     1       2.038   3.762  21.373  0.00  0.00    +0.000 C 
BRANCH  10  11
ATOM     11  O   UNL     1       2.437   5.050  21.339  0.00  0.00    +0.000 OA
ATOM     12  H   UNL     1       2.091   5.625  22.046  0.00  0.00    +0.000 HD
ENDBRANCH  10  11
ENDBRANCH   1  10
TORSDOF 3
ENDMDL
MODEL 6
REMARK VINA RESULT:      -5.0      2.821      4.484
REMARK  Name = 
REMARK  3 active torsions:
REMARK  status: ('A' for Active; 'I' for Inactive)
REMARK    1  A    between atoms: C_2  and  O_3
REMARK    2  A    between atoms: C_2  and  C_4
REMARK    3  A    between atoms: C_5  and  C_6
REMARK                            x       y       z     vdW  Elec       q    Type
REMARK                         _______ _______ _______ _____ _____    ______ ____
ROOT
ATOM      1  C   UNL     1       5.607   4.332  15.422  0.00  0.00    +0.000 C 
ATOM      2  C   UNL     1       5.567   4.919  16.627  0.00  0.00    +0.000 C 
ENDROOT
BRANCH   2   3
ATOM      3  C   UNL     1       6.523   5.773  17.228  0.00  0.00    +0.000 A 
ATOM      4  C   UNL     1       7.310   5.616  18.356  0.00  0.00    +0.000 A 
ATOM      5  C   UNL     1       8.027   6.819  18.565  0.00  0.00    +0.000 A 
ATOM      6  C   UNL     1       7.656   7.689  17.568  0.00  0.00    +0.000 A 
ATOM      7  N   UNL     1       6.763   7.042  16.755  0.00  0.00    +0.000 N 
ATOM      8  H   UNL     1       6.370   7.429  15.901  0.00  0.00    +0.000 HD
ENDBRANCH   2   3
BRANCH   1  10
ATOM      9  O   UNL     1       7.521   5.248  14.296  0.00  0.00    +0.000 OA
ATOM     10  C   UNL     1       6.645   4.405  14.370  0.00  0.00    +0.000 C 
BRANCH  10  11
ATOM     11  O   UNL     1       6.490   3.437  13.444  0.00  0.00    +0.000 OA
ATOM     12  H   UNL     1       5.573   3.245  13.174  0.00  0.00    +0.000 HD
ENDBRANCH  10  11
ENDBRANCH   1  10
TORSDOF 3
ENDMDL
MODEL 7
REMARK VINA RESULT:      -5.0      2.888      3.417
REMARK  Name = 
REMARK  3 active torsions:
REMARK  status: ('A' for Active; 'I' for Inactive)
REMARK    1  A    between atoms: C_2  and  O_3
REMARK    2  A    between atoms: C_2  and  C_4
REMARK    3  A    between atoms: C_5  and  C_6
REMARK                            x       y       z     vdW  Elec       q    Type
REMARK                         _______ _______ _______ _____ _____    ______ ____
ROOT
ATOM      1  C   UNL     1       7.811   6.359  18.618  0.00  0.00    +0.000 C 
ATOM      2  C   UNL     1       7.082   5.504  19.351  0.00  0.00    +0.000 C 
ENDROOT
BRANCH   2   3
ATOM      3  C   UNL     1       5.799   4.973  19.075  0.00  0.00    +0.000 A 
ATOM      4  C   UNL     1       4.553   5.575  19.016  0.00  0.00    +0.000 A 
ATOM      5  C   UNL     1       3.586   4.564  18.793  0.00  0.00    +0.000 A 
ATOM      6  C   UNL     1       4.259   3.368  18.730  0.00  0.00    +0.000 A 
ATOM      7  N   UNL     1       5.596   3.627  18.881  0.00  0.00    +0.000 N 
ATOM      8  H   UNL     1       6.333   2.930  18.815  0.00  0.00    +0.000 HD
ENDBRANCH   2   3
BRANCH   1  10
ATOM      9  O   UNL     1       7.275   8.175  17.140  0.00  0.00    +0.000 OA
ATOM     10  C   UNL     1       7.500   6.991  17.317  0.00  0.00    +0.000 C 
BRANCH  10  11
ATOM     11  O   UNL     1       7.443   6.085  16.320  0.00  0.00    +0.000 OA
ATOM     12  H   UNL     1       8.160   5.425  16.299  0.00  0.00    +0.000 HD
ENDBRANCH  10  11
ENDBRANCH   1  10
TORSDOF 3
ENDMDL
MODEL 8
REMARK VINA RESULT:      -5.0      3.272      3.625
REMARK  Name = 
REMARK  3 active torsions:
REMARK  status: ('A' for Active; 'I' for Inactive)
REMARK    1  A    between atoms: C_2  and  O_3
REMARK    2  A    between atoms: C_2  and  C_4
REMARK    3  A    between atoms: C_5  and  C_6
REMARK                            x       y       z     vdW  Elec       q    Type
REMARK                         _______ _______ _______ _____ _____    ______ ____
ROOT
ATOM      1  C   UNL     1       6.679   5.651  18.581  0.00  0.00    +0.000 C 
ATOM      2  C   UNL     1       5.650   5.073  19.218  0.00  0.00    +0.000 C 
ENDROOT
BRANCH   2   3
ATOM      3  C   UNL     1       4.858   3.974  18.805  0.00  0.00    +0.000 A 
ATOM      4  C   UNL     1       3.939   3.842  17.778  0.00  0.00    +0.000 A 
ATOM      5  C   UNL     1       3.361   2.553  17.867  0.00  0.00    +0.000 A 
ATOM      6  C   UNL     1       3.929   1.928  18.951  0.00  0.00    +0.000 A 
ATOM      7  N   UNL     1       4.845   2.787  19.499  0.00  0.00    +0.000 N 
ATOM      8  H   UNL     1       5.459   2.561  20.278  0.00  0.00    +0.000 HD
ENDBRANCH   2   3
BRANCH   1  10
ATOM      9  O   UNL     1       8.003   4.353  17.054  0.00  0.00    +0.000 OA
ATOM     10  C   UNL     1       7.290   5.315  17.276  0.00  0.00    +0.000 C 
BRANCH  10  11
ATOM     11  O   UNL     1       7.008   6.240  16.337  0.00  0.00    +0.000 OA
ATOM     12  H   UNL     1       7.237   6.004  15.420  0.00  0.00    +0.000 HD
ENDBRANCH  10  11
ENDBRANCH   1  10
TORSDOF 3
ENDMDL
MODEL 9
REMARK VINA RESULT:      -5.0      2.914      3.851
REMARK  Name = 
REMARK  3 active torsions:
REMARK  status: ('A' for Active; 'I' for Inactive)
REMARK    1  A    between atoms: C_2  and  O_3
REMARK    2  A    between atoms: C_2  and  C_4
REMARK    3  A    between atoms: C_5  and  C_6
REMARK                            x       y       z     vdW  Elec       q    Type
REMARK                         _______ _______ _______ _____ _____    ______ ____
ROOT
ATOM      1  C   UNL     1       6.165   4.383  15.636  0.00  0.00    +0.000 C 
ATOM      2  C   UNL     1       4.967   3.947  16.052  0.00  0.00    +0.000 C 
ENDROOT
BRANCH   2   3
ATOM      3  C   UNL     1       4.409   3.999  17.352  0.00  0.00    +0.000 A 
ATOM      4  C   UNL     1       3.548   4.910  17.943  0.00  0.00    +0.000 A 
ATOM      5  C   UNL     1       3.379   4.539  19.300  0.00  0.00    +0.000 A 
ATOM      6  C   UNL     1       4.147   3.420  19.512  0.00  0.00    +0.000 A 
ATOM      7  N   UNL     1       4.748   3.090  18.326  0.00  0.00    +0.000 N 
ATOM      8  H   UNL     1       5.326   2.266  18.178  0.00  0.00    +0.000 HD
ENDBRANCH   2   3
BRANCH   1  10
ATOM      9  O   UNL     1       7.494   6.237  16.390  0.00  0.00    +0.000 OA
ATOM     10  C   UNL     1       7.247   5.044  16.399  0.00  0.00    +0.000 C 
BRANCH  10  11
ATOM     11  O   UNL     1       7.986   4.156  17.094  0.00  0.00    +0.000 OA
ATOM     12  H   UNL     1       7.500   3.407  17.485  0.00  0.00    +0.000 HD
ENDBRANCH  10  11
ENDBRANCH   1  10
TORSDOF 3
ENDMDL
