MODEL 1
REMARK VINA RESULT:      -7.8      0.000      0.000
REMARK  Name = 
REMARK  1 active torsions:
REMARK  status: ('A' for Active; 'I' for Inactive)
REMARK    1  A    between atoms: C_2  and  C_3
REMARK                            x       y       z     vdW  Elec       q    Type
REMARK                         _______ _______ _______ _____ _____    ______ ____
ROOT
ATOM      1  C   UNL     1       5.951   4.681  15.229  0.00  0.00    +0.000 A 
ATOM      2  C   UNL     1       5.353   3.572  15.798  0.00  0.00    +0.000 A 
ATOM      3  C   UNL     1       4.472   3.923  16.870  0.00  0.00    +0.000 A 
ATOM      4  C   UNL     1       4.421   5.285  17.049  0.00  0.00    +0.000 A 
ATOM      5  S   UNL     1       5.435   6.127  15.972  0.00  0.00    +0.000 S 
ATOM      6  C   UNL     1       3.614   5.975  18.029  0.00  0.00    +0.000 C 
ATOM      7  O   UNL     1       3.583   7.193  18.120  0.00  0.00    +0.000 OA
ATOM      8  C   UNL     1       2.805   5.097  18.940  0.00  0.00    +0.000 A 
ATOM      9  C   UNL     1       1.990   5.620  19.962  0.00  0.00    +0.000 A 
ATOM     10 CL   UNL     1       1.794   7.305  20.303  0.00  0.00    +0.000 Cl
ATOM     11  C   UNL     1       1.263   4.760  20.798  0.00  0.00    +0.000 A 
ATOM     12  C   UNL     1       1.331   3.380  20.636  0.00  0.00    +0.000 A 
ATOM     13  C   UNL     1       2.127   2.846  19.628  0.00  0.00    +0.000 A 
ATOM     14  C   UNL     1       2.862   3.691  18.778  0.00  0.00    +0.000 A 
ATOM     15  C   UNL     1       3.689   3.040  17.715  0.00  0.00    +0.000 C 
ATOM     16  O   UNL     1       3.700   1.824  17.581  0.00  0.00    +0.000 OA
ENDROOT
BRANCH   1  18
ATOM     17  O   UNL     1       7.862   5.509  14.100  0.00  0.00    +0.000 OA
ATOM     18  C   UNL     1       6.904   4.742  14.145  0.00  0.00    +0.000 C 
ENDBRANCH   1  18
TORSDOF 1
ENDMDL
MODEL 2
REMARK VINA RESULT:      -7.4      1.552      2.895
REMARK  Name = 
REMARK  1 active torsions:
REMARK  status: ('A' for Active; 'I' for Inactive)
REMARK    1  A    between atoms: C_2  and  C_3
REMARK                            x       y       z     vdW  Elec       q    Type
REMARK                         _______ _______ _______ _____ _____    ______ ____
ROOT
ATOM      1  C   UNL     1       6.114   4.931  15.029  0.00  0.00    +0.000 A 
ATOM      2  C   UNL     1       5.616   6.006  15.742  0.00  0.00    +0.000 A 
ATOM      3  C   UNL     1       4.714   5.599  16.776  0.00  0.00    +0.000 A 
ATOM      4  C   UNL     1       4.589   4.231  16.818  0.00  0.00    +0.000 A 
ATOM      5  S   UNL     1       5.510   3.449  15.620  0.00  0.00    +0.000 S 
ATOM      6  C   UNL     1       3.776   3.489  17.756  0.00  0.00    +0.000 C 
ATOM      7  O   UNL     1       3.729   2.268  17.768  0.00  0.00    +0.000 OA
ATOM      8  C   UNL     1       2.984   4.317  18.726  0.00  0.00    +0.000 A 
ATOM      9  C   UNL     1       2.125   3.741  19.682  0.00  0.00    +0.000 A 
ATOM     10 CL   UNL     1       1.874   2.041  19.885  0.00  0.00    +0.000 Cl
ATOM     11  C   UNL     1       1.394   4.555  20.559  0.00  0.00    +0.000 A 
ATOM     12  C   UNL     1       1.500   5.941  20.503  0.00  0.00    +0.000 A 
ATOM     13  C   UNL     1       2.346   6.528  19.568  0.00  0.00    +0.000 A 
ATOM     14  C   UNL     1       3.090   5.728  18.682  0.00  0.00    +0.000 A 
ATOM     15  C   UNL     1       3.982   6.434  17.710  0.00  0.00    +0.000 C 
ATOM     16  O   UNL     1       4.075   7.654  17.711  0.00  0.00    +0.000 OA
ENDROOT
BRANCH   1  18
ATOM     17  O   UNL     1       8.033   5.632  13.830  0.00  0.00    +0.000 OA
ATOM     18  C   UNL     1       7.029   4.929  13.911  0.00  0.00    +0.000 C 
ENDBRANCH   1  18
TORSDOF 1
ENDMDL
MODEL 3
REMARK VINA RESULT:      -6.1      3.240      6.030
REMARK  Name = 
REMARK  1 active torsions:
REMARK  status: ('A' for Active; 'I' for Inactive)
REMARK    1  A    between atoms: C_2  and  C_3
REMARK                            x       y       z     vdW  Elec       q    Type
REMARK                         _______ _______ _______ _____ _____    ______ ____
ROOT
ATOM      1  C   UNL     1       0.714   8.861  21.026  0.00  0.00    +0.000 A 
ATOM      2  C   UNL     1       0.974   7.546  21.362  0.00  0.00    +0.000 A 
ATOM      3  C   UNL     1       1.796   6.892  20.390  0.00  0.00    +0.000 A 
ATOM      4  C   UNL     1       2.145   7.749  19.373  0.00  0.00    +0.000 A 
ATOM      5  S   UNL     1       1.474   9.301  19.563  0.00  0.00    +0.000 S 
ATOM      6  C   UNL     1       2.985   7.417  18.245  0.00  0.00    +0.000 C 
ATOM      7  O   UNL     1       3.290   8.231  17.385  0.00  0.00    +0.000 OA
ATOM      8  C   UNL     1       3.467   5.996  18.188  0.00  0.00    +0.000 A 
ATOM      9  C   UNL     1       4.271   5.514  17.137  0.00  0.00    +0.000 A 
ATOM     10 CL   UNL     1       4.819   6.465  15.799  0.00  0.00    +0.000 Cl
ATOM     11  C   UNL     1       4.687   4.175  17.120  0.00  0.00    +0.000 A 
ATOM     12  C   UNL     1       4.316   3.300  18.134  0.00  0.00    +0.000 A 
ATOM     13  C   UNL     1       3.526   3.758  19.183  0.00  0.00    +0.000 A 
ATOM     14  C   UNL     1       3.101   5.099  19.220  0.00  0.00    +0.000 A 
ATOM     15  C   UNL     1       2.260   5.517  20.384  0.00  0.00    +0.000 C 
ATOM     16  O   UNL     1       1.980   4.727  21.276  0.00  0.00    +0.000 OA
ENDROOT
BRANCH   1  18
ATOM     17  O   UNL     1       0.183  10.274  22.852  0.00  0.00    +0.000 OA
ATOM     18  C   UNL     1      -0.080   9.839  21.734  0.00  0.00    +0.000 C 
ENDBRANCH   1  18
TORSDOF 1
ENDMDL
MODEL 4
REMARK VINA RESULT:      -6.1      2.361      3.221
REMARK  Name = 
REMARK  1 active torsions:
REMARK  status: ('A' for Active; 'I' for Inactive)
REMARK    1  A    between atoms: C_2  and  C_3
REMARK                            x       y       z     vdW  Elec       q    Type
REMARK                         _______ _______ _______ _____ _____    ______ ____
ROOT
ATOM      1  C   UNL     1       5.326   5.069  16.980  0.00  0.00    +0.000 A 
ATOM      2  C   UNL     1       4.673   4.720  18.147  0.00  0.00    +0.000 A 
ATOM      3  C   UNL     1       3.770   5.740  18.587  0.00  0.00    +0.000 A 
ATOM      4  C   UNL     1       3.759   6.805  17.718  0.00  0.00    +0.000 A 
ATOM      5  S   UNL     1       4.835   6.602  16.416  0.00  0.00    +0.000 S 
ATOM      6  C   UNL     1       2.944   7.992  17.852  0.00  0.00    +0.000 C 
ATOM      7  O   UNL     1       2.952   8.895  17.029  0.00  0.00    +0.000 OA
ATOM      8  C   UNL     1       2.076   8.050  19.076  0.00  0.00    +0.000 A 
ATOM      9  C   UNL     1       1.247   9.152  19.360  0.00  0.00    +0.000 A 
ATOM     10 CL   UNL     1       1.097  10.557  18.361  0.00  0.00    +0.000 Cl
ATOM     11  C   UNL     1       0.463   9.168  20.523  0.00  0.00    +0.000 A 
ATOM     12  C   UNL     1       0.490   8.102  21.416  0.00  0.00    +0.000 A 
ATOM     13  C   UNL     1       1.300   7.003  21.150  0.00  0.00    +0.000 A 
ATOM     14  C   UNL     1       2.090   6.967  19.988  0.00  0.00    +0.000 A 
ATOM     15  C   UNL     1       2.930   5.747  19.770  0.00  0.00    +0.000 C 
ATOM     16  O   UNL     1       2.903   4.814  20.561  0.00  0.00    +0.000 OA
ENDROOT
BRANCH   1  18
ATOM     17  O   UNL     1       7.530   4.467  16.353  0.00  0.00    +0.000 OA
ATOM     18  C   UNL     1       6.315   4.323  16.237  0.00  0.00    +0.000 C 
ENDBRANCH   1  18
TORSDOF 1
ENDMDL
MODEL 5
REMARK VINA RESULT:      -6.1      2.949      5.531
REMARK  Name = 
REMARK  1 active torsions:
REMARK  status: ('A' for Active; 'I' for Inactive)
REMARK    1  A    between atoms: C_2  and  C_3
REMARK                            x       y       z     vdW  Elec       q    Type
REMARK                         _______ _______ _______ _____ _____    ______ ____
ROOT
ATOM      1  C   UNL     1       1.315   8.132  20.732  0.00  0.00    +0.000 A 
ATOM      2  C   UNL     1       1.209   6.829  21.181  0.00  0.00    +0.000 A 
ATOM      3  C   UNL     1       1.864   5.902  20.308  0.00  0.00    +0.000 A 
ATOM      4  C   UNL     1       2.460   6.547  19.251  0.00  0.00    +0.000 A 
ATOM      5  S   UNL     1       2.213   8.231  19.285  0.00  0.00    +0.000 S 
ATOM      6  C   UNL     1       3.221   5.912  18.199  0.00  0.00    +0.000 C 
ATOM      7  O   UNL     1       3.758   6.541  17.299  0.00  0.00    +0.000 OA
ATOM      8  C   UNL     1       3.315   4.415  18.277  0.00  0.00    +0.000 A 
ATOM      9  C   UNL     1       4.000   3.652  17.312  0.00  0.00    +0.000 A 
ATOM     10 CL   UNL     1       4.823   4.308  15.939  0.00  0.00    +0.000 Cl
ATOM     11  C   UNL     1       4.050   2.255  17.419  0.00  0.00    +0.000 A 
ATOM     12  C   UNL     1       3.427   1.597  18.475  0.00  0.00    +0.000 A 
ATOM     13  C   UNL     1       2.750   2.335  19.440  0.00  0.00    +0.000 A 
ATOM     14  C   UNL     1       2.691   3.737  19.352  0.00  0.00    +0.000 A 
ATOM     15  C   UNL     1       1.950   4.459  20.432  0.00  0.00    +0.000 C 
ATOM     16  O   UNL     1       1.442   3.849  21.364  0.00  0.00    +0.000 OA
ENDROOT
BRANCH   1  18
ATOM     17  O   UNL     1       1.160   9.826  22.381  0.00  0.00    +0.000 OA
ATOM     18  C   UNL     1       0.782   9.340  21.319  0.00  0.00    +0.000 C 
ENDBRANCH   1  18
TORSDOF 1
ENDMDL
MODEL 6
REMARK VINA RESULT:      -6.1      1.422      1.741
REMARK  Name = 
REMARK  1 active torsions:
REMARK  status: ('A' for Active; 'I' for Inactive)
REMARK    1  A    between atoms: C_2  and  C_3
REMARK                            x       y       z     vdW  Elec       q    Type
REMARK                         _______ _______ _______ _____ _____    ______ ____
ROOT
ATOM      1  C   UNL     1       5.984   4.923  15.729  0.00  0.00    +0.000 A 
ATOM      2  C   UNL     1       5.481   4.185  16.783  0.00  0.00    +0.000 A 
ATOM      3  C   UNL     1       4.558   4.938  17.578  0.00  0.00    +0.000 A 
ATOM      4  C   UNL     1       4.383   6.204  17.074  0.00  0.00    +0.000 A 
ATOM      5  S   UNL     1       5.330   6.498  15.692  0.00  0.00    +0.000 S 
ATOM      6  C   UNL     1       3.504   7.213  17.622  0.00  0.00    +0.000 C 
ATOM      7  O   UNL     1       3.363   8.314  17.111  0.00  0.00    +0.000 OA
ATOM      8  C   UNL     1       2.766   6.824  18.870  0.00  0.00    +0.000 A 
ATOM      9  C   UNL     1       1.894   7.707  19.536  0.00  0.00    +0.000 A 
ATOM     10 CL   UNL     1       1.543   9.321  19.021  0.00  0.00    +0.000 Cl
ATOM     11  C   UNL     1       1.236   7.305  20.707  0.00  0.00    +0.000 A 
ATOM     12  C   UNL     1       1.430   6.032  21.233  0.00  0.00    +0.000 A 
ATOM     13  C   UNL     1       2.284   5.144  20.586  0.00  0.00    +0.000 A 
ATOM     14  C   UNL     1       2.950   5.528  19.409  0.00  0.00    +0.000 A 
ATOM     15  C   UNL     1       3.847   4.515  18.770  0.00  0.00    +0.000 C 
ATOM     16  O   UNL     1       3.968   3.393  19.243  0.00  0.00    +0.000 OA
ENDROOT
BRANCH   1  18
ATOM     17  O   UNL     1       7.767   5.282  14.211  0.00  0.00    +0.000 OA
ATOM     18  C   UNL     1       6.941   4.529  14.721  0.00  0.00    +0.000 C 
ENDBRANCH   1  18
TORSDOF 1
ENDMDL
MODEL 7
REMARK VINA RESULT:      -6.1      2.893      4.832
REMARK  Name = 
REMARK  1 active torsions:
REMARK  status: ('A' for Active; 'I' for Inactive)
REMARK    1  A    between atoms: C_2  and  C_3
REMARK                            x       y       z     vdW  Elec       q    Type
REMARK                         _______ _______ _______ _____ _____    ______ ____
ROOT
ATOM      1  C   UNL     1       3.944   3.278  19.433  0.00  0.00    +0.000 A 
ATOM      2  C   UNL     1       4.258   4.232  18.484  0.00  0.00    +0.000 A 
ATOM      3  C   UNL     1       3.542   5.454  18.689  0.00  0.00    +0.000 A 
ATOM      4  C   UNL     1       2.738   5.381  19.801  0.00  0.00    +0.000 A 
ATOM      5  S   UNL     1       2.813   3.864  20.568  0.00  0.00    +0.000 S 
ATOM      6  C   UNL     1       1.899   6.446  20.304  0.00  0.00    +0.000 C 
ATOM      7  O   UNL     1       1.228   6.335  21.320  0.00  0.00    +0.000 OA
ATOM      8  C   UNL     1       1.901   7.712  19.496  0.00  0.00    +0.000 A 
ATOM      9  C   UNL     1       1.116   8.828  19.843  0.00  0.00    +0.000 A 
ATOM     10 CL   UNL     1       0.072   8.910  21.221  0.00  0.00    +0.000 Cl
ATOM     11  C   UNL     1       1.140   9.985  19.051  0.00  0.00    +0.000 A 
ATOM     12  C   UNL     1       1.934  10.053  17.912  0.00  0.00    +0.000 A 
ATOM     13  C   UNL     1       2.721   8.962  17.556  0.00  0.00    +0.000 A 
ATOM     14  C   UNL     1       2.713   7.795  18.339  0.00  0.00    +0.000 A 
ATOM     15  C   UNL     1       3.590   6.667  17.894  0.00  0.00    +0.000 C 
ATOM     16  O   UNL     1       4.301   6.775  16.904  0.00  0.00    +0.000 OA
ENDROOT
BRANCH   1  18
ATOM     17  O   UNL     1       5.157   1.527  20.472  0.00  0.00    +0.000 OA
ATOM     18  C   UNL     1       4.438   1.926  19.559  0.00  0.00    +0.000 C 
ENDBRANCH   1  18
TORSDOF 1
ENDMDL
MODEL 8
REMARK VINA RESULT:      -6.0      2.864      5.703
REMARK  Name = 
REMARK  1 active torsions:
REMARK  status: ('A' for Active; 'I' for Inactive)
REMARK    1  A    between atoms: C_2  and  C_3
REMARK                            x       y       z     vdW  Elec       q    Type
REMARK                         _______ _______ _______ _____ _____    ______ ____
ROOT
ATOM      1  C   UNL     1       1.977   3.208  20.346  0.00  0.00    +0.000 A 
ATOM      2  C   UNL     1       1.991   2.954  18.987  0.00  0.00    +0.000 A 
ATOM      3  C   UNL     1       3.120   3.549  18.338  0.00  0.00    +0.000 A 
ATOM      4  C   UNL     1       3.926   4.204  19.238  0.00  0.00    +0.000 A 
ATOM      5  S   UNL     1       3.325   4.136  20.829  0.00  0.00    +0.000 S 
ATOM      6  C   UNL     1       5.157   4.891  18.920  0.00  0.00    +0.000 C 
ATOM      7  O   UNL     1       5.852   5.430  19.769  0.00  0.00    +0.000 OA
ATOM      8  C   UNL     1       5.537   4.905  17.468  0.00  0.00    +0.000 A 
ATOM      9  C   UNL     1       6.693   5.558  16.998  0.00  0.00    +0.000 A 
ATOM     10 CL   UNL     1       7.824   6.403  17.998  0.00  0.00    +0.000 Cl
ATOM     11  C   UNL     1       7.002   5.556  15.630  0.00  0.00    +0.000 A 
ATOM     12  C   UNL     1       6.175   4.915  14.713  0.00  0.00    +0.000 A 
ATOM     13  C   UNL     1       5.031   4.261  15.159  0.00  0.00    +0.000 A 
ATOM     14  C   UNL     1       4.707   4.249  16.527  0.00  0.00    +0.000 A 
ATOM     15  C   UNL     1       3.464   3.520  16.928  0.00  0.00    +0.000 C 
ATOM     16  O   UNL     1       2.778   2.939  16.098  0.00  0.00    +0.000 OA
ENDROOT
BRANCH   1  18
ATOM     17  O   UNL     1       1.284   2.434  22.475  0.00  0.00    +0.000 OA
ATOM     18  C   UNL     1       1.007   2.799  21.335  0.00  0.00    +0.000 C 
ENDBRANCH   1  18
TORSDOF 1
ENDMDL
MODEL 9
REMARK VINA RESULT:      -6.0      2.948      4.832
REMARK  Name = 
REMARK  1 active torsions:
REMARK  status: ('A' for Active; 'I' for Inactive)
REMARK    1  A    between atoms: C_2  and  C_3
REMARK                            x       y       z     vdW  Elec       q    Type
REMARK                         _______ _______ _______ _____ _____    ______ ____
ROOT
ATOM      1  C   UNL     1       2.069   9.324  18.463  0.00  0.00    +0.000 A 
ATOM      2  C   UNL     1       2.860   8.509  17.677  0.00  0.00    +0.000 A 
ATOM      3  C   UNL     1       2.966   7.183  18.207  0.00  0.00    +0.000 A 
ATOM      4  C   UNL     1       2.227   7.046  19.358  0.00  0.00    +0.000 A 
ATOM      5  S   UNL     1       1.446   8.487  19.813  0.00  0.00    +0.000 S 
ATOM      6  C   UNL     1       2.096   5.833  20.133  0.00  0.00    +0.000 C 
ATOM      7  O   UNL     1       1.397   5.760  21.133  0.00  0.00    +0.000 OA
ATOM      8  C   UNL     1       2.880   4.654  19.633  0.00  0.00    +0.000 A 
ATOM      9  C   UNL     1       2.876   3.411  20.296  0.00  0.00    +0.000 A 
ATOM     10 CL   UNL     1       1.982   3.064  21.736  0.00  0.00    +0.000 Cl
ATOM     11  C   UNL     1       3.634   2.341  19.800  0.00  0.00    +0.000 A 
ATOM     12  C   UNL     1       4.402   2.484  18.649  0.00  0.00    +0.000 A 
ATOM     13  C   UNL     1       4.415   3.703  17.978  0.00  0.00    +0.000 A 
ATOM     14  C   UNL     1       3.658   4.787  18.459  0.00  0.00    +0.000 A 
ATOM     15  C   UNL     1       3.720   6.062  17.679  0.00  0.00    +0.000 C 
ATOM     16  O   UNL     1       4.381   6.141  16.652  0.00  0.00    +0.000 OA
ENDROOT
BRANCH   1  18
ATOM     17  O   UNL     1       2.523  11.580  17.898  0.00  0.00    +0.000 OA
ATOM     18  C   UNL     1       1.734  10.717  18.277  0.00  0.00    +0.000 C 
ENDBRANCH   1  18
TORSDOF 1
ENDMDL
