MODEL 1
REMARK VINA RESULT:      -7.3      0.000      0.000
REMARK  Name = 
REMARK  11 active torsions:
REMARK  status: ('A' for Active; 'I' for Inactive)
REMARK    1  A    between atoms: N_1  and  N_2
REMARK    2  A    between atoms: C_3  and  S_4
REMARK    3  A    between atoms: S_4  and  C_5
REMARK    4  A    between atoms: C_5  and  C_6
REMARK    5  A    between atoms: C_6  and  C_7
REMARK    6  A    between atoms: C_7  and  C_8
REMARK    7  A    between atoms: C_8  and  S_9
REMARK    8  A    between atoms: S_9  and  C_10
REMARK    9  A    between atoms: C_13  and  C_14
REMARK   10  A    between atoms: N_20  and  N_21
REMARK   11  A    between atoms: C_24  and  C_25
REMARK                            x       y       z     vdW  Elec       q    Type
REMARK                         _______ _______ _______ _____ _____    ______ ____
ROOT
ATOM      1  C   UNL     1       1.940   3.589  20.639  0.00  0.00    +0.000 C 
ENDROOT
BRANCH   1   2
ATOM      2  C   UNL     1       1.530   5.063  20.803  0.00  0.00    +0.000 C 
BRANCH   2   3
ATOM      3  S   UNL     1       2.455   6.151  19.647  0.00  0.00    +0.000 S 
BRANCH   3   5
ATOM      4  N   UNL     1       1.594   8.716  19.088  0.00  0.00    +0.000 N 
ATOM      5  C   UNL     1       1.770   7.707  20.014  0.00  0.00    +0.000 A 
ATOM      6  N   UNL     1       1.373   8.122  21.193  0.00  0.00    +0.000 NA
ATOM      7  N   UNL     1       0.917   9.415  21.053  0.00  0.00    +0.000 NA
ATOM      8  C   UNL     1       1.015   9.768  19.780  0.00  0.00    +0.000 A 
BRANCH   8   9
ATOM      9  C   UNL     1       0.663  11.074  19.222  0.00  0.00    +0.000 A 
ATOM     10  C   UNL     1       1.543  12.164  19.186  0.00  0.00    +0.000 A 
ATOM     11  C   UNL     1       1.119  13.399  18.694  0.00  0.00    +0.000 A 
ATOM     12  C   UNL     1      -0.177  13.502  18.228  0.00  0.00    +0.000 A 
ATOM     13  N   UNL     1      -1.051  12.476  18.214  0.00  0.00    +0.000 NA
ATOM     14  C   UNL     1      -0.608  11.289  18.703  0.00  0.00    +0.000 A 
ENDBRANCH   8   9
BRANCH   4  15
ATOM     15  N   UNL     1       2.000   8.742  17.698  0.00  0.00    +0.000 N 
ATOM     16  H   UNL     1       1.449   8.083  17.150  0.00  0.00    +0.000 HD
ATOM     17  H   UNL     1       2.964   8.420  17.609  0.00  0.00    +0.000 HD
ENDBRANCH   4  15
ENDBRANCH   3   5
ENDBRANCH   2   3
ENDBRANCH   1   2
BRANCH   1  18
ATOM     18  C   UNL     1       0.907   2.785  19.820  0.00  0.00    +0.000 C 
BRANCH  18  19
ATOM     19  C   UNL     1       1.430   2.425  18.418  0.00  0.00    +0.000 C 
BRANCH  19  20
ATOM     20  S   UNL     1       3.178   1.864  18.481  0.00  0.00    +0.000 S 
BRANCH  20  21
ATOM     21  C   UNL     1       4.006   3.227  17.787  0.00  0.00    +0.000 A 
ATOM     22  N   UNL     1       3.792   3.737  16.596  0.00  0.00    +0.000 NA
ATOM     23  N   UNL     1       4.636   4.813  16.441  0.00  0.00    +0.000 NA
ATOM     24  C   UNL     1       5.382   4.935  17.530  0.00  0.00    +0.000 A 
ATOM     25  N   UNL     1       4.977   3.963  18.436  0.00  0.00    +0.000 N 
BRANCH  24  26
ATOM     26  C   UNL     1       6.397   5.970  17.749  0.00  0.00    +0.000 A 
ATOM     27  C   UNL     1       7.464   5.830  18.644  0.00  0.00    +0.000 A 
ATOM     28  C   UNL     1       8.354   6.878  18.852  0.00  0.00    +0.000 A 
ATOM     29  C   UNL     1       8.172   8.049  18.123  0.00  0.00    +0.000 A 
ATOM     30  N   UNL     1       7.188   8.219  17.223  0.00  0.00    +0.000 NA
ATOM     31  C   UNL     1       6.328   7.173  17.053  0.00  0.00    +0.000 A 
ENDBRANCH  24  26
BRANCH  25  32
ATOM     32  N   UNL     1       5.428   3.816  19.805  0.00  0.00    +0.000 N 
ATOM     33  H   UNL     1       5.755   2.870  19.990  0.00  0.00    +0.000 HD
ATOM     34  H   UNL     1       6.247   4.402  19.968  0.00  0.00    +0.000 HD
ENDBRANCH  25  32
ENDBRANCH  20  21
ENDBRANCH  19  20
ENDBRANCH  18  19
ENDBRANCH   1  18
TORSDOF 11
ENDMDL
MODEL 2
REMARK VINA RESULT:      -7.2      0.635      7.232
REMARK  Name = 
REMARK  11 active torsions:
REMARK  status: ('A' for Active; 'I' for Inactive)
REMARK    1  A    between atoms: N_1  and  N_2
REMARK    2  A    between atoms: C_3  and  S_4
REMARK    3  A    between atoms: S_4  and  C_5
REMARK    4  A    between atoms: C_5  and  C_6
REMARK    5  A    between atoms: C_6  and  C_7
REMARK    6  A    between atoms: C_7  and  C_8
REMARK    7  A    between atoms: C_8  and  S_9
REMARK    8  A    between atoms: S_9  and  C_10
REMARK    9  A    between atoms: C_13  and  C_14
REMARK   10  A    between atoms: N_20  and  N_21
REMARK   11  A    between atoms: C_24  and  C_25
REMARK                            x       y       z     vdW  Elec       q    Type
REMARK                         _______ _______ _______ _____ _____    ______ ____
ROOT
ATOM      1  C   UNL     1       1.337   2.681  20.185  0.00  0.00    +0.000 C 
ENDROOT
BRANCH   1   2
ATOM      2  C   UNL     1       1.589   2.517  18.675  0.00  0.00    +0.000 C 
BRANCH   2   3
ATOM      3  S   UNL     1       3.254   1.814  18.344  0.00  0.00    +0.000 S 
BRANCH   3   5
ATOM      4  N   UNL     1       5.037   3.923  18.319  0.00  0.00    +0.000 N 
ATOM      5  C   UNL     1       4.077   3.183  17.658  0.00  0.00    +0.000 A 
ATOM      6  N   UNL     1       3.874   3.695  16.467  0.00  0.00    +0.000 NA
ATOM      7  N   UNL     1       4.713   4.779  16.326  0.00  0.00    +0.000 NA
ATOM      8  C   UNL     1       5.442   4.902  17.425  0.00  0.00    +0.000 A 
BRANCH   8   9
ATOM      9  C   UNL     1       6.432   5.948  17.685  0.00  0.00    +0.000 A 
ATOM     10  C   UNL     1       7.502   5.796  18.576  0.00  0.00    +0.000 A 
ATOM     11  C   UNL     1       8.375   6.858  18.821  0.00  0.00    +0.000 A 
ATOM     12  C   UNL     1       8.161   8.043  18.144  0.00  0.00    +0.000 A 
ATOM     13  N   UNL     1       7.164   8.228  17.255  0.00  0.00    +0.000 NA
ATOM     14  C   UNL     1       6.332   7.176  17.043  0.00  0.00    +0.000 A 
ENDBRANCH   8   9
BRANCH   4  15
ATOM     15  N   UNL     1       5.488   3.793  19.689  0.00  0.00    +0.000 N 
ATOM     16  H   UNL     1       5.322   2.849  20.034  0.00  0.00    +0.000 HD
ATOM     17  H   UNL     1       4.935   4.398  20.297  0.00  0.00    +0.000 HD
ENDBRANCH   4  15
ENDBRANCH   3   5
ENDBRANCH   2   3
ENDBRANCH   1   2
BRANCH   1  18
ATOM     18  C   UNL     1       1.004   4.141  20.563  0.00  0.00    +0.000 C 
BRANCH  18  19
ATOM     19  C   UNL     1       2.269   5.001  20.729  0.00  0.00    +0.000 C 
BRANCH  19  20
ATOM     20  S   UNL     1       2.515   6.112  19.287  0.00  0.00    +0.000 S 
BRANCH  20  21
ATOM     21  C   UNL     1       1.798   7.590  19.861  0.00  0.00    +0.000 A 
ATOM     22  N   UNL     1       1.437   7.845  21.098  0.00  0.00    +0.000 NA
ATOM     23  N   UNL     1       0.934   9.126  21.133  0.00  0.00    +0.000 NA
ATOM     24  C   UNL     1       0.964   9.634  19.910  0.00  0.00    +0.000 A 
ATOM     25  N   UNL     1       1.553   8.696  19.072  0.00  0.00    +0.000 N 
BRANCH  24  26
ATOM     26  C   UNL     1       0.520  10.982  19.542  0.00  0.00    +0.000 A 
ATOM     27  C   UNL     1      -0.801  11.425  19.676  0.00  0.00    +0.000 A 
ATOM     28  C   UNL     1      -1.167  12.695  19.246  0.00  0.00    +0.000 A 
ATOM     29  C   UNL     1      -0.180  13.518  18.713  0.00  0.00    +0.000 A 
ATOM     30  N   UNL     1       1.109  13.157  18.600  0.00  0.00    +0.000 NA
ATOM     31  C   UNL     1       1.430  11.899  19.023  0.00  0.00    +0.000 A 
ENDBRANCH  24  26
BRANCH  25  32
ATOM     32  N   UNL     1       1.909   8.883  17.680  0.00  0.00    +0.000 N 
ATOM     33  H   UNL     1       2.694   8.291  17.414  0.00  0.00    +0.000 HD
ATOM     34  H   UNL     1       1.145   8.573  17.079  0.00  0.00    +0.000 HD
ENDBRANCH  25  32
ENDBRANCH  20  21
ENDBRANCH  19  20
ENDBRANCH  18  19
ENDBRANCH   1  18
TORSDOF 11
ENDMDL
MODEL 3
REMARK VINA RESULT:      -7.1      3.196      9.332
REMARK  Name = 
REMARK  11 active torsions:
REMARK  status: ('A' for Active; 'I' for Inactive)
REMARK    1  A    between atoms: N_1  and  N_2
REMARK    2  A    between atoms: C_3  and  S_4
REMARK    3  A    between atoms: S_4  and  C_5
REMARK    4  A    between atoms: C_5  and  C_6
REMARK    5  A    between atoms: C_6  and  C_7
REMARK    6  A    between atoms: C_7  and  C_8
REMARK    7  A    between atoms: C_8  and  S_9
REMARK    8  A    between atoms: S_9  and  C_10
REMARK    9  A    between atoms: C_13  and  C_14
REMARK   10  A    between atoms: N_20  and  N_21
REMARK   11  A    between atoms: C_24  and  C_25
REMARK                            x       y       z     vdW  Elec       q    Type
REMARK                         _______ _______ _______ _____ _____    ______ ____
ROOT
ATOM      1  C   UNL     1       1.304   5.138  20.514  0.00  0.00    +0.000 C 
ENDROOT
BRANCH   1   2
ATOM      2  C   UNL     1       2.190   4.111  21.242  0.00  0.00    +0.000 C 
BRANCH   2   3
ATOM      3  S   UNL     1       2.240   2.510  20.343  0.00  0.00    +0.000 S 
BRANCH   3   5
ATOM      4  N   UNL     1       4.012   3.328  18.388  0.00  0.00    +0.000 N 
ATOM      5  C   UNL     1       2.716   3.021  18.751  0.00  0.00    +0.000 A 
ATOM      6  N   UNL     1       1.919   3.207  17.725  0.00  0.00    +0.000 NA
ATOM      7  N   UNL     1       2.690   3.631  16.664  0.00  0.00    +0.000 NA
ATOM      8  C   UNL     1       3.957   3.673  17.047  0.00  0.00    +0.000 A 
BRANCH   8   9
ATOM      9  C   UNL     1       5.088   4.102  16.223  0.00  0.00    +0.000 A 
ATOM     10  C   UNL     1       5.153   3.908  14.837  0.00  0.00    +0.000 A 
ATOM     11  C   UNL     1       6.291   4.289  14.122  0.00  0.00    +0.000 A 
ATOM     12  C   UNL     1       7.329   4.877  14.819  0.00  0.00    +0.000 A 
ATOM     13  N   UNL     1       7.301   5.111  16.146  0.00  0.00    +0.000 NA
ATOM     14  C   UNL     1       6.181   4.726  16.812  0.00  0.00    +0.000 A 
ENDBRANCH   8   9
BRANCH   4  15
ATOM     15  N   UNL     1       5.192   3.380  19.225  0.00  0.00    +0.000 N 
ATOM     16  H   UNL     1       6.037   3.311  18.661  0.00  0.00    +0.000 HD
ATOM     17  H   UNL     1       5.219   2.567  19.842  0.00  0.00    +0.000 HD
ENDBRANCH   4  15
ENDBRANCH   3   5
ENDBRANCH   2   3
ENDBRANCH   1   2
BRANCH   1  18
ATOM     18  C   UNL     1       2.116   6.350  20.007  0.00  0.00    +0.000 C 
BRANCH  18  19
ATOM     19  C   UNL     1       1.973   7.572  20.930  0.00  0.00    +0.000 C 
BRANCH  19  20
ATOM     20  S   UNL     1       1.040   8.925  20.108  0.00  0.00    +0.000 S 
BRANCH  20  21
ATOM     21  C   UNL     1       0.305   9.718  21.472  0.00  0.00    +0.000 A 
ATOM     22  N   UNL     1       0.391   9.338  22.726  0.00  0.00    +0.000 NA
ATOM     23  N   UNL     1      -0.312  10.243  23.488  0.00  0.00    +0.000 NA
ATOM     24  C   UNL     1      -0.848  11.155  22.690  0.00  0.00    +0.000 A 
ATOM     25  N   UNL     1      -0.439  10.878  21.391  0.00  0.00    +0.000 N 
BRANCH  24  26
ATOM     26  C   UNL     1      -1.662  12.292  23.129  0.00  0.00    +0.000 A 
ATOM     27  C   UNL     1      -1.184  13.606  23.199  0.00  0.00    +0.000 A 
ATOM     28  C   UNL     1      -1.992  14.626  23.688  0.00  0.00    +0.000 A 
ATOM     29  C   UNL     1      -3.291  14.309  24.070  0.00  0.00    +0.000 A 
ATOM     30  N   UNL     1      -3.812  13.073  23.985  0.00  0.00    +0.000 NA
ATOM     31  C   UNL     1      -2.987  12.094  23.510  0.00  0.00    +0.000 A 
ENDBRANCH  24  26
BRANCH  25  32
ATOM     32  N   UNL     1      -0.677  11.694  20.217  0.00  0.00    +0.000 N 
ATOM     33  H   UNL     1       0.141  11.723  19.613  0.00  0.00    +0.000 HD
ATOM     34  H   UNL     1      -1.403  11.269  19.640  0.00  0.00    +0.000 HD
ENDBRANCH  25  32
ENDBRANCH  20  21
ENDBRANCH  19  20
ENDBRANCH  18  19
ENDBRANCH   1  18
TORSDOF 11
ENDMDL
MODEL 4
REMARK VINA RESULT:      -6.9      1.799      2.446
REMARK  Name = 
REMARK  11 active torsions:
REMARK  status: ('A' for Active; 'I' for Inactive)
REMARK    1  A    between atoms: N_1  and  N_2
REMARK    2  A    between atoms: C_3  and  S_4
REMARK    3  A    between atoms: S_4  and  C_5
REMARK    4  A    between atoms: C_5  and  C_6
REMARK    5  A    between atoms: C_6  and  C_7
REMARK    6  A    between atoms: C_7  and  C_8
REMARK    7  A    between atoms: C_8  and  S_9
REMARK    8  A    between atoms: S_9  and  C_10
REMARK    9  A    between atoms: C_13  and  C_14
REMARK   10  A    between atoms: N_20  and  N_21
REMARK   11  A    between atoms: C_24  and  C_25
REMARK                            x       y       z     vdW  Elec       q    Type
REMARK                         _______ _______ _______ _____ _____    ______ ____
ROOT
ATOM      1  C   UNL     1       1.848   5.342  20.634  0.00  0.00    +0.000 C 
ENDROOT
BRANCH   1   2
ATOM      2  C   UNL     1       3.038   6.006  19.918  0.00  0.00    +0.000 C 
BRANCH   2   3
ATOM      3  S   UNL     1       2.473   7.205  18.645  0.00  0.00    +0.000 S 
BRANCH   3   5
ATOM      4  N   UNL     1       1.141   9.575  19.135  0.00  0.00    +0.000 N 
ATOM      5  C   UNL     1       1.684   8.404  19.626  0.00  0.00    +0.000 A 
ATOM      6  N   UNL     1       1.536   8.367  20.929  0.00  0.00    +0.000 NA
ATOM      7  N   UNL     1       0.878   9.516  21.312  0.00  0.00    +0.000 NA
ATOM      8  C   UNL     1       0.606  10.232  20.231  0.00  0.00    +0.000 A 
BRANCH   8   9
ATOM      9  C   UNL     1      -0.058  11.537  20.212  0.00  0.00    +0.000 A 
ATOM     10  C   UNL     1      -1.441  11.699  20.059  0.00  0.00    +0.000 A 
ATOM     11  C   UNL     1      -1.999  12.976  19.989  0.00  0.00    +0.000 A 
ATOM     12  C   UNL     1      -1.152  14.063  20.097  0.00  0.00    +0.000 A 
ATOM     13  N   UNL     1       0.180  13.957  20.275  0.00  0.00    +0.000 NA
ATOM     14  C   UNL     1       0.692  12.701  20.336  0.00  0.00    +0.000 A 
ENDBRANCH   8   9
BRANCH   4  15
ATOM     15  N   UNL     1       1.181  10.086  17.781  0.00  0.00    +0.000 N 
ATOM     16  H   UNL     1       1.193   9.322  17.108  0.00  0.00    +0.000 HD
ATOM     17  H   UNL     1       2.055  10.591  17.625  0.00  0.00    +0.000 HD
ENDBRANCH   4  15
ENDBRANCH   3   5
ENDBRANCH   2   3
ENDBRANCH   1   2
BRANCH   1  18
ATOM     18  C   UNL     1       2.253   4.030  21.341  0.00  0.00    +0.000 C 
BRANCH  18  19
ATOM     19  C   UNL     1       1.249   2.894  21.077  0.00  0.00    +0.000 C 
BRANCH  19  20
ATOM     20  S   UNL     1       1.991   1.579  20.029  0.00  0.00    +0.000 S 
BRANCH  20  21
ATOM     21  C   UNL     1       2.522   2.494  18.647  0.00  0.00    +0.000 A 
ATOM     22  N   UNL     1       1.754   2.974  17.697  0.00  0.00    +0.000 NA
ATOM     23  N   UNL     1       2.558   3.649  16.807  0.00  0.00    +0.000 NA
ATOM     24  C   UNL     1       3.818   3.552  17.206  0.00  0.00    +0.000 A 
ATOM     25  N   UNL     1       3.832   2.856  18.408  0.00  0.00    +0.000 N 
BRANCH  24  26
ATOM     26  C   UNL     1       4.971   4.148  16.524  0.00  0.00    +0.000 A 
ATOM     27  C   UNL     1       5.339   3.836  15.210  0.00  0.00    +0.000 A 
ATOM     28  C   UNL     1       6.484   4.389  14.647  0.00  0.00    +0.000 A 
ATOM     29  C   UNL     1       7.226   5.282  15.412  0.00  0.00    +0.000 A 
ATOM     30  N   UNL     1       6.894   5.646  16.663  0.00  0.00    +0.000 NA
ATOM     31  C   UNL     1       5.770   5.075  17.187  0.00  0.00    +0.000 A 
ENDBRANCH  24  26
BRANCH  25  32
ATOM     32  N   UNL     1       4.979   2.636  19.266  0.00  0.00    +0.000 N 
ATOM     33  H   UNL     1       4.788   1.922  19.967  0.00  0.00    +0.000 HD
ATOM     34  H   UNL     1       5.754   2.255  18.722  0.00  0.00    +0.000 HD
ENDBRANCH  25  32
ENDBRANCH  20  21
ENDBRANCH  19  20
ENDBRANCH  18  19
ENDBRANCH   1  18
TORSDOF 11
ENDMDL
MODEL 5
REMARK VINA RESULT:      -6.9      4.713      9.412
REMARK  Name = 
REMARK  11 active torsions:
REMARK  status: ('A' for Active; 'I' for Inactive)
REMARK    1  A    between atoms: N_1  and  N_2
REMARK    2  A    between atoms: C_3  and  S_4
REMARK    3  A    between atoms: S_4  and  C_5
REMARK    4  A    between atoms: C_5  and  C_6
REMARK    5  A    between atoms: C_6  and  C_7
REMARK    6  A    between atoms: C_7  and  C_8
REMARK    7  A    between atoms: C_8  and  S_9
REMARK    8  A    between atoms: S_9  and  C_10
REMARK    9  A    between atoms: C_13  and  C_14
REMARK   10  A    between atoms: N_20  and  N_21
REMARK   11  A    between atoms: C_24  and  C_25
REMARK                            x       y       z     vdW  Elec       q    Type
REMARK                         _______ _______ _______ _____ _____    ______ ____
ROOT
ATOM      1  C   UNL     1       8.611   9.813  18.269  0.00  0.00    +0.000 C 
ENDROOT
BRANCH   1   2
ATOM      2  C   UNL     1       8.393   8.311  18.526  0.00  0.00    +0.000 C 
BRANCH   2   3
ATOM      3  S   UNL     1       7.480   7.518  17.143  0.00  0.00    +0.000 S 
BRANCH   3   5
ATOM      4  N   UNL     1       5.238   6.010  17.720  0.00  0.00    +0.000 N 
ATOM      5  C   UNL     1       6.561   6.306  17.985  0.00  0.00    +0.000 A 
ATOM      6  N   UNL     1       6.985   5.559  18.977  0.00  0.00    +0.000 NA
ATOM      7  N   UNL     1       5.942   4.749  19.370  0.00  0.00    +0.000 NA
ATOM      8  C   UNL     1       4.897   4.991  18.594  0.00  0.00    +0.000 A 
BRANCH   8   9
ATOM      9  C   UNL     1       3.581   4.359  18.706  0.00  0.00    +0.000 A 
ATOM     10  C   UNL     1       2.705   4.579  19.777  0.00  0.00    +0.000 A 
ATOM     11  C   UNL     1       1.491   3.895  19.849  0.00  0.00    +0.000 A 
ATOM     12  C   UNL     1       1.176   3.020  18.827  0.00  0.00    +0.000 A 
ATOM     13  N   UNL     1       1.972   2.797  17.762  0.00  0.00    +0.000 NA
ATOM     14  C   UNL     1       3.147   3.476  17.724  0.00  0.00    +0.000 A 
ENDBRANCH   8   9
BRANCH   4  15
ATOM     15  N   UNL     1       4.338   6.665  16.795  0.00  0.00    +0.000 N 
ATOM     16  H   UNL     1       3.872   7.452  17.243  0.00  0.00    +0.000 HD
ATOM     17  H   UNL     1       3.586   6.028  16.528  0.00  0.00    +0.000 HD
ENDBRANCH   4  15
ENDBRANCH   3   5
ENDBRANCH   2   3
ENDBRANCH   1   2
BRANCH   1  18
ATOM     18  C   UNL     1       9.399  10.490  19.411  0.00  0.00    +0.000 C 
BRANCH  18  19
ATOM     19  C   UNL     1      10.766  11.018  18.941  0.00  0.00    +0.000 C 
BRANCH  19  20
ATOM     20  S   UNL     1      10.573  12.355  17.696  0.00  0.00    +0.000 S 
BRANCH  20  21
ATOM     21  C   UNL     1       9.686  13.547  18.602  0.00  0.00    +0.000 A 
ATOM     22  N   UNL     1      10.155  14.270  19.593  0.00  0.00    +0.000 NA
ATOM     23  N   UNL     1       9.144  15.101  20.020  0.00  0.00    +0.000 NA
ATOM     24  C   UNL     1       8.055  14.860  19.304  0.00  0.00    +0.000 A 
ATOM     25  N   UNL     1       8.375  13.899  18.353  0.00  0.00    +0.000 N 
BRANCH  24  26
ATOM     26  C   UNL     1       6.772  15.551  19.456  0.00  0.00    +0.000 A 
ATOM     27  C   UNL     1       5.696  15.035  20.189  0.00  0.00    +0.000 A 
ATOM     28  C   UNL     1       4.484  15.713  20.237  0.00  0.00    +0.000 A 
ATOM     29  C   UNL     1       4.384  16.928  19.566  0.00  0.00    +0.000 A 
ATOM     30  N   UNL     1       5.397  17.486  18.883  0.00  0.00    +0.000 NA
ATOM     31  C   UNL     1       6.569  16.787  18.849  0.00  0.00    +0.000 A 
ENDBRANCH  24  26
BRANCH  25  32
ATOM     32  N   UNL     1       7.526  13.435  17.275  0.00  0.00    +0.000 N 
ATOM     33  H   UNL     1       6.541  13.588  17.485  0.00  0.00    +0.000 HD
ATOM     34  H   UNL     1       7.694  13.989  16.435  0.00  0.00    +0.000 HD
ENDBRANCH  25  32
ENDBRANCH  20  21
ENDBRANCH  19  20
ENDBRANCH  18  19
ENDBRANCH   1  18
TORSDOF 11
ENDMDL
MODEL 6
REMARK VINA RESULT:      -6.9      2.067      8.162
REMARK  Name = 
REMARK  11 active torsions:
REMARK  status: ('A' for Active; 'I' for Inactive)
REMARK    1  A    between atoms: N_1  and  N_2
REMARK    2  A    between atoms: C_3  and  S_4
REMARK    3  A    between atoms: S_4  and  C_5
REMARK    4  A    between atoms: C_5  and  C_6
REMARK    5  A    between atoms: C_6  and  C_7
REMARK    6  A    between atoms: C_7  and  C_8
REMARK    7  A    between atoms: C_8  and  S_9
REMARK    8  A    between atoms: S_9  and  C_10
REMARK    9  A    between atoms: C_13  and  C_14
REMARK   10  A    between atoms: N_20  and  N_21
REMARK   11  A    between atoms: C_24  and  C_25
REMARK                            x       y       z     vdW  Elec       q    Type
REMARK                         _______ _______ _______ _____ _____    ______ ____
ROOT
ATOM      1  C   UNL     1       2.189   4.367  21.250  0.00  0.00    +0.000 C 
ENDROOT
BRANCH   1   2
ATOM      2  C   UNL     1       1.298   3.118  21.126  0.00  0.00    +0.000 C 
BRANCH   2   3
ATOM      3  S   UNL     1       2.145   1.776  20.201  0.00  0.00    +0.000 S 
BRANCH   3   5
ATOM      4  N   UNL     1       3.826   3.036  18.406  0.00  0.00    +0.000 N 
ATOM      5  C   UNL     1       2.559   2.586  18.718  0.00  0.00    +0.000 A 
ATOM      6  N   UNL     1       1.733   2.894  17.746  0.00  0.00    +0.000 NA
ATOM      7  N   UNL     1       2.457   3.545  16.770  0.00  0.00    +0.000 NA
ATOM      8  C   UNL     1       3.725   3.603  17.146  0.00  0.00    +0.000 A 
BRANCH   8   9
ATOM      9  C   UNL     1       4.812   4.242  16.401  0.00  0.00    +0.000 A 
ATOM     10  C   UNL     1       5.630   3.562  15.490  0.00  0.00    +0.000 A 
ATOM     11  C   UNL     1       6.687   4.221  14.860  0.00  0.00    +0.000 A 
ATOM     12  C   UNL     1       6.881   5.558  15.147  0.00  0.00    +0.000 A 
ATOM     13  N   UNL     1       6.103   6.263  15.993  0.00  0.00    +0.000 NA
ATOM     14  C   UNL     1       5.086   5.591  16.591  0.00  0.00    +0.000 A 
ENDBRANCH   8   9
BRANCH   4  15
ATOM     15  N   UNL     1       5.015   3.020  19.231  0.00  0.00    +0.000 N 
ATOM     16  H   UNL     1       5.806   3.423  18.732  0.00  0.00    +0.000 HD
ATOM     17  H   UNL     1       5.290   2.056  19.429  0.00  0.00    +0.000 HD
ENDBRANCH   4  15
ENDBRANCH   3   5
ENDBRANCH   2   3
ENDBRANCH   1   2
BRANCH   1  18
ATOM     18  C   UNL     1       1.724   5.508  20.318  0.00  0.00    +0.000 C 
BRANCH  18  19
ATOM     19  C   UNL     1       2.908   6.263  19.688  0.00  0.00    +0.000 C 
BRANCH  19  20
ATOM     20  S   UNL     1       2.329   7.657  18.641  0.00  0.00    +0.000 S 
BRANCH  20  21
ATOM     21  C   UNL     1       1.473   8.630  19.802  0.00  0.00    +0.000 A 
ATOM     22  N   UNL     1       1.514   8.492  21.107  0.00  0.00    +0.000 NA
ATOM     23  N   UNL     1       0.715   9.469  21.658  0.00  0.00    +0.000 NA
ATOM     24  C   UNL     1       0.169  10.180  20.683  0.00  0.00    +0.000 A 
ATOM     25  N   UNL     1       0.665   9.701  19.477  0.00  0.00    +0.000 N 
BRANCH  24  26
ATOM     26  C   UNL     1      -0.738  11.317  20.869  0.00  0.00    +0.000 A 
ATOM     27  C   UNL     1      -0.860  12.019  22.074  0.00  0.00    +0.000 A 
ATOM     28  C   UNL     1      -1.789  13.046  22.201  0.00  0.00    +0.000 A 
ATOM     29  C   UNL     1      -2.562  13.374  21.092  0.00  0.00    +0.000 A 
ATOM     30  N   UNL     1      -2.455  12.759  19.902  0.00  0.00    +0.000 NA
ATOM     31  C   UNL     1      -1.540  11.748  19.817  0.00  0.00    +0.000 A 
ENDBRANCH  24  26
BRANCH  25  32
ATOM     32  N   UNL     1       0.440  10.271  18.163  0.00  0.00    +0.000 N 
ATOM     33  H   UNL     1       0.324   9.545  17.458  0.00  0.00    +0.000 HD
ATOM     34  H   UNL     1      -0.444  10.780  18.150  0.00  0.00    +0.000 HD
ENDBRANCH  25  32
ENDBRANCH  20  21
ENDBRANCH  19  20
ENDBRANCH  18  19
ENDBRANCH   1  18
TORSDOF 11
ENDMDL
MODEL 7
REMARK VINA RESULT:      -6.8      4.671      7.323
REMARK  Name = 
REMARK  11 active torsions:
REMARK  status: ('A' for Active; 'I' for Inactive)
REMARK    1  A    between atoms: N_1  and  N_2
REMARK    2  A    between atoms: C_3  and  S_4
REMARK    3  A    between atoms: S_4  and  C_5
REMARK    4  A    between atoms: C_5  and  C_6
REMARK    5  A    between atoms: C_6  and  C_7
REMARK    6  A    between atoms: C_7  and  C_8
REMARK    7  A    between atoms: C_8  and  S_9
REMARK    8  A    between atoms: S_9  and  C_10
REMARK    9  A    between atoms: C_13  and  C_14
REMARK   10  A    between atoms: N_20  and  N_21
REMARK   11  A    between atoms: C_24  and  C_25
REMARK                            x       y       z     vdW  Elec       q    Type
REMARK                         _______ _______ _______ _____ _____    ______ ____
ROOT
ATOM      1  C   UNL     1       8.710  10.188  18.853  0.00  0.00    +0.000 C 
ENDROOT
BRANCH   1   2
ATOM      2  C   UNL     1      10.071  10.886  18.680  0.00  0.00    +0.000 C 
BRANCH   2   3
ATOM      3  S   UNL     1       9.899  12.482  17.788  0.00  0.00    +0.000 S 
BRANCH   3   5
ATOM      4  N   UNL     1       7.896  14.166  18.673  0.00  0.00    +0.000 N 
ATOM      5  C   UNL     1       9.036  13.439  18.955  0.00  0.00    +0.000 A 
ATOM      6  N   UNL     1       9.367  13.615  20.212  0.00  0.00    +0.000 NA
ATOM      7  N   UNL     1       8.434  14.457  20.779  0.00  0.00    +0.000 NA
ATOM      8  C   UNL     1       7.526  14.766  19.866  0.00  0.00    +0.000 A 
BRANCH   8   9
ATOM      9  C   UNL     1       6.384  15.661  20.061  0.00  0.00    +0.000 A 
ATOM     10  C   UNL     1       5.144  15.238  20.558  0.00  0.00    +0.000 A 
ATOM     11  C   UNL     1       4.080  16.135  20.661  0.00  0.00    +0.000 A 
ATOM     12  C   UNL     1       4.297  17.446  20.280  0.00  0.00    +0.000 A 
ATOM     13  N   UNL     1       5.479  17.907  19.825  0.00  0.00    +0.000 NA
ATOM     14  C   UNL     1       6.492  17.007  19.735  0.00  0.00    +0.000 A 
ENDBRANCH   8   9
BRANCH   4  15
ATOM     15  N   UNL     1       7.247  14.361  17.394  0.00  0.00    +0.000 N 
ATOM     16  H   UNL     1       6.589  13.606  17.206  0.00  0.00    +0.000 HD
ATOM     17  H   UNL     1       7.934  14.307  16.641  0.00  0.00    +0.000 HD
ENDBRANCH   4  15
ENDBRANCH   3   5
ENDBRANCH   2   3
ENDBRANCH   1   2
BRANCH   1  18
ATOM     18  C   UNL     1       8.776   8.687  18.495  0.00  0.00    +0.000 C 
BRANCH  18  19
ATOM     19  C   UNL     1       7.605   8.253  17.597  0.00  0.00    +0.000 C 
BRANCH  19  20
ATOM     20  S   UNL     1       7.413   6.425  17.587  0.00  0.00    +0.000 S 
BRANCH  20  21
ATOM     21  C   UNL     1       5.688   6.257  17.745  0.00  0.00    +0.000 A 
ATOM     22  N   UNL     1       4.786   7.107  17.315  0.00  0.00    +0.000 NA
ATOM     23  N   UNL     1       3.546   6.593  17.620  0.00  0.00    +0.000 NA
ATOM     24  C   UNL     1       3.701   5.444  18.261  0.00  0.00    +0.000 A 
ATOM     25  N   UNL     1       5.061   5.171  18.323  0.00  0.00    +0.000 N 
BRANCH  24  26
ATOM     26  C   UNL     1       2.612   4.590  18.744  0.00  0.00    +0.000 A 
ATOM     27  C   UNL     1       2.046   4.704  20.019  0.00  0.00    +0.000 A 
ATOM     28  C   UNL     1       1.060   3.817  20.436  0.00  0.00    +0.000 A 
ATOM     29  C   UNL     1       0.633   2.842  19.542  0.00  0.00    +0.000 A 
ATOM     30  N   UNL     1       1.114   2.715  18.293  0.00  0.00    +0.000 NA
ATOM     31  C   UNL     1       2.088   3.596  17.922  0.00  0.00    +0.000 A 
ENDBRANCH  24  26
BRANCH  25  32
ATOM     32  N   UNL     1       5.677   3.955  18.816  0.00  0.00    +0.000 N 
ATOM     33  H   UNL     1       5.054   3.450  19.443  0.00  0.00    +0.000 HD
ATOM     34  H   UNL     1       5.837   3.307  18.044  0.00  0.00    +0.000 HD
ENDBRANCH  25  32
ENDBRANCH  20  21
ENDBRANCH  19  20
ENDBRANCH  18  19
ENDBRANCH   1  18
TORSDOF 11
ENDMDL
MODEL 8
REMARK VINA RESULT:      -6.7      1.227      7.588
REMARK  Name = 
REMARK  11 active torsions:
REMARK  status: ('A' for Active; 'I' for Inactive)
REMARK    1  A    between atoms: N_1  and  N_2
REMARK    2  A    between atoms: C_3  and  S_4
REMARK    3  A    between atoms: S_4  and  C_5
REMARK    4  A    between atoms: C_5  and  C_6
REMARK    5  A    between atoms: C_6  and  C_7
REMARK    6  A    between atoms: C_7  and  C_8
REMARK    7  A    between atoms: C_8  and  S_9
REMARK    8  A    between atoms: S_9  and  C_10
REMARK    9  A    between atoms: C_13  and  C_14
REMARK   10  A    between atoms: N_20  and  N_21
REMARK   11  A    between atoms: C_24  and  C_25
REMARK                            x       y       z     vdW  Elec       q    Type
REMARK                         _______ _______ _______ _____ _____    ______ ____
ROOT
ATOM      1  C   UNL     1       1.564   3.039  21.464  0.00  0.00    +0.000 C 
ENDROOT
BRANCH   1   2
ATOM      2  C   UNL     1       0.959   2.519  20.147  0.00  0.00    +0.000 C 
BRANCH   2   3
ATOM      3  S   UNL     1       2.169   1.508  19.204  0.00  0.00    +0.000 S 
BRANCH   3   5
ATOM      4  N   UNL     1       4.110   3.270  18.333  0.00  0.00    +0.000 N 
ATOM      5  C   UNL     1       2.867   2.699  18.147  0.00  0.00    +0.000 A 
ATOM      6  N   UNL     1       2.302   3.219  17.083  0.00  0.00    +0.000 NA
ATOM      7  N   UNL     1       3.179   4.136  16.546  0.00  0.00    +0.000 NA
ATOM      8  C   UNL     1       4.285   4.147  17.275  0.00  0.00    +0.000 A 
BRANCH   8   9
ATOM      9  C   UNL     1       5.449   5.007  17.054  0.00  0.00    +0.000 A 
ATOM     10  C   UNL     1       5.690   6.184  17.774  0.00  0.00    +0.000 A 
ATOM     11  C   UNL     1       6.790   6.987  17.469  0.00  0.00    +0.000 A 
ATOM     12  C   UNL     1       7.635   6.574  16.457  0.00  0.00    +0.000 A 
ATOM     13  N   UNL     1       7.462   5.435  15.756  0.00  0.00    +0.000 NA
ATOM     14  C   UNL     1       6.381   4.678  16.077  0.00  0.00    +0.000 A 
ENDBRANCH   8   9
BRANCH   4  15
ATOM     15  N   UNL     1       5.028   3.086  19.437  0.00  0.00    +0.000 N 
ATOM     16  H   UNL     1       4.621   2.477  20.146  0.00  0.00    +0.000 HD
ATOM     17  H   UNL     1       5.187   3.976  19.912  0.00  0.00    +0.000 HD
ENDBRANCH   4  15
ENDBRANCH   3   5
ENDBRANCH   2   3
ENDBRANCH   1   2
BRANCH   1  18
ATOM     18  C   UNL     1       2.218   4.428  21.295  0.00  0.00    +0.000 C 
BRANCH  18  19
ATOM     19  C   UNL     1       1.404   5.344  20.364  0.00  0.00    +0.000 C 
BRANCH  19  20
ATOM     20  S   UNL     1       2.459   6.655  19.627  0.00  0.00    +0.000 S 
BRANCH  20  21
ATOM     21  C   UNL     1       1.702   8.096  20.241  0.00  0.00    +0.000 A 
ATOM     22  N   UNL     1       1.361   8.318  21.490  0.00  0.00    +0.000 NA
ATOM     23  N   UNL     1       0.813   9.579  21.557  0.00  0.00    +0.000 NA
ATOM     24  C   UNL     1       0.797  10.108  20.342  0.00  0.00    +0.000 A 
ATOM     25  N   UNL     1       1.400   9.204  19.476  0.00  0.00    +0.000 N 
BRANCH  24  26
ATOM     26  C   UNL     1       0.296  11.444  20.006  0.00  0.00    +0.000 A 
ATOM     27  C   UNL     1       1.028  12.619  20.213  0.00  0.00    +0.000 A 
ATOM     28  C   UNL     1       0.466  13.860  19.933  0.00  0.00    +0.000 A 
ATOM     29  C   UNL     1      -0.824  13.894  19.413  0.00  0.00    +0.000 A 
ATOM     30  N   UNL     1      -1.553  12.794  19.159  0.00  0.00    +0.000 NA
ATOM     31  C   UNL     1      -0.973  11.595  19.455  0.00  0.00    +0.000 A 
ENDBRANCH  24  26
BRANCH  25  32
ATOM     32  N   UNL     1       1.717   9.426  18.079  0.00  0.00    +0.000 N 
ATOM     33  H   UNL     1       2.460  10.114  17.972  0.00  0.00    +0.000 HD
ATOM     34  H   UNL     1       2.101   8.574  17.670  0.00  0.00    +0.000 HD
ENDBRANCH  25  32
ENDBRANCH  20  21
ENDBRANCH  19  20
ENDBRANCH  18  19
ENDBRANCH   1  18
TORSDOF 11
ENDMDL
MODEL 9
REMARK VINA RESULT:      -6.7      1.871      2.505
REMARK  Name = 
REMARK  11 active torsions:
REMARK  status: ('A' for Active; 'I' for Inactive)
REMARK    1  A    between atoms: N_1  and  N_2
REMARK    2  A    between atoms: C_3  and  S_4
REMARK    3  A    between atoms: S_4  and  C_5
REMARK    4  A    between atoms: C_5  and  C_6
REMARK    5  A    between atoms: C_6  and  C_7
REMARK    6  A    between atoms: C_7  and  C_8
REMARK    7  A    between atoms: C_8  and  S_9
REMARK    8  A    between atoms: S_9  and  C_10
REMARK    9  A    between atoms: C_13  and  C_14
REMARK   10  A    between atoms: N_20  and  N_21
REMARK   11  A    between atoms: C_24  and  C_25
REMARK                            x       y       z     vdW  Elec       q    Type
REMARK                         _______ _______ _______ _____ _____    ______ ____
ROOT
ATOM      1  C   UNL     1       0.978   4.105  19.804  0.00  0.00    +0.000 C 
ENDROOT
BRANCH   1   2
ATOM      2  C   UNL     1       1.504   5.180  18.835  0.00  0.00    +0.000 C 
BRANCH   2   3
ATOM      3  S   UNL     1       2.618   6.366  19.688  0.00  0.00    +0.000 S 
BRANCH   3   5
ATOM      4  N   UNL     1       1.487   8.884  19.584  0.00  0.00    +0.000 N 
ATOM      5  C   UNL     1       2.164   7.868  18.940  0.00  0.00    +0.000 A 
ATOM      6  N   UNL     1       2.371   8.206  17.689  0.00  0.00    +0.000 NA
ATOM      7  N   UNL     1       1.839   9.463  17.499  0.00  0.00    +0.000 NA
ATOM      8  C   UNL     1       1.336   9.892  18.646  0.00  0.00    +0.000 A 
BRANCH   8   9
ATOM      9  C   UNL     1       0.653  11.169  18.858  0.00  0.00    +0.000 A 
ATOM     10  C   UNL     1       1.309  12.342  19.255  0.00  0.00    +0.000 A 
ATOM     11  C   UNL     1       0.585  13.510  19.497  0.00  0.00    +0.000 A 
ATOM     12  C   UNL     1      -0.784  13.476  19.313  0.00  0.00    +0.000 A 
ATOM     13  N   UNL     1      -1.456  12.381  18.905  0.00  0.00    +0.000 NA
ATOM     14  C   UNL     1      -0.723  11.261  18.680  0.00  0.00    +0.000 A 
ENDBRANCH   8   9
BRANCH   4  15
ATOM     15  N   UNL     1       0.951   8.896  20.929  0.00  0.00    +0.000 N 
ATOM     16  H   UNL     1      -0.064   8.983  20.911  0.00  0.00    +0.000 HD
ATOM     17  H   UNL     1       1.280   9.723  21.429  0.00  0.00    +0.000 HD
ENDBRANCH   4  15
ENDBRANCH   3   5
ENDBRANCH   2   3
ENDBRANCH   1   2
BRANCH   1  18
ATOM     18  C   UNL     1       1.798   4.049  21.111  0.00  0.00    +0.000 C 
BRANCH  18  19
ATOM     19  C   UNL     1       2.066   2.604  21.567  0.00  0.00    +0.000 C 
BRANCH  19  20
ATOM     20  S   UNL     1       3.776   2.078  21.146  0.00  0.00    +0.000 S 
BRANCH  20  21
ATOM     21  C   UNL     1       3.830   2.410  19.439  0.00  0.00    +0.000 A 
ATOM     22  N   UNL     1       3.055   1.878  18.523  0.00  0.00    +0.000 NA
ATOM     23  N   UNL     1       3.409   2.420  17.307  0.00  0.00    +0.000 NA
ATOM     24  C   UNL     1       4.418   3.259  17.487  0.00  0.00    +0.000 A 
ATOM     25  N   UNL     1       4.690   3.315  18.848  0.00  0.00    +0.000 N 
BRANCH  24  26
ATOM     26  C   UNL     1       5.069   4.040  16.431  0.00  0.00    +0.000 A 
ATOM     27  C   UNL     1       5.869   3.474  15.431  0.00  0.00    +0.000 A 
ATOM     28  C   UNL     1       6.510   4.281  14.498  0.00  0.00    +0.000 A 
ATOM     29  C   UNL     1       6.306   5.655  14.567  0.00  0.00    +0.000 A 
ATOM     30  N   UNL     1       5.516   6.245  15.481  0.00  0.00    +0.000 NA
ATOM     31  C   UNL     1       4.911   5.422  16.387  0.00  0.00    +0.000 A 
ENDBRANCH  24  26
BRANCH  25  32
ATOM     32  N   UNL     1       5.624   4.205  19.508  0.00  0.00    +0.000 N 
ATOM     33  H   UNL     1       5.562   5.151  19.136  0.00  0.00    +0.000 HD
ATOM     34  H   UNL     1       5.376   4.304  20.492  0.00  0.00    +0.000 HD
ENDBRANCH  25  32
ENDBRANCH  20  21
ENDBRANCH  19  20
ENDBRANCH  18  19
ENDBRANCH   1  18
TORSDOF 11
ENDMDL
