MODEL 1
REMARK VINA RESULT:      -5.7      0.000      0.000
REMARK  Name = 
REMARK  8 active torsions:
REMARK  status: ('A' for Active; 'I' for Inactive)
REMARK    1  A    between atoms: C_1  and  C_2
REMARK    2  A    between atoms: C_2  and  C_3
REMARK    3  A    between atoms: C_2  and  C_4
REMARK    4  A    between atoms: C_4  and  C_5
REMARK    5  A    between atoms: C_5  and  C_6
REMARK    6  A    between atoms: C_6  and  N_7
REMARK    7  A    between atoms: N_12  and  C_13
REMARK    8  A    between atoms: N_12  and  C_14
REMARK                            x       y       z     vdW  Elec       q    Type
REMARK                         _______ _______ _______ _____ _____    ______ ____
ROOT
ATOM      1  N   UNL     1       5.605   4.333  16.588  0.00  0.00    +0.000 N 
ATOM      2  C   UNL     1       5.851   3.817  15.245  0.00  0.00    +0.000 C 
ATOM      3  C   UNL     1       6.887   4.785  14.691  0.00  0.00    +0.000 C 
ATOM      4  N   UNL     1       7.360   5.586  15.832  0.00  0.00    +0.000 NA
ATOM      5  C   UNL     1       6.562   5.292  16.836  0.00  0.00    +0.000 C 
ATOM      6  N   UNL     1       6.737   5.873  18.071  0.00  0.00    +0.000 N 
ATOM      7  C   UNL     1       7.839   6.816  18.266  0.00  0.00    +0.000 C 
ATOM      8  C   UNL     1       6.127   5.415  19.304  0.00  0.00    +0.000 C 
ENDROOT
BRANCH   1   9
ATOM      9  C   UNL     1       4.202   4.342  17.008  0.00  0.00    +0.000 C 
BRANCH   9  10
ATOM     10  C   UNL     1       3.820   3.024  17.680  0.00  0.00    +0.000 C 
BRANCH  10  11
ATOM     11  C   UNL     1       3.245   3.169  19.101  0.00  0.00    +0.000 C 
BRANCH  11  13
ATOM     12  C   UNL     1       0.866   2.334  18.688  0.00  0.00    +0.000 C 
ATOM     13  C   UNL     1       1.742   3.533  19.066  0.00  0.00    +0.000 C 
ATOM     14  C   UNL     1       1.253   4.099  20.402  0.00  0.00    +0.000 C 
ENDBRANCH  11  13
ENDBRANCH  10  11
ENDBRANCH   9  10
ENDBRANCH   1   9
TORSDOF 4
ENDMDL
MODEL 2
REMARK VINA RESULT:      -5.6      2.512      5.569
REMARK  Name = 
REMARK  8 active torsions:
REMARK  status: ('A' for Active; 'I' for Inactive)
REMARK    1  A    between atoms: C_1  and  C_2
REMARK    2  A    between atoms: C_2  and  C_3
REMARK    3  A    between atoms: C_2  and  C_4
REMARK    4  A    between atoms: C_4  and  C_5
REMARK    5  A    between atoms: C_5  and  C_6
REMARK    6  A    between atoms: C_6  and  N_7
REMARK    7  A    between atoms: N_12  and  C_13
REMARK    8  A    between atoms: N_12  and  C_14
REMARK                            x       y       z     vdW  Elec       q    Type
REMARK                         _______ _______ _______ _____ _____    ______ ____
ROOT
ATOM      1  N   UNL     1       3.120   4.367  18.287  0.00  0.00    +0.000 N 
ATOM      2  C   UNL     1       3.442   3.441  17.205  0.00  0.00    +0.000 C 
ATOM      3  C   UNL     1       3.544   2.102  17.920  0.00  0.00    +0.000 C 
ATOM      4  N   UNL     1       2.999   2.309  19.272  0.00  0.00    +0.000 NA
ATOM      5  C   UNL     1       2.826   3.607  19.398  0.00  0.00    +0.000 C 
ATOM      6  N   UNL     1       2.316   4.143  20.558  0.00  0.00    +0.000 N 
ATOM      7  C   UNL     1       1.947   3.247  21.656  0.00  0.00    +0.000 C 
ATOM      8  C   UNL     1       1.810   5.494  20.703  0.00  0.00    +0.000 C 
ENDROOT
BRANCH   1   9
ATOM      9  C   UNL     1       3.825   5.649  18.244  0.00  0.00    +0.000 C 
BRANCH   9  10
ATOM     10  C   UNL     1       5.162   5.519  17.516  0.00  0.00    +0.000 C 
BRANCH  10  11
ATOM     11  C   UNL     1       5.827   6.856  17.144  0.00  0.00    +0.000 C 
BRANCH  11  13
ATOM     12  C   UNL     1       7.893   8.255  17.691  0.00  0.00    +0.000 C 
ATOM     13  C   UNL     1       7.339   6.843  17.470  0.00  0.00    +0.000 C 
ATOM     14  C   UNL     1       7.658   5.991  18.701  0.00  0.00    +0.000 C 
ENDBRANCH  11  13
ENDBRANCH  10  11
ENDBRANCH   9  10
ENDBRANCH   1   9
TORSDOF 4
ENDMDL
MODEL 3
REMARK VINA RESULT:      -5.6      0.713      1.333
REMARK  Name = 
REMARK  8 active torsions:
REMARK  status: ('A' for Active; 'I' for Inactive)
REMARK    1  A    between atoms: C_1  and  C_2
REMARK    2  A    between atoms: C_2  and  C_3
REMARK    3  A    between atoms: C_2  and  C_4
REMARK    4  A    between atoms: C_4  and  C_5
REMARK    5  A    between atoms: C_5  and  C_6
REMARK    6  A    between atoms: C_6  and  N_7
REMARK    7  A    between atoms: N_12  and  C_13
REMARK    8  A    between atoms: N_12  and  C_14
REMARK                            x       y       z     vdW  Elec       q    Type
REMARK                         _______ _______ _______ _____ _____    ______ ____
ROOT
ATOM      1  N   UNL     1       5.891   4.258  16.945  0.00  0.00    +0.000 N 
ATOM      2  C   UNL     1       5.926   3.743  15.580  0.00  0.00    +0.000 C 
ATOM      3  C   UNL     1       6.582   4.876  14.804  0.00  0.00    +0.000 C 
ATOM      4  N   UNL     1       7.126   5.807  15.806  0.00  0.00    +0.000 NA
ATOM      5  C   UNL     1       6.658   5.402  16.967  0.00  0.00    +0.000 C 
ATOM      6  N   UNL     1       6.985   6.062  18.130  0.00  0.00    +0.000 N 
ATOM      7  C   UNL     1       7.881   7.218  18.066  0.00  0.00    +0.000 C 
ATOM      8  C   UNL     1       6.783   5.545  19.469  0.00  0.00    +0.000 C 
ENDROOT
BRANCH   1   9
ATOM      9  C   UNL     1       4.652   4.000  17.680  0.00  0.00    +0.000 C 
BRANCH   9  10
ATOM     10  C   UNL     1       3.625   5.104  17.434  0.00  0.00    +0.000 C 
BRANCH  10  11
ATOM     11  C   UNL     1       2.183   4.744  17.834  0.00  0.00    +0.000 C 
BRANCH  11  13
ATOM     12  C   UNL     1       1.680   4.391  20.314  0.00  0.00    +0.000 C 
ATOM     13  C   UNL     1       2.159   3.740  19.012  0.00  0.00    +0.000 C 
ATOM     14  C   UNL     1       1.280   2.523  18.717  0.00  0.00    +0.000 C 
ENDBRANCH  11  13
ENDBRANCH  10  11
ENDBRANCH   9  10
ENDBRANCH   1   9
TORSDOF 4
ENDMDL
MODEL 4
REMARK VINA RESULT:      -5.6      1.052      1.329
REMARK  Name = 
REMARK  8 active torsions:
REMARK  status: ('A' for Active; 'I' for Inactive)
REMARK    1  A    between atoms: C_1  and  C_2
REMARK    2  A    between atoms: C_2  and  C_3
REMARK    3  A    between atoms: C_2  and  C_4
REMARK    4  A    between atoms: C_4  and  C_5
REMARK    5  A    between atoms: C_5  and  C_6
REMARK    6  A    between atoms: C_6  and  N_7
REMARK    7  A    between atoms: N_12  and  C_13
REMARK    8  A    between atoms: N_12  and  C_14
REMARK                            x       y       z     vdW  Elec       q    Type
REMARK                         _______ _______ _______ _____ _____    ______ ____
ROOT
ATOM      1  N   UNL     1       6.019   4.560  17.262  0.00  0.00    +0.000 N 
ATOM      2  C   UNL     1       5.506   4.089  15.979  0.00  0.00    +0.000 C 
ATOM      3  C   UNL     1       5.551   5.340  15.113  0.00  0.00    +0.000 C 
ATOM      4  N   UNL     1       6.341   6.334  15.858  0.00  0.00    +0.000 NA
ATOM      5  C   UNL     1       6.524   5.825  17.058  0.00  0.00    +0.000 C 
ATOM      6  N   UNL     1       7.240   6.509  18.014  0.00  0.00    +0.000 N 
ATOM      7  C   UNL     1       7.817   7.811  17.677  0.00  0.00    +0.000 C 
ATOM      8  C   UNL     1       7.754   5.935  19.242  0.00  0.00    +0.000 C 
ENDROOT
BRANCH   1   9
ATOM      9  C   UNL     1       5.309   4.061  18.441  0.00  0.00    +0.000 C 
BRANCH   9  10
ATOM     10  C   UNL     1       3.990   3.396  18.049  0.00  0.00    +0.000 C 
BRANCH  10  11
ATOM     11  C   UNL     1       3.282   2.646  19.192  0.00  0.00    +0.000 C 
BRANCH  11  13
ATOM     12  C   UNL     1       1.196   3.321  20.504  0.00  0.00    +0.000 C 
ATOM     13  C   UNL     1       1.752   2.870  19.149  0.00  0.00    +0.000 C 
ATOM     14  C   UNL     1       1.347   3.893  18.085  0.00  0.00    +0.000 C 
ENDBRANCH  11  13
ENDBRANCH  10  11
ENDBRANCH   9  10
ENDBRANCH   1   9
TORSDOF 4
ENDMDL
MODEL 5
REMARK VINA RESULT:      -5.5      1.040      1.102
REMARK  Name = 
REMARK  8 active torsions:
REMARK  status: ('A' for Active; 'I' for Inactive)
REMARK    1  A    between atoms: C_1  and  C_2
REMARK    2  A    between atoms: C_2  and  C_3
REMARK    3  A    between atoms: C_2  and  C_4
REMARK    4  A    between atoms: C_4  and  C_5
REMARK    5  A    between atoms: C_5  and  C_6
REMARK    6  A    between atoms: C_6  and  N_7
REMARK    7  A    between atoms: N_12  and  C_13
REMARK    8  A    between atoms: N_12  and  C_14
REMARK                            x       y       z     vdW  Elec       q    Type
REMARK                         _______ _______ _______ _____ _____    ______ ____
ROOT
ATOM      1  N   UNL     1       5.744   4.390  17.133  0.00  0.00    +0.000 N 
ATOM      2  C   UNL     1       5.404   3.913  15.796  0.00  0.00    +0.000 C 
ATOM      3  C   UNL     1       5.697   5.121  14.918  0.00  0.00    +0.000 C 
ATOM      4  N   UNL     1       6.440   6.076  15.757  0.00  0.00    +0.000 NA
ATOM      5  C   UNL     1       6.383   5.600  16.983  0.00  0.00    +0.000 C 
ATOM      6  N   UNL     1       6.992   6.260  18.026  0.00  0.00    +0.000 N 
ATOM      7  C   UNL     1       7.727   7.497  17.755  0.00  0.00    +0.000 C 
ATOM      8  C   UNL     1       7.250   5.694  19.335  0.00  0.00    +0.000 C 
ENDROOT
BRANCH   1   9
ATOM      9  C   UNL     1       4.812   3.997  18.192  0.00  0.00    +0.000 C 
BRANCH   9  10
ATOM     10  C   UNL     1       3.574   4.892  18.197  0.00  0.00    +0.000 C 
BRANCH  10  11
ATOM     11  C   UNL     1       2.296   4.228  17.656  0.00  0.00    +0.000 C 
BRANCH  11  13
ATOM     12  C   UNL     1       1.416   2.303  19.087  0.00  0.00    +0.000 C 
ATOM     13  C   UNL     1       1.349   3.808  18.805  0.00  0.00    +0.000 C 
ATOM     14  C   UNL     1       1.642   4.567  20.102  0.00  0.00    +0.000 C 
ENDBRANCH  11  13
ENDBRANCH  10  11
ENDBRANCH   9  10
ENDBRANCH   1   9
TORSDOF 4
ENDMDL
MODEL 6
REMARK VINA RESULT:      -5.5      0.499      1.026
REMARK  Name = 
REMARK  8 active torsions:
REMARK  status: ('A' for Active; 'I' for Inactive)
REMARK    1  A    between atoms: C_1  and  C_2
REMARK    2  A    between atoms: C_2  and  C_3
REMARK    3  A    between atoms: C_2  and  C_4
REMARK    4  A    between atoms: C_4  and  C_5
REMARK    5  A    between atoms: C_5  and  C_6
REMARK    6  A    between atoms: C_6  and  N_7
REMARK    7  A    between atoms: N_12  and  C_13
REMARK    8  A    between atoms: N_12  and  C_14
REMARK                            x       y       z     vdW  Elec       q    Type
REMARK                         _______ _______ _______ _____ _____    ______ ____
ROOT
ATOM      1  N   UNL     1       5.682   4.352  16.697  0.00  0.00    +0.000 N 
ATOM      2  C   UNL     1       5.889   3.827  15.350  0.00  0.00    +0.000 C 
ATOM      3  C   UNL     1       6.880   4.811  14.747  0.00  0.00    +0.000 C 
ATOM      4  N   UNL     1       7.378   5.636  15.861  0.00  0.00    +0.000 NA
ATOM      5  C   UNL     1       6.626   5.335  16.898  0.00  0.00    +0.000 C 
ATOM      6  N   UNL     1       6.834   5.934  18.119  0.00  0.00    +0.000 N 
ATOM      7  C   UNL     1       7.921   6.904  18.261  0.00  0.00    +0.000 C 
ATOM      8  C   UNL     1       6.283   5.476  19.379  0.00  0.00    +0.000 C 
ENDROOT
BRANCH   1   9
ATOM      9  C   UNL     1       4.297   4.334  17.170  0.00  0.00    +0.000 C 
BRANCH   9  10
ATOM     10  C   UNL     1       3.952   2.992  17.813  0.00  0.00    +0.000 C 
BRANCH  10  11
ATOM     11  C   UNL     1       3.682   3.053  19.327  0.00  0.00    +0.000 C 
BRANCH  11  13
ATOM     12  C   UNL     1       1.584   3.279  20.767  0.00  0.00    +0.000 C 
ATOM     13  C   UNL     1       2.293   2.469  19.676  0.00  0.00    +0.000 C 
ATOM     14  C   UNL     1       1.378   2.384  18.452  0.00  0.00    +0.000 C 
ENDBRANCH  11  13
ENDBRANCH  10  11
ENDBRANCH   9  10
ENDBRANCH   1   9
TORSDOF 4
ENDMDL
MODEL 7
REMARK VINA RESULT:      -5.5      1.534      2.968
REMARK  Name = 
REMARK  8 active torsions:
REMARK  status: ('A' for Active; 'I' for Inactive)
REMARK    1  A    between atoms: C_1  and  C_2
REMARK    2  A    between atoms: C_2  and  C_3
REMARK    3  A    between atoms: C_2  and  C_4
REMARK    4  A    between atoms: C_4  and  C_5
REMARK    5  A    between atoms: C_5  and  C_6
REMARK    6  A    between atoms: C_6  and  N_7
REMARK    7  A    between atoms: N_12  and  C_13
REMARK    8  A    between atoms: N_12  and  C_14
REMARK                            x       y       z     vdW  Elec       q    Type
REMARK                         _______ _______ _______ _____ _____    ______ ____
ROOT
ATOM      1  N   UNL     1       3.536   4.739  17.355  0.00  0.00    +0.000 N 
ATOM      2  C   UNL     1       2.701   5.587  18.200  0.00  0.00    +0.000 C 
ATOM      3  C   UNL     1       3.652   6.002  19.313  0.00  0.00    +0.000 C 
ATOM      4  N   UNL     1       5.002   5.609  18.876  0.00  0.00    +0.000 NA
ATOM      5  C   UNL     1       4.833   4.878  17.794  0.00  0.00    +0.000 C 
ATOM      6  N   UNL     1       5.913   4.351  17.123  0.00  0.00    +0.000 N 
ATOM      7  C   UNL     1       7.263   4.628  17.615  0.00  0.00    +0.000 C 
ATOM      8  C   UNL     1       5.874   3.797  15.784  0.00  0.00    +0.000 C 
ENDROOT
BRANCH   1   9
ATOM      9  C   UNL     1       2.889   3.524  16.854  0.00  0.00    +0.000 C 
BRANCH   9  10
ATOM     10  C   UNL     1       2.934   2.407  17.895  0.00  0.00    +0.000 C 
BRANCH  10  11
ATOM     11  C   UNL     1       1.623   2.198  18.674  0.00  0.00    +0.000 C 
BRANCH  11  13
ATOM     12  C   UNL     1       3.311   2.573  20.554  0.00  0.00    +0.000 C 
ATOM     13  C   UNL     1       1.831   2.408  20.193  0.00  0.00    +0.000 C 
ATOM     14  C   UNL     1       1.057   3.619  20.720  0.00  0.00    +0.000 C 
ENDBRANCH  11  13
ENDBRANCH  10  11
ENDBRANCH   9  10
ENDBRANCH   1   9
TORSDOF 4
ENDMDL
MODEL 8
REMARK VINA RESULT:      -5.5      2.080      5.255
REMARK  Name = 
REMARK  8 active torsions:
REMARK  status: ('A' for Active; 'I' for Inactive)
REMARK    1  A    between atoms: C_1  and  C_2
REMARK    2  A    between atoms: C_2  and  C_3
REMARK    3  A    between atoms: C_2  and  C_4
REMARK    4  A    between atoms: C_4  and  C_5
REMARK    5  A    between atoms: C_5  and  C_6
REMARK    6  A    between atoms: C_6  and  N_7
REMARK    7  A    between atoms: N_12  and  C_13
REMARK    8  A    between atoms: N_12  and  C_14
REMARK                            x       y       z     vdW  Elec       q    Type
REMARK                         _______ _______ _______ _____ _____    ______ ____
ROOT
ATOM      1  N   UNL     1       5.962   4.629  16.881  0.00  0.00    +0.000 N 
ATOM      2  C   UNL     1       7.412   4.664  17.052  0.00  0.00    +0.000 C 
ATOM      3  C   UNL     1       7.575   5.057  18.513  0.00  0.00    +0.000 C 
ATOM      4  N   UNL     1       6.243   4.934  19.128  0.00  0.00    +0.000 NA
ATOM      5  C   UNL     1       5.403   4.730  18.135  0.00  0.00    +0.000 C 
ATOM      6  N   UNL     1       4.058   4.564  18.371  0.00  0.00    +0.000 N 
ATOM      7  C   UNL     1       3.565   4.598  19.749  0.00  0.00    +0.000 C 
ATOM      8  C   UNL     1       3.100   4.045  17.414  0.00  0.00    +0.000 C 
ENDROOT
BRANCH   1   9
ATOM      9  C   UNL     1       5.466   5.211  15.632  0.00  0.00    +0.000 C 
BRANCH   9  10
ATOM     10  C   UNL     1       6.343   4.806  14.449  0.00  0.00    +0.000 C 
BRANCH  10  11
ATOM     11  C   UNL     1       5.959   3.470  13.788  0.00  0.00    +0.000 C 
BRANCH  11  13
ATOM     12  C   UNL     1       6.978   2.722  11.567  0.00  0.00    +0.000 C 
ATOM     13  C   UNL     1       5.918   3.596  12.246  0.00  0.00    +0.000 C 
ATOM     14  C   UNL     1       4.544   3.239  11.674  0.00  0.00    +0.000 C 
ENDBRANCH  11  13
ENDBRANCH  10  11
ENDBRANCH   9  10
ENDBRANCH   1   9
TORSDOF 4
ENDMDL
MODEL 9
REMARK VINA RESULT:      -5.5      1.894      5.223
REMARK  Name = 
REMARK  8 active torsions:
REMARK  status: ('A' for Active; 'I' for Inactive)
REMARK    1  A    between atoms: C_1  and  C_2
REMARK    2  A    between atoms: C_2  and  C_3
REMARK    3  A    between atoms: C_2  and  C_4
REMARK    4  A    between atoms: C_4  and  C_5
REMARK    5  A    between atoms: C_5  and  C_6
REMARK    6  A    between atoms: C_6  and  N_7
REMARK    7  A    between atoms: N_12  and  C_13
REMARK    8  A    between atoms: N_12  and  C_14
REMARK                            x       y       z     vdW  Elec       q    Type
REMARK                         _______ _______ _______ _____ _____    ______ ____
ROOT
ATOM      1  N   UNL     1       6.043   4.741  16.921  0.00  0.00    +0.000 N 
ATOM      2  C   UNL     1       7.471   4.952  17.142  0.00  0.00    +0.000 C 
ATOM      3  C   UNL     1       7.563   5.109  18.653  0.00  0.00    +0.000 C 
ATOM      4  N   UNL     1       6.258   4.695  19.195  0.00  0.00    +0.000 NA
ATOM      5  C   UNL     1       5.466   4.546  18.156  0.00  0.00    +0.000 C 
ATOM      6  N   UNL     1       4.157   4.152  18.317  0.00  0.00    +0.000 N 
ATOM      7  C   UNL     1       3.654   3.880  19.664  0.00  0.00    +0.000 C 
ATOM      8  C   UNL     1       3.292   3.673  17.256  0.00  0.00    +0.000 C 
ENDROOT
BRANCH   1   9
ATOM      9  C   UNL     1       5.477   5.449  15.772  0.00  0.00    +0.000 C 
BRANCH   9  10
ATOM     10  C   UNL     1       6.116   4.981  14.466  0.00  0.00    +0.000 C 
BRANCH  10  11
ATOM     11  C   UNL     1       5.722   3.559  14.028  0.00  0.00    +0.000 C 
BRANCH  11  13
ATOM     12  C   UNL     1       4.815   3.357  11.649  0.00  0.00    +0.000 C 
ATOM     13  C   UNL     1       6.061   3.314  12.539  0.00  0.00    +0.000 C 
ATOM     14  C   UNL     1       7.084   4.320  12.005  0.00  0.00    +0.000 C 
ENDBRANCH  11  13
ENDBRANCH  10  11
ENDBRANCH   9  10
ENDBRANCH   1   9
TORSDOF 4
ENDMDL
