MODEL 1
REMARK VINA RESULT:      -8.0      0.000      0.000
REMARK  Name = 
REMARK  8 active torsions:
REMARK  status: ('A' for Active; 'I' for Inactive)
REMARK    1  A    between atoms: C_2  and  O_3
REMARK    2  A    between atoms: C_2  and  C_4
REMARK    3  A    between atoms: C_6  and  N_7
REMARK    4  A    between atoms: N_7  and  N_8
REMARK    5  A    between atoms: C_9  and  C_10
REMARK    6  A    between atoms: C_13  and  C_14
REMARK    7  A    between atoms: C_19  and  C_20
REMARK    8  A    between atoms: C_20  and  O_22
REMARK                            x       y       z     vdW  Elec       q    Type
REMARK                         _______ _______ _______ _____ _____    ______ ____
ROOT
ATOM      1  C   UNL     1       1.131   9.693  19.607  0.00  0.00    +0.000 A 
ATOM      2  C   UNL     1       1.362   9.770  18.248  0.00  0.00    +0.000 A 
ATOM      3  C   UNL     1       1.977   8.562  17.871  0.00  0.00    +0.000 A 
ATOM      4  C   UNL     1       2.097   7.793  19.014  0.00  0.00    +0.000 A 
ATOM      5  O   UNL     1       1.580   8.485  20.083  0.00  0.00    +0.000 OA
ENDROOT
BRANCH   4   6
ATOM      6  C   UNL     1       2.636   6.447  19.239  0.00  0.00    +0.000 A 
ATOM      7  C   UNL     1       3.766   6.035  18.520  0.00  0.00    +0.000 A 
ATOM      8  C   UNL     1       4.292   4.751  18.666  0.00  0.00    +0.000 A 
ATOM      9  C   UNL     1       3.702   3.838  19.542  0.00  0.00    +0.000 A 
ATOM     10 CL   UNL     1       4.450   2.281  19.606  0.00  0.00    +0.000 Cl
ATOM     11  C   UNL     1       2.578   4.215  20.292  0.00  0.00    +0.000 A 
ATOM     12  C   UNL     1       2.059   5.527  20.130  0.00  0.00    +0.000 A 
BRANCH  11  13
ATOM     13  C   UNL     1       1.848   3.347  21.264  0.00  0.00    +0.000 C 
ATOM     14  O   UNL     1       2.343   3.039  22.338  0.00  0.00    +0.000 OA
BRANCH  13  15
ATOM     15  O   UNL     1       0.617   2.913  20.928  0.00  0.00    +0.000 OA
ATOM     16  H   UNL     1      -0.025   3.605  20.664  0.00  0.00    +0.000 HD
ENDBRANCH  13  15
ENDBRANCH  11  13
ENDBRANCH   4   6
BRANCH   1  18
ATOM     17  N   UNL     1       0.271  11.842  20.031  0.00  0.00    +0.000 NA
ATOM     18  C   UNL     1       0.528  10.657  20.494  0.00  0.00    +0.000 C 
BRANCH  17  19
ATOM     19  N   UNL     1      -0.277  12.758  20.873  0.00  0.00    +0.000 N 
ATOM     20  H   UNL     1       0.282  13.243  21.572  0.00  0.00    +0.000 HD
BRANCH  19  23
ATOM     21  C   UNL     1      -3.532  12.729  22.728  0.00  0.00    +0.000 A 
ATOM     22  C   UNL     1      -2.146  12.725  22.448  0.00  0.00    +0.000 A 
ATOM     23  C   UNL     1      -1.662  12.663  21.134  0.00  0.00    +0.000 A 
ATOM     24  C   UNL     1      -2.605  12.620  20.097  0.00  0.00    +0.000 A 
ATOM     25  C   UNL     1      -3.977  12.616  20.356  0.00  0.00    +0.000 A 
ATOM     26  C   UNL     1      -4.446  12.669  21.668  0.00  0.00    +0.000 A 
ATOM     27 CL   UNL     1      -6.160  12.658  21.883  0.00  0.00    +0.000 Cl
BRANCH  21  29
ATOM     28  O   UNL     1      -3.850  13.800  24.815  0.00  0.00    +0.000 OA
ATOM     29  C   UNL     1      -3.914  12.769  24.164  0.00  0.00    +0.000 C 
BRANCH  29  30
ATOM     30  O   UNL     1      -4.422  11.629  24.671  0.00  0.00    +0.000 OA
ATOM     31  H   UNL     1      -5.282  11.350  24.299  0.00  0.00    +0.000 HD
ENDBRANCH  29  30
ENDBRANCH  21  29
ENDBRANCH  19  23
ENDBRANCH  17  19
ENDBRANCH   1  18
TORSDOF 8
ENDMDL
MODEL 2
REMARK VINA RESULT:      -8.0      1.859      2.175
REMARK  Name = 
REMARK  8 active torsions:
REMARK  status: ('A' for Active; 'I' for Inactive)
REMARK    1  A    between atoms: C_2  and  O_3
REMARK    2  A    between atoms: C_2  and  C_4
REMARK    3  A    between atoms: C_6  and  N_7
REMARK    4  A    between atoms: N_7  and  N_8
REMARK    5  A    between atoms: C_9  and  C_10
REMARK    6  A    between atoms: C_13  and  C_14
REMARK    7  A    between atoms: C_19  and  C_20
REMARK    8  A    between atoms: C_20  and  O_22
REMARK                            x       y       z     vdW  Elec       q    Type
REMARK                         _______ _______ _______ _____ _____    ______ ____
ROOT
ATOM      1  C   UNL     1       1.239   9.412  18.977  0.00  0.00    +0.000 A 
ATOM      2  C   UNL     1       1.959   9.514  17.803  0.00  0.00    +0.000 A 
ATOM      3  C   UNL     1       2.714   8.333  17.685  0.00  0.00    +0.000 A 
ATOM      4  C   UNL     1       2.426   7.554  18.789  0.00  0.00    +0.000 A 
ATOM      5  O   UNL     1       1.522   8.214  19.587  0.00  0.00    +0.000 OA
ENDROOT
BRANCH   4   6
ATOM      6  C   UNL     1       2.889   6.224  19.201  0.00  0.00    +0.000 A 
ATOM      7  C   UNL     1       4.153   5.783  18.786  0.00  0.00    +0.000 A 
ATOM      8  C   UNL     1       4.623   4.510  19.114  0.00  0.00    +0.000 A 
ATOM      9  C   UNL     1       3.839   3.639  19.874  0.00  0.00    +0.000 A 
ATOM     10 CL   UNL     1       4.543   2.091  20.187  0.00  0.00    +0.000 Cl
ATOM     11  C   UNL     1       2.575   4.047  20.322  0.00  0.00    +0.000 A 
ATOM     12  C   UNL     1       2.116   5.347  19.978  0.00  0.00    +0.000 A 
BRANCH  11  13
ATOM     13  C   UNL     1       1.634   3.225  21.140  0.00  0.00    +0.000 C 
ATOM     14  O   UNL     1       1.946   2.816  22.248  0.00  0.00    +0.000 OA
BRANCH  13  15
ATOM     15  O   UNL     1       0.419   2.948  20.625  0.00  0.00    +0.000 OA
ATOM     16  H   UNL     1      -0.268   2.677  21.268  0.00  0.00    +0.000 HD
ENDBRANCH  13  15
ENDBRANCH  11  13
ENDBRANCH   4   6
BRANCH   1  18
ATOM     17  N   UNL     1      -0.272  11.207  18.803  0.00  0.00    +0.000 NA
ATOM     18  C   UNL     1       0.315  10.344  19.573  0.00  0.00    +0.000 C 
BRANCH  17  19
ATOM     19  N   UNL     1      -1.127  12.100  19.368  0.00  0.00    +0.000 N 
ATOM     20  H   UNL     1      -0.899  12.583  20.234  0.00  0.00    +0.000 HD
BRANCH  19  23
ATOM     21  C   UNL     1      -4.852  12.404  19.637  0.00  0.00    +0.000 A 
ATOM     22  C   UNL     1      -3.476  12.427  19.961  0.00  0.00    +0.000 A 
ATOM     23  C   UNL     1      -2.501  11.978  19.060  0.00  0.00    +0.000 A 
ATOM     24  C   UNL     1      -2.936  11.514  17.811  0.00  0.00    +0.000 A 
ATOM     25  C   UNL     1      -4.292  11.478  17.477  0.00  0.00    +0.000 A 
ATOM     26  C   UNL     1      -5.253  11.920  18.385  0.00  0.00    +0.000 A 
ATOM     27 CL   UNL     1      -6.902  11.833  17.878  0.00  0.00    +0.000 Cl
BRANCH  21  29
ATOM     28  O   UNL     1      -6.389  13.938  20.581  0.00  0.00    +0.000 OA
ATOM     29  C   UNL     1      -5.785  12.883  20.691  0.00  0.00    +0.000 C 
BRANCH  29  30
ATOM     30  O   UNL     1      -5.994  12.039  21.720  0.00  0.00    +0.000 OA
ATOM     31  H   UNL     1      -6.840  12.157  22.196  0.00  0.00    +0.000 HD
ENDBRANCH  29  30
ENDBRANCH  21  29
ENDBRANCH  19  23
ENDBRANCH  17  19
ENDBRANCH   1  18
TORSDOF 8
ENDMDL
MODEL 3
REMARK VINA RESULT:      -7.9      2.958     10.555
REMARK  Name = 
REMARK  8 active torsions:
REMARK  status: ('A' for Active; 'I' for Inactive)
REMARK    1  A    between atoms: C_2  and  O_3
REMARK    2  A    between atoms: C_2  and  C_4
REMARK    3  A    between atoms: C_6  and  N_7
REMARK    4  A    between atoms: N_7  and  N_8
REMARK    5  A    between atoms: C_9  and  C_10
REMARK    6  A    between atoms: C_13  and  C_14
REMARK    7  A    between atoms: C_19  and  C_20
REMARK    8  A    between atoms: C_20  and  O_22
REMARK                            x       y       z     vdW  Elec       q    Type
REMARK                         _______ _______ _______ _____ _____    ______ ____
ROOT
ATOM      1  C   UNL     1       0.770   9.436  20.887  0.00  0.00    +0.000 A 
ATOM      2  C   UNL     1       0.790   8.787  22.105  0.00  0.00    +0.000 A 
ATOM      3  C   UNL     1       0.068   9.590  23.006  0.00  0.00    +0.000 A 
ATOM      4  C   UNL     1      -0.367  10.699  22.303  0.00  0.00    +0.000 A 
ATOM      5  O   UNL     1       0.064  10.609  21.001  0.00  0.00    +0.000 OA
ENDROOT
BRANCH   4   6
ATOM      6  C   UNL     1      -1.172  11.859  22.701  0.00  0.00    +0.000 A 
ATOM      7  C   UNL     1      -0.663  13.148  22.487  0.00  0.00    +0.000 A 
ATOM      8  C   UNL     1      -1.368  14.284  22.885  0.00  0.00    +0.000 A 
ATOM      9  C   UNL     1      -2.612  14.164  23.509  0.00  0.00    +0.000 A 
ATOM     10 CL   UNL     1      -3.360  15.654  23.963  0.00  0.00    +0.000 Cl
ATOM     11  C   UNL     1      -3.163  12.894  23.729  0.00  0.00    +0.000 A 
ATOM     12  C   UNL     1      -2.430  11.750  23.314  0.00  0.00    +0.000 A 
BRANCH  11  13
ATOM     13  C   UNL     1      -4.479  12.616  24.379  0.00  0.00    +0.000 C 
ATOM     14  O   UNL     1      -5.498  12.475  23.720  0.00  0.00    +0.000 OA
BRANCH  13  15
ATOM     15  O   UNL     1      -4.514  12.518  25.724  0.00  0.00    +0.000 OA
ATOM     16  H   UNL     1      -4.772  13.331  26.207  0.00  0.00    +0.000 HD
ENDBRANCH  13  15
ENDBRANCH  11  13
ENDBRANCH   4   6
BRANCH   1  18
ATOM     17  N   UNL     1       2.021   7.935  19.575  0.00  0.00    +0.000 NA
ATOM     18  C   UNL     1       1.360   9.050  19.629  0.00  0.00    +0.000 C 
BRANCH  17  19
ATOM     19  N   UNL     1       2.595   7.581  18.395  0.00  0.00    +0.000 N 
ATOM     20  H   UNL     1       2.536   8.178  17.572  0.00  0.00    +0.000 HD
BRANCH  19  23
ATOM     21  C   UNL     1       4.313   4.383  17.469  0.00  0.00    +0.000 A 
ATOM     22  C   UNL     1       4.033   5.760  17.627  0.00  0.00    +0.000 A 
ATOM     23  C   UNL     1       2.815   6.206  18.158  0.00  0.00    +0.000 A 
ATOM     24  C   UNL     1       1.881   5.234  18.544  0.00  0.00    +0.000 A 
ATOM     25  C   UNL     1       2.139   3.870  18.389  0.00  0.00    +0.000 A 
ATOM     26  C   UNL     1       3.351   3.440  17.852  0.00  0.00    +0.000 A 
ATOM     27 CL   UNL     1       3.572   1.733  17.701  0.00  0.00    +0.000 Cl
BRANCH  21  29
ATOM     28  O   UNL     1       5.736   3.727  15.694  0.00  0.00    +0.000 OA
ATOM     29  C   UNL     1       5.630   4.043  16.869  0.00  0.00    +0.000 C 
BRANCH  29  30
ATOM     30  O   UNL     1       6.701   4.200  17.670  0.00  0.00    +0.000 OA
ATOM     31  H   UNL     1       7.078   3.375  18.035  0.00  0.00    +0.000 HD
ENDBRANCH  29  30
ENDBRANCH  21  29
ENDBRANCH  19  23
ENDBRANCH  17  19
ENDBRANCH   1  18
TORSDOF 8
ENDMDL
MODEL 4
REMARK VINA RESULT:      -7.9      4.708      6.307
REMARK  Name = 
REMARK  8 active torsions:
REMARK  status: ('A' for Active; 'I' for Inactive)
REMARK    1  A    between atoms: C_2  and  O_3
REMARK    2  A    between atoms: C_2  and  C_4
REMARK    3  A    between atoms: C_6  and  N_7
REMARK    4  A    between atoms: N_7  and  N_8
REMARK    5  A    between atoms: C_9  and  C_10
REMARK    6  A    between atoms: C_13  and  C_14
REMARK    7  A    between atoms: C_19  and  C_20
REMARK    8  A    between atoms: C_20  and  O_22
REMARK                            x       y       z     vdW  Elec       q    Type
REMARK                         _______ _______ _______ _____ _____    ______ ____
ROOT
ATOM      1  C   UNL     1       3.037   4.398  18.928  0.00  0.00    +0.000 A 
ATOM      2  C   UNL     1       2.939   3.034  18.741  0.00  0.00    +0.000 A 
ATOM      3  C   UNL     1       3.744   2.716  17.632  0.00  0.00    +0.000 A 
ATOM      4  C   UNL     1       4.305   3.898  17.185  0.00  0.00    +0.000 A 
ATOM      5  O   UNL     1       3.872   4.935  17.976  0.00  0.00    +0.000 OA
ENDROOT
BRANCH   4   6
ATOM      6  C   UNL     1       5.234   4.191  16.088  0.00  0.00    +0.000 A 
ATOM      7  C   UNL     1       6.281   5.097  16.303  0.00  0.00    +0.000 A 
ATOM      8  C   UNL     1       7.166   5.442  15.281  0.00  0.00    +0.000 A 
ATOM      9  C   UNL     1       7.031   4.886  14.008  0.00  0.00    +0.000 A 
ATOM     10 CL   UNL     1       8.186   5.420  12.838  0.00  0.00    +0.000 Cl
ATOM     11  C   UNL     1       6.005   3.964  13.754  0.00  0.00    +0.000 A 
ATOM     12  C   UNL     1       5.117   3.624  14.809  0.00  0.00    +0.000 A 
BRANCH  11  13
ATOM     13  C   UNL     1       5.744   3.290  12.447  0.00  0.00    +0.000 C 
ATOM     14  O   UNL     1       4.697   3.461  11.841  0.00  0.00    +0.000 OA
BRANCH  13  15
ATOM     15  O   UNL     1       6.703   2.487  11.943  0.00  0.00    +0.000 OA
ATOM     16  H   UNL     1       6.391   1.746  11.383  0.00  0.00    +0.000 HD
ENDBRANCH  13  15
ENDBRANCH  11  13
ENDBRANCH   4   6
BRANCH   1  18
ATOM     17  N   UNL     1       2.509   6.526  19.784  0.00  0.00    +0.000 NA
ATOM     18  C   UNL     1       2.413   5.239  19.919  0.00  0.00    +0.000 C 
BRANCH  17  19
ATOM     19  N   UNL     1       1.939   7.318  20.729  0.00  0.00    +0.000 N 
ATOM     20  H   UNL     1       1.622   6.943  21.621  0.00  0.00    +0.000 HD
BRANCH  19  23
ATOM     21  C   UNL     1       0.028  10.540  20.810  0.00  0.00    +0.000 A 
ATOM     22  C   UNL     1       0.573   9.293  21.191  0.00  0.00    +0.000 A 
ATOM     23  C   UNL     1       1.324   8.515  20.298  0.00  0.00    +0.000 A 
ATOM     24  C   UNL     1       1.531   9.026  19.009  0.00  0.00    +0.000 A 
ATOM     25  C   UNL     1       0.994  10.254  18.615  0.00  0.00    +0.000 A 
ATOM     26  C   UNL     1       0.242  11.013  19.510  0.00  0.00    +0.000 A 
ATOM     27 CL   UNL     1      -0.379  12.515  18.925  0.00  0.00    +0.000 Cl
BRANCH  21  29
ATOM     28  O   UNL     1      -1.785  11.868  21.555  0.00  0.00    +0.000 OA
ATOM     29  C   UNL     1      -0.771  11.253  21.842  0.00  0.00    +0.000 C 
BRANCH  29  30
ATOM     30  O   UNL     1      -0.362  11.095  23.117  0.00  0.00    +0.000 OA
ATOM     31  H   UNL     1       0.175  10.297  23.290  0.00  0.00    +0.000 HD
ENDBRANCH  29  30
ENDBRANCH  21  29
ENDBRANCH  19  23
ENDBRANCH  17  19
ENDBRANCH   1  18
TORSDOF 8
ENDMDL
MODEL 5
REMARK VINA RESULT:      -7.9      2.238      2.527
REMARK  Name = 
REMARK  8 active torsions:
REMARK  status: ('A' for Active; 'I' for Inactive)
REMARK    1  A    between atoms: C_2  and  O_3
REMARK    2  A    between atoms: C_2  and  C_4
REMARK    3  A    between atoms: C_6  and  N_7
REMARK    4  A    between atoms: N_7  and  N_8
REMARK    5  A    between atoms: C_9  and  C_10
REMARK    6  A    between atoms: C_13  and  C_14
REMARK    7  A    between atoms: C_19  and  C_20
REMARK    8  A    between atoms: C_20  and  O_22
REMARK                            x       y       z     vdW  Elec       q    Type
REMARK                         _______ _______ _______ _____ _____    ______ ____
ROOT
ATOM      1  C   UNL     1       0.900   9.335  19.804  0.00  0.00    +0.000 A 
ATOM      2  C   UNL     1       1.125  10.186  18.741  0.00  0.00    +0.000 A 
ATOM      3  C   UNL     1       1.976   9.508  17.849  0.00  0.00    +0.000 A 
ATOM      4  C   UNL     1       2.238   8.268  18.401  0.00  0.00    +0.000 A 
ATOM      5  O   UNL     1       1.581   8.157  19.603  0.00  0.00    +0.000 OA
ENDROOT
BRANCH   4   6
ATOM      6  C   UNL     1       3.036   7.131  17.927  0.00  0.00    +0.000 A 
ATOM      7  C   UNL     1       4.218   7.377  17.215  0.00  0.00    +0.000 A 
ATOM      8  C   UNL     1       4.990   6.332  16.706  0.00  0.00    +0.000 A 
ATOM      9  C   UNL     1       4.603   5.004  16.899  0.00  0.00    +0.000 A 
ATOM     10 CL   UNL     1       5.646   3.818  16.197  0.00  0.00    +0.000 Cl
ATOM     11  C   UNL     1       3.435   4.715  17.619  0.00  0.00    +0.000 A 
ATOM     12  C   UNL     1       2.664   5.793  18.130  0.00  0.00    +0.000 A 
BRANCH  11  13
ATOM     13  C   UNL     1       2.903   3.348  17.903  0.00  0.00    +0.000 C 
ATOM     14  O   UNL     1       1.960   2.889  17.277  0.00  0.00    +0.000 OA
BRANCH  13  15
ATOM     15  O   UNL     1       3.499   2.625  18.873  0.00  0.00    +0.000 OA
ATOM     16  H   UNL     1       3.035   1.804  19.142  0.00  0.00    +0.000 HD
ENDBRANCH  13  15
ENDBRANCH  11  13
ENDBRANCH   4   6
BRANCH   1  18
ATOM     17  N   UNL     1       0.379  10.550  21.750  0.00  0.00    +0.000 NA
ATOM     18  C   UNL     1       0.107   9.534  20.991  0.00  0.00    +0.000 C 
BRANCH  17  19
ATOM     19  N   UNL     1      -0.355  10.726  22.880  0.00  0.00    +0.000 N 
ATOM     20  H   UNL     1      -0.576   9.949  23.500  0.00  0.00    +0.000 HD
BRANCH  19  23
ATOM     21  C   UNL     1      -3.365  12.828  23.628  0.00  0.00    +0.000 A 
ATOM     22  C   UNL     1      -2.510  11.712  23.480  0.00  0.00    +0.000 A 
ATOM     23  C   UNL     1      -1.226  11.837  22.930  0.00  0.00    +0.000 A 
ATOM     24  C   UNL     1      -0.809  13.118  22.543  0.00  0.00    +0.000 A 
ATOM     25  C   UNL     1      -1.643  14.230  22.676  0.00  0.00    +0.000 A 
ATOM     26  C   UNL     1      -2.921  14.091  23.217  0.00  0.00    +0.000 A 
ATOM     27 CL   UNL     1      -3.875  15.526  23.338  0.00  0.00    +0.000 Cl
BRANCH  21  29
ATOM     28  O   UNL     1      -5.712  12.540  23.500  0.00  0.00    +0.000 OA
ATOM     29  C   UNL     1      -4.711  12.556  24.199  0.00  0.00    +0.000 C 
BRANCH  29  30
ATOM     30  O   UNL     1      -4.742  12.234  25.506  0.00  0.00    +0.000 OA
ATOM     31  H   UNL     1      -4.569  11.294  25.713  0.00  0.00    +0.000 HD
ENDBRANCH  29  30
ENDBRANCH  21  29
ENDBRANCH  19  23
ENDBRANCH  17  19
ENDBRANCH   1  18
TORSDOF 8
ENDMDL
MODEL 6
REMARK VINA RESULT:      -7.8      2.627      3.240
REMARK  Name = 
REMARK  8 active torsions:
REMARK  status: ('A' for Active; 'I' for Inactive)
REMARK    1  A    between atoms: C_2  and  O_3
REMARK    2  A    between atoms: C_2  and  C_4
REMARK    3  A    between atoms: C_6  and  N_7
REMARK    4  A    between atoms: N_7  and  N_8
REMARK    5  A    between atoms: C_9  and  C_10
REMARK    6  A    between atoms: C_13  and  C_14
REMARK    7  A    between atoms: C_19  and  C_20
REMARK    8  A    between atoms: C_20  and  O_22
REMARK                            x       y       z     vdW  Elec       q    Type
REMARK                         _______ _______ _______ _____ _____    ______ ____
ROOT
ATOM      1  C   UNL     1       0.900   9.195  19.823  0.00  0.00    +0.000 A 
ATOM      2  C   UNL     1       0.976   8.497  21.011  0.00  0.00    +0.000 A 
ATOM      3  C   UNL     1       1.818   7.393  20.781  0.00  0.00    +0.000 A 
ATOM      4  C   UNL     1       2.226   7.460  19.462  0.00  0.00    +0.000 A 
ATOM      5  O   UNL     1       1.662   8.565  18.868  0.00  0.00    +0.000 OA
ENDROOT
BRANCH   4   6
ATOM      6  C   UNL     1       3.113   6.608  18.663  0.00  0.00    +0.000 A 
ATOM      7  C   UNL     1       3.794   7.164  17.572  0.00  0.00    +0.000 A 
ATOM      8  C   UNL     1       4.616   6.387  16.755  0.00  0.00    +0.000 A 
ATOM      9  C   UNL     1       4.785   5.025  17.009  0.00  0.00    +0.000 A 
ATOM     10 CL   UNL     1       5.816   4.186  15.904  0.00  0.00    +0.000 Cl
ATOM     11  C   UNL     1       4.133   4.432  18.100  0.00  0.00    +0.000 A 
ATOM     12  C   UNL     1       3.302   5.241  18.920  0.00  0.00    +0.000 A 
BRANCH  11  13
ATOM     13  C   UNL     1       4.223   2.993  18.491  0.00  0.00    +0.000 C 
ATOM     14  O   UNL     1       3.539   2.141  17.943  0.00  0.00    +0.000 OA
BRANCH  13  15
ATOM     15  O   UNL     1       5.089   2.653  19.466  0.00  0.00    +0.000 OA
ATOM     16  H   UNL     1       5.917   3.176  19.507  0.00  0.00    +0.000 HD
ENDBRANCH  13  15
ENDBRANCH  11  13
ENDBRANCH   4   6
BRANCH   1  18
ATOM     17  N   UNL     1      -0.333  10.519  18.318  0.00  0.00    +0.000 NA
ATOM     18  C   UNL     1       0.171  10.398  19.508  0.00  0.00    +0.000 C 
BRANCH  17  19
ATOM     19  N   UNL     1      -1.002  11.662  18.014  0.00  0.00    +0.000 N 
ATOM     20  H   UNL     1      -0.570  12.578  18.117  0.00  0.00    +0.000 HD
BRANCH  19  23
ATOM     21  C   UNL     1      -4.521  12.209  19.180  0.00  0.00    +0.000 A 
ATOM     22  C   UNL     1      -3.109  12.146  19.157  0.00  0.00    +0.000 A 
ATOM     23  C   UNL     1      -2.414  11.627  18.055  0.00  0.00    +0.000 A 
ATOM     24  C   UNL     1      -3.171  11.182  16.962  0.00  0.00    +0.000 A 
ATOM     25  C   UNL     1      -4.567  11.231  16.971  0.00  0.00    +0.000 A 
ATOM     26  C   UNL     1      -5.246  11.742  18.077  0.00  0.00    +0.000 A 
ATOM     27 CL   UNL     1      -6.971  11.758  17.991  0.00  0.00    +0.000 Cl
BRANCH  21  29
ATOM     28  O   UNL     1      -5.466  12.031  21.344  0.00  0.00    +0.000 OA
ATOM     29  C   UNL     1      -5.135  12.756  20.418  0.00  0.00    +0.000 C 
BRANCH  29  30
ATOM     30  O   UNL     1      -5.214  14.098  20.494  0.00  0.00    +0.000 OA
ATOM     31  H   UNL     1      -5.872  14.515  19.903  0.00  0.00    +0.000 HD
ENDBRANCH  29  30
ENDBRANCH  21  29
ENDBRANCH  19  23
ENDBRANCH  17  19
ENDBRANCH   1  18
TORSDOF 8
ENDMDL
MODEL 7
REMARK VINA RESULT:      -7.8      3.564      4.914
REMARK  Name = 
REMARK  8 active torsions:
REMARK  status: ('A' for Active; 'I' for Inactive)
REMARK    1  A    between atoms: C_2  and  O_3
REMARK    2  A    between atoms: C_2  and  C_4
REMARK    3  A    between atoms: C_6  and  N_7
REMARK    4  A    between atoms: N_7  and  N_8
REMARK    5  A    between atoms: C_9  and  C_10
REMARK    6  A    between atoms: C_13  and  C_14
REMARK    7  A    between atoms: C_19  and  C_20
REMARK    8  A    between atoms: C_20  and  O_22
REMARK                            x       y       z     vdW  Elec       q    Type
REMARK                         _______ _______ _______ _____ _____    ______ ____
ROOT
ATOM      1  C   UNL     1       1.500   7.831  20.357  0.00  0.00    +0.000 A 
ATOM      2  C   UNL     1       1.324   6.697  21.125  0.00  0.00    +0.000 A 
ATOM      3  C   UNL     1       2.070   5.672  20.514  0.00  0.00    +0.000 A 
ATOM      4  C   UNL     1       2.674   6.219  19.397  0.00  0.00    +0.000 A 
ATOM      5  O   UNL     1       2.325   7.545  19.295  0.00  0.00    +0.000 OA
ENDROOT
BRANCH   4   6
ATOM      6  C   UNL     1       3.575   5.649  18.389  0.00  0.00    +0.000 A 
ATOM      7  C   UNL     1       3.158   4.529  17.657  0.00  0.00    +0.000 A 
ATOM      8  C   UNL     1       3.993   3.923  16.717  0.00  0.00    +0.000 A 
ATOM      9  C   UNL     1       5.275   4.423  16.480  0.00  0.00    +0.000 A 
ATOM     10 CL   UNL     1       6.202   3.560  15.304  0.00  0.00    +0.000 Cl
ATOM     11  C   UNL     1       5.725   5.551  17.181  0.00  0.00    +0.000 A 
ATOM     12  C   UNL     1       4.859   6.154  18.131  0.00  0.00    +0.000 A 
BRANCH  11  13
ATOM     13  C   UNL     1       7.065   6.193  17.028  0.00  0.00    +0.000 C 
ATOM     14  O   UNL     1       7.612   6.272  15.939  0.00  0.00    +0.000 OA
BRANCH  13  15
ATOM     15  O   UNL     1       7.658   6.695  18.130  0.00  0.00    +0.000 OA
ATOM     16  H   UNL     1       7.160   7.393  18.605  0.00  0.00    +0.000 HD
ENDBRANCH  13  15
ENDBRANCH  11  13
ENDBRANCH   4   6
BRANCH   1  18
ATOM     17  N   UNL     1       1.032   9.988  19.541  0.00  0.00    +0.000 NA
ATOM     18  C   UNL     1       0.958   9.155  20.533  0.00  0.00    +0.000 C 
BRANCH  17  19
ATOM     19  N   UNL     1       0.540  11.243  19.714  0.00  0.00    +0.000 N 
ATOM     20  H   UNL     1       0.914  11.870  20.423  0.00  0.00    +0.000 HD
BRANCH  19  23
ATOM     21  C   UNL     1      -2.575  11.198  17.633  0.00  0.00    +0.000 A 
ATOM     22  C   UNL     1      -1.229  11.044  18.039  0.00  0.00    +0.000 A 
ATOM     23  C   UNL     1      -0.784  11.493  19.291  0.00  0.00    +0.000 A 
ATOM     24  C   UNL     1      -1.727  12.091  20.139  0.00  0.00    +0.000 A 
ATOM     25  C   UNL     1      -3.058  12.256  19.749  0.00  0.00    +0.000 A 
ATOM     26  C   UNL     1      -3.487  11.813  18.499  0.00  0.00    +0.000 A 
ATOM     27 CL   UNL     1      -5.151  12.066  18.112  0.00  0.00    +0.000 Cl
BRANCH  21  29
ATOM     28  O   UNL     1      -2.990   9.512  16.023  0.00  0.00    +0.000 OA
ATOM     29  C   UNL     1      -2.912  10.704  16.271  0.00  0.00    +0.000 C 
BRANCH  29  30
ATOM     30  O   UNL     1      -3.218  11.649  15.361  0.00  0.00    +0.000 OA
ATOM     31  H   UNL     1      -4.163  11.892  15.308  0.00  0.00    +0.000 HD
ENDBRANCH  29  30
ENDBRANCH  21  29
ENDBRANCH  19  23
ENDBRANCH  17  19
ENDBRANCH   1  18
TORSDOF 8
ENDMDL
MODEL 8
REMARK VINA RESULT:      -7.8      1.728      2.313
REMARK  Name = 
REMARK  8 active torsions:
REMARK  status: ('A' for Active; 'I' for Inactive)
REMARK    1  A    between atoms: C_2  and  O_3
REMARK    2  A    between atoms: C_2  and  C_4
REMARK    3  A    between atoms: C_6  and  N_7
REMARK    4  A    between atoms: N_7  and  N_8
REMARK    5  A    between atoms: C_9  and  C_10
REMARK    6  A    between atoms: C_13  and  C_14
REMARK    7  A    between atoms: C_19  and  C_20
REMARK    8  A    between atoms: C_20  and  O_22
REMARK                            x       y       z     vdW  Elec       q    Type
REMARK                         _______ _______ _______ _____ _____    ______ ____
ROOT
ATOM      1  C   UNL     1       1.093   9.662  19.686  0.00  0.00    +0.000 A 
ATOM      2  C   UNL     1       1.325   9.808  18.333  0.00  0.00    +0.000 A 
ATOM      3  C   UNL     1       1.958   8.628  17.899  0.00  0.00    +0.000 A 
ATOM      4  C   UNL     1       2.087   7.806  19.003  0.00  0.00    +0.000 A 
ATOM      5  O   UNL     1       1.559   8.438  20.104  0.00  0.00    +0.000 OA
ENDROOT
BRANCH   4   6
ATOM      6  C   UNL     1       2.643   6.459  19.164  0.00  0.00    +0.000 A 
ATOM      7  C   UNL     1       2.125   5.621  20.162  0.00  0.00    +0.000 A 
ATOM      8  C   UNL     1       2.648   4.347  20.385  0.00  0.00    +0.000 A 
ATOM      9  C   UNL     1       3.707   3.869  19.611  0.00  0.00    +0.000 A 
ATOM     10 CL   UNL     1       4.262   2.282  20.012  0.00  0.00    +0.000 Cl
ATOM     11  C   UNL     1       4.245   4.669  18.593  0.00  0.00    +0.000 A 
ATOM     12  C   UNL     1       3.697   5.963  18.381  0.00  0.00    +0.000 A 
BRANCH  11  13
ATOM     13  C   UNL     1       5.371   4.289  17.689  0.00  0.00    +0.000 C 
ATOM     14  O   UNL     1       5.199   4.126  16.491  0.00  0.00    +0.000 OA
BRANCH  13  15
ATOM     15  O   UNL     1       6.596   4.134  18.232  0.00  0.00    +0.000 OA
ATOM     16  H   UNL     1       6.976   3.232  18.183  0.00  0.00    +0.000 HD
ENDBRANCH  13  15
ENDBRANCH  11  13
ENDBRANCH   4   6
BRANCH   1  18
ATOM     17  N   UNL     1       0.023  11.702  20.165  0.00  0.00    +0.000 NA
ATOM     18  C   UNL     1       0.477  10.574  20.617  0.00  0.00    +0.000 C 
BRANCH  17  19
ATOM     19  N   UNL     1      -0.538  12.571  21.046  0.00  0.00    +0.000 N 
ATOM     20  H   UNL     1      -0.017  12.941  21.839  0.00  0.00    +0.000 HD
BRANCH  19  23
ATOM     21  C   UNL     1      -3.954  12.770  22.573  0.00  0.00    +0.000 A 
ATOM     22  C   UNL     1      -2.550  12.682  22.431  0.00  0.00    +0.000 A 
ATOM     23  C   UNL     1      -1.945  12.561  21.172  0.00  0.00    +0.000 A 
ATOM     24  C   UNL     1      -2.784  12.544  20.048  0.00  0.00    +0.000 A 
ATOM     25  C   UNL     1      -4.173  12.623  20.172  0.00  0.00    +0.000 A 
ATOM     26  C   UNL     1      -4.762  12.736  21.430  0.00  0.00    +0.000 A 
ATOM     27 CL   UNL     1      -6.487  12.825  21.476  0.00  0.00    +0.000 Cl
BRANCH  21  29
ATOM     28  O   UNL     1      -4.650  11.875  24.652  0.00  0.00    +0.000 OA
ATOM     29  C   UNL     1      -4.470  12.867  23.964  0.00  0.00    +0.000 C 
BRANCH  29  30
ATOM     30  O   UNL     1      -4.632  14.115  24.447  0.00  0.00    +0.000 OA
ATOM     31  H   UNL     1      -4.366  14.837  23.844  0.00  0.00    +0.000 HD
ENDBRANCH  29  30
ENDBRANCH  21  29
ENDBRANCH  19  23
ENDBRANCH  17  19
ENDBRANCH   1  18
TORSDOF 8
ENDMDL
MODEL 9
REMARK VINA RESULT:      -7.8      2.591     10.469
REMARK  Name = 
REMARK  8 active torsions:
REMARK  status: ('A' for Active; 'I' for Inactive)
REMARK    1  A    between atoms: C_2  and  O_3
REMARK    2  A    between atoms: C_2  and  C_4
REMARK    3  A    between atoms: C_6  and  N_7
REMARK    4  A    between atoms: N_7  and  N_8
REMARK    5  A    between atoms: C_9  and  C_10
REMARK    6  A    between atoms: C_13  and  C_14
REMARK    7  A    between atoms: C_19  and  C_20
REMARK    8  A    between atoms: C_20  and  O_22
REMARK                            x       y       z     vdW  Elec       q    Type
REMARK                         _______ _______ _______ _____ _____    ______ ____
ROOT
ATOM      1  C   UNL     1       0.493   9.661  21.231  0.00  0.00    +0.000 A 
ATOM      2  C   UNL     1       0.856  10.536  20.227  0.00  0.00    +0.000 A 
ATOM      3  C   UNL     1       0.257  11.773  20.528  0.00  0.00    +0.000 A 
ATOM      4  C   UNL     1      -0.448  11.607  21.706  0.00  0.00    +0.000 A 
ATOM      5  O   UNL     1      -0.308  10.310  22.140  0.00  0.00    +0.000 OA
ENDROOT
BRANCH   4   6
ATOM      6  C   UNL     1      -1.249  12.536  22.510  0.00  0.00    +0.000 A 
ATOM      7  C   UNL     1      -0.742  13.814  22.784  0.00  0.00    +0.000 A 
ATOM      8  C   UNL     1      -1.445  14.719  23.580  0.00  0.00    +0.000 A 
ATOM      9  C   UNL     1      -2.683  14.373  24.125  0.00  0.00    +0.000 A 
ATOM     10 CL   UNL     1      -3.428  15.588  25.103  0.00  0.00    +0.000 Cl
ATOM     11  C   UNL     1      -3.233  13.110  23.863  0.00  0.00    +0.000 A 
ATOM     12  C   UNL     1      -2.502  12.204  23.049  0.00  0.00    +0.000 A 
BRANCH  11  13
ATOM     13  C   UNL     1      -4.543  12.608  24.375  0.00  0.00    +0.000 C 
ATOM     14  O   UNL     1      -4.681  12.262  25.538  0.00  0.00    +0.000 OA
BRANCH  13  15
ATOM     15  O   UNL     1      -5.580  12.551  23.516  0.00  0.00    +0.000 OA
ATOM     16  H   UNL     1      -5.729  13.350  22.969  0.00  0.00    +0.000 HD
ENDBRANCH  13  15
ENDBRANCH  11  13
ENDBRANCH   4   6
BRANCH   1  18
ATOM     17  N   UNL     1       1.673   7.733  20.579  0.00  0.00    +0.000 NA
ATOM     18  C   UNL     1       0.831   8.271  21.407  0.00  0.00    +0.000 C 
BRANCH  17  19
ATOM     19  N   UNL     1       1.975   6.416  20.731  0.00  0.00    +0.000 N 
ATOM     20  H   UNL     1       1.987   5.973  21.648  0.00  0.00    +0.000 HD
BRANCH  19  23
ATOM     21  C   UNL     1       3.750   3.776  18.752  0.00  0.00    +0.000 A 
ATOM     22  C   UNL     1       3.052   4.433  19.791  0.00  0.00    +0.000 A 
ATOM     23  C   UNL     1       2.757   5.802  19.727  0.00  0.00    +0.000 A 
ATOM     24  C   UNL     1       3.169   6.502  18.585  0.00  0.00    +0.000 A 
ATOM     25  C   UNL     1       3.866   5.870  17.552  0.00  0.00    +0.000 A 
ATOM     26  C   UNL     1       4.160   4.509  17.631  0.00  0.00    +0.000 A 
ATOM     27 CL   UNL     1       5.027   3.822  16.304  0.00  0.00    +0.000 Cl
BRANCH  21  29
ATOM     28  O   UNL     1       3.384   1.468  18.369  0.00  0.00    +0.000 OA
ATOM     29  C   UNL     1       4.023   2.329  18.954  0.00  0.00    +0.000 C 
BRANCH  29  30
ATOM     30  O   UNL     1       5.075   2.032  19.742  0.00  0.00    +0.000 OA
ATOM     31  H   UNL     1       5.876   2.572  19.595  0.00  0.00    +0.000 HD
ENDBRANCH  29  30
ENDBRANCH  21  29
ENDBRANCH  19  23
ENDBRANCH  17  19
ENDBRANCH   1  18
TORSDOF 8
ENDMDL
