MODEL 1
REMARK VINA RESULT:      -7.4      0.000      0.000
REMARK  Name = 
REMARK  3 active torsions:
REMARK  status: ('A' for Active; 'I' for Inactive)
REMARK    1  A    between atoms: N_1  and  C_2
REMARK    2  A    between atoms: C_7  and  C_8
REMARK    3  A    between atoms: N_10  and  C_11
REMARK                            x       y       z     vdW  Elec       q    Type
REMARK                         _______ _______ _______ _____ _____    ______ ____
ROOT
ATOM      1  C   UNL     1      -0.747  11.204  21.460  0.00  0.00    +0.000 A 
ATOM      2  C   UNL     1      -0.531  10.606  22.705  0.00  0.00    +0.000 A 
ATOM      3  C   UNL     1       0.262   9.456  22.842  0.00  0.00    +0.000 A 
ATOM      4  C   UNL     1       0.846   8.931  21.684  0.00  0.00    +0.000 A 
ATOM      5  N   UNL     1       1.597   7.796  21.483  0.00  0.00    +0.000 N 
ATOM      6  C   UNL     1       1.865   7.610  20.139  0.00  0.00    +0.000 A 
ATOM      7  C   UNL     1       1.435   8.766  19.506  0.00  0.00    +0.000 A 
ATOM      8  C   UNL     1       0.725   9.558  20.448  0.00  0.00    +0.000 A 
ATOM      9  C   UNL     1      -0.038  10.735  20.347  0.00  0.00    +0.000 A 
ATOM     10  H   UNL     1       1.843   7.124  22.199  0.00  0.00    +0.000 HD
ENDROOT
BRANCH   6  11
ATOM     11  C   UNL     1       2.446   6.388  19.623  0.00  0.00    +0.000 C 
ATOM     12  O   UNL     1       2.077   5.282  20.004  0.00  0.00    +0.000 OA
ATOM     13  N   UNL     1       3.407   6.568  18.653  0.00  0.00    +0.000 N 
ATOM     14  H   UNL     1       3.585   7.507  18.332  0.00  0.00    +0.000 HD
BRANCH  13  15
ATOM     15  C   UNL     1       4.018   5.472  17.895  0.00  0.00    +0.000 C 
ATOM     16  C   UNL     1       4.613   6.024  16.591  0.00  0.00    +0.000 C 
ATOM     17  C   UNL     1       5.198   4.988  15.630  0.00  0.00    +0.000 C 
ATOM     18  C   UNL     1       6.482   4.257  16.032  0.00  0.00    +0.000 C 
ATOM     19  C   UNL     1       7.525   5.090  16.777  0.00  0.00    +0.000 C 
ATOM     20  C   UNL     1       7.532   4.873  18.290  0.00  0.00    +0.000 C 
ATOM     21  C   UNL     1       6.336   5.424  19.071  0.00  0.00    +0.000 C 
ATOM     22  C   UNL     1       5.003   4.717  18.803  0.00  0.00    +0.000 C 
ENDBRANCH  13  15
ENDBRANCH   6  11
BRANCH   1  23
ATOM     23  N   UNL     1      -1.505  12.381  21.357  0.00  0.00    +0.000 N 
ATOM     24  H   UNL     1      -2.015  12.448  20.482  0.00  0.00    +0.000 HD
ATOM     25  H   UNL     1      -0.958  13.218  21.537  0.00  0.00    +0.000 HD
ENDBRANCH   1  23
TORSDOF 3
ENDMDL
MODEL 2
REMARK VINA RESULT:      -7.3      1.881      2.846
REMARK  Name = 
REMARK  3 active torsions:
REMARK  status: ('A' for Active; 'I' for Inactive)
REMARK    1  A    between atoms: N_1  and  C_2
REMARK    2  A    between atoms: C_7  and  C_8
REMARK    3  A    between atoms: N_10  and  C_11
REMARK                            x       y       z     vdW  Elec       q    Type
REMARK                         _______ _______ _______ _____ _____    ______ ____
ROOT
ATOM      1  C   UNL     1      -1.109  11.775  22.358  0.00  0.00    +0.000 A 
ATOM      2  C   UNL     1      -0.937  10.673  23.202  0.00  0.00    +0.000 A 
ATOM      3  C   UNL     1      -0.181   9.556  22.810  0.00  0.00    +0.000 A 
ATOM      4  C   UNL     1       0.414   9.590  21.544  0.00  0.00    +0.000 A 
ATOM      5  N   UNL     1       1.137   8.641  20.858  0.00  0.00    +0.000 N 
ATOM      6  C   UNL     1       1.429   9.071  19.577  0.00  0.00    +0.000 A 
ATOM      7  C   UNL     1       1.047  10.403  19.530  0.00  0.00    +0.000 A 
ATOM      8  C   UNL     1       0.338  10.710  20.723  0.00  0.00    +0.000 A 
ATOM      9  C   UNL     1      -0.388  11.832  21.159  0.00  0.00    +0.000 A 
ATOM     10  H   UNL     1       1.347   7.710  21.196  0.00  0.00    +0.000 HD
ENDROOT
BRANCH   6  11
ATOM     11  C   UNL     1       1.986   8.193  18.569  0.00  0.00    +0.000 C 
ATOM     12  O   UNL     1       2.296   8.600  17.454  0.00  0.00    +0.000 OA
ATOM     13  N   UNL     1       2.170   6.889  18.973  0.00  0.00    +0.000 N 
ATOM     14  H   UNL     1       1.974   6.660  19.934  0.00  0.00    +0.000 HD
BRANCH  13  15
ATOM     15  C   UNL     1       2.850   5.872  18.165  0.00  0.00    +0.000 C 
ATOM     16  C   UNL     1       4.033   5.299  18.960  0.00  0.00    +0.000 C 
ATOM     17  C   UNL     1       4.916   4.295  18.216  0.00  0.00    +0.000 C 
ATOM     18  C   UNL     1       4.338   2.919  17.877  0.00  0.00    +0.000 C 
ATOM     19  C   UNL     1       3.421   2.297  18.931  0.00  0.00    +0.000 C 
ATOM     20  C   UNL     1       1.930   2.435  18.621  0.00  0.00    +0.000 C 
ATOM     21  C   UNL     1       1.331   3.839  18.733  0.00  0.00    +0.000 C 
ATOM     22  C   UNL     1       1.818   4.840  17.679  0.00  0.00    +0.000 C 
ENDBRANCH  13  15
ENDBRANCH   6  11
BRANCH   1  23
ATOM     23  N   UNL     1      -1.830  12.897  22.792  0.00  0.00    +0.000 N 
ATOM     24  H   UNL     1      -2.593  12.660  23.417  0.00  0.00    +0.000 HD
ATOM     25  H   UNL     1      -2.144  13.485  22.025  0.00  0.00    +0.000 HD
ENDBRANCH   1  23
TORSDOF 3
ENDMDL
MODEL 3
REMARK VINA RESULT:      -7.2      1.640      7.934
REMARK  Name = 
REMARK  3 active torsions:
REMARK  status: ('A' for Active; 'I' for Inactive)
REMARK    1  A    between atoms: N_1  and  C_2
REMARK    2  A    between atoms: C_7  and  C_8
REMARK    3  A    between atoms: N_10  and  C_11
REMARK                            x       y       z     vdW  Elec       q    Type
REMARK                         _______ _______ _______ _____ _____    ______ ____
ROOT
ATOM      1  C   UNL     1       6.688   5.535  16.556  0.00  0.00    +0.000 A 
ATOM      2  C   UNL     1       7.296   5.241  17.781  0.00  0.00    +0.000 A 
ATOM      3  C   UNL     1       6.557   5.181  18.974  0.00  0.00    +0.000 A 
ATOM      4  C   UNL     1       5.180   5.412  18.894  0.00  0.00    +0.000 A 
ATOM      5  N   UNL     1       4.218   5.495  19.874  0.00  0.00    +0.000 N 
ATOM      6  C   UNL     1       2.995   5.860  19.340  0.00  0.00    +0.000 A 
ATOM      7  C   UNL     1       3.157   5.811  17.963  0.00  0.00    +0.000 A 
ATOM      8  C   UNL     1       4.535   5.614  17.678  0.00  0.00    +0.000 A 
ATOM      9  C   UNL     1       5.292   5.623  16.493  0.00  0.00    +0.000 A 
ATOM     10  H   UNL     1       4.387   5.404  20.868  0.00  0.00    +0.000 HD
ENDROOT
BRANCH   6  11
ATOM     11  C   UNL     1       1.864   6.233  20.164  0.00  0.00    +0.000 C 
ATOM     12  O   UNL     1       1.251   5.409  20.835  0.00  0.00    +0.000 OA
ATOM     13  N   UNL     1       1.562   7.576  20.159  0.00  0.00    +0.000 N 
ATOM     14  H   UNL     1       2.174   8.197  19.653  0.00  0.00    +0.000 HD
BRANCH  13  15
ATOM     15  C   UNL     1       0.554   8.190  21.030  0.00  0.00    +0.000 C 
ATOM     16  C   UNL     1       1.256   8.974  22.148  0.00  0.00    +0.000 C 
ATOM     17  C   UNL     1       0.343   9.591  23.209  0.00  0.00    +0.000 C 
ATOM     18  C   UNL     1      -0.560  10.761  22.809  0.00  0.00    +0.000 C 
ATOM     19  C   UNL     1       0.038  11.766  21.826  0.00  0.00    +0.000 C 
ATOM     20  C   UNL     1      -0.426  11.579  20.381  0.00  0.00    +0.000 C 
ATOM     21  C   UNL     1       0.098  10.342  19.645  0.00  0.00    +0.000 C 
ATOM     22  C   UNL     1      -0.428   9.001  20.169  0.00  0.00    +0.000 C 
ENDBRANCH  13  15
ENDBRANCH   6  11
BRANCH   1  23
ATOM     23  N   UNL     1       7.441   5.542  15.372  0.00  0.00    +0.000 N 
ATOM     24  H   UNL     1       7.889   6.434  15.194  0.00  0.00    +0.000 HD
ATOM     25  H   UNL     1       6.911   5.222  14.566  0.00  0.00    +0.000 HD
ENDBRANCH   1  23
TORSDOF 3
ENDMDL
MODEL 4
REMARK VINA RESULT:      -7.1      2.594      7.841
REMARK  Name = 
REMARK  3 active torsions:
REMARK  status: ('A' for Active; 'I' for Inactive)
REMARK    1  A    between atoms: N_1  and  C_2
REMARK    2  A    between atoms: C_7  and  C_8
REMARK    3  A    between atoms: N_10  and  C_11
REMARK                            x       y       z     vdW  Elec       q    Type
REMARK                         _______ _______ _______ _____ _____    ______ ____
ROOT
ATOM      1  C   UNL     1       4.117   2.915  19.889  0.00  0.00    +0.000 A 
ATOM      2  C   UNL     1       3.119   3.059  20.858  0.00  0.00    +0.000 A 
ATOM      3  C   UNL     1       2.271   4.178  20.881  0.00  0.00    +0.000 A 
ATOM      4  C   UNL     1       2.449   5.145  19.885  0.00  0.00    +0.000 A 
ATOM      5  N   UNL     1       1.840   6.362  19.686  0.00  0.00    +0.000 N 
ATOM      6  C   UNL     1       2.420   7.040  18.629  0.00  0.00    +0.000 A 
ATOM      7  C   UNL     1       3.284   6.136  18.030  0.00  0.00    +0.000 A 
ATOM      8  C   UNL     1       3.370   4.982  18.855  0.00  0.00    +0.000 A 
ATOM      9  C   UNL     1       4.174   3.829  18.830  0.00  0.00    +0.000 A 
ATOM     10  H   UNL     1       1.130   6.765  20.285  0.00  0.00    +0.000 HD
ENDROOT
BRANCH   6  11
ATOM     11  C   UNL     1       2.126   8.428  18.338  0.00  0.00    +0.000 C 
ATOM     12  O   UNL     1       2.494   8.965  17.299  0.00  0.00    +0.000 OA
ATOM     13  N   UNL     1       1.377   9.075  19.297  0.00  0.00    +0.000 N 
ATOM     14  H   UNL     1       1.038   8.534  20.077  0.00  0.00    +0.000 HD
BRANCH  13  15
ATOM     15  C   UNL     1       0.846  10.432  19.139  0.00  0.00    +0.000 C 
ATOM     16  C   UNL     1      -0.616  10.357  18.673  0.00  0.00    +0.000 C 
ATOM     17  C   UNL     1      -1.289  11.694  18.359  0.00  0.00    +0.000 C 
ATOM     18  C   UNL     1      -1.594  12.651  19.514  0.00  0.00    +0.000 C 
ATOM     19  C   UNL     1      -2.052  12.003  20.821  0.00  0.00    +0.000 C 
ATOM     20  C   UNL     1      -0.954  11.889  21.879  0.00  0.00    +0.000 C 
ATOM     21  C   UNL     1       0.160  10.874  21.608  0.00  0.00    +0.000 C 
ATOM     22  C   UNL     1       1.086  11.222  20.437  0.00  0.00    +0.000 C 
ENDBRANCH  13  15
ENDBRANCH   6  11
BRANCH   1  23
ATOM     23  N   UNL     1       4.919   1.764  19.860  0.00  0.00    +0.000 N 
ATOM     24  H   UNL     1       5.893   1.955  20.075  0.00  0.00    +0.000 HD
ATOM     25  H   UNL     1       4.823   1.238  18.997  0.00  0.00    +0.000 HD
ENDBRANCH   1  23
TORSDOF 3
ENDMDL
MODEL 5
REMARK VINA RESULT:      -7.1      1.987      8.074
REMARK  Name = 
REMARK  3 active torsions:
REMARK  status: ('A' for Active; 'I' for Inactive)
REMARK    1  A    between atoms: N_1  and  C_2
REMARK    2  A    between atoms: C_7  and  C_8
REMARK    3  A    between atoms: N_10  and  C_11
REMARK                            x       y       z     vdW  Elec       q    Type
REMARK                         _______ _______ _______ _____ _____    ______ ____
ROOT
ATOM      1  C   UNL     1       6.437   5.538  16.729  0.00  0.00    +0.000 A 
ATOM      2  C   UNL     1       6.530   4.704  17.847  0.00  0.00    +0.000 A 
ATOM      3  C   UNL     1       5.592   4.763  18.891  0.00  0.00    +0.000 A 
ATOM      4  C   UNL     1       4.544   5.682  18.767  0.00  0.00    +0.000 A 
ATOM      5  N   UNL     1       3.532   6.024  19.635  0.00  0.00    +0.000 N 
ATOM      6  C   UNL     1       2.786   7.076  19.136  0.00  0.00    +0.000 A 
ATOM      7  C   UNL     1       3.224   7.265  17.834  0.00  0.00    +0.000 A 
ATOM      8  C   UNL     1       4.374   6.458  17.624  0.00  0.00    +0.000 A 
ATOM      9  C   UNL     1       5.303   6.344  16.574  0.00  0.00    +0.000 A 
ATOM     10  H   UNL     1       3.400   5.635  20.560  0.00  0.00    +0.000 HD
ENDROOT
BRANCH   6  11
ATOM     11  C   UNL     1       1.802   7.779  19.933  0.00  0.00    +0.000 C 
ATOM     12  O   UNL     1       1.361   7.314  20.978  0.00  0.00    +0.000 OA
ATOM     13  N   UNL     1       1.435   9.013  19.443  0.00  0.00    +0.000 N 
ATOM     14  H   UNL     1       1.914   9.360  18.627  0.00  0.00    +0.000 HD
BRANCH  13  15
ATOM     15  C   UNL     1       0.568   9.952  20.162  0.00  0.00    +0.000 C 
ATOM     16  C   UNL     1       1.228  11.339  20.185  0.00  0.00    +0.000 C 
ATOM     17  C   UNL     1       0.498  12.414  20.992  0.00  0.00    +0.000 C 
ATOM     18  C   UNL     1      -0.841  12.942  20.469  0.00  0.00    +0.000 C 
ATOM     19  C   UNL     1      -0.955  13.100  18.953  0.00  0.00    +0.000 C 
ATOM     20  C   UNL     1      -1.712  11.966  18.262  0.00  0.00    +0.000 C 
ATOM     21  C   UNL     1      -1.011  10.606  18.203  0.00  0.00    +0.000 C 
ATOM     22  C   UNL     1      -0.843   9.902  19.554  0.00  0.00    +0.000 C 
ENDBRANCH  13  15
ENDBRANCH   6  11
BRANCH   1  23
ATOM     23  N   UNL     1       7.360   5.425  15.678  0.00  0.00    +0.000 N 
ATOM     24  H   UNL     1       7.948   6.246  15.578  0.00  0.00    +0.000 HD
ATOM     25  H   UNL     1       6.925   5.168  14.797  0.00  0.00    +0.000 HD
ENDBRANCH   1  23
TORSDOF 3
ENDMDL
MODEL 6
REMARK VINA RESULT:      -7.1      2.395      3.440
REMARK  Name = 
REMARK  3 active torsions:
REMARK  status: ('A' for Active; 'I' for Inactive)
REMARK    1  A    between atoms: N_1  and  C_2
REMARK    2  A    between atoms: C_7  and  C_8
REMARK    3  A    between atoms: N_10  and  C_11
REMARK                            x       y       z     vdW  Elec       q    Type
REMARK                         _______ _______ _______ _____ _____    ______ ____
ROOT
ATOM      1  C   UNL     1      -1.524  12.008  19.618  0.00  0.00    +0.000 A 
ATOM      2  C   UNL     1      -1.116  11.682  20.915  0.00  0.00    +0.000 A 
ATOM      3  C   UNL     1      -0.100  10.743  21.154  0.00  0.00    +0.000 A 
ATOM      4  C   UNL     1       0.507  10.150  20.041  0.00  0.00    +0.000 A 
ATOM      5  N   UNL     1       1.459   9.161  19.949  0.00  0.00    +0.000 N 
ATOM      6  C   UNL     1       1.677   8.803  18.631  0.00  0.00    +0.000 A 
ATOM      7  C   UNL     1       0.984   9.733  17.869  0.00  0.00    +0.000 A 
ATOM      8  C   UNL     1       0.187  10.523  18.740  0.00  0.00    +0.000 A 
ATOM      9  C   UNL     1      -0.803  11.500  18.530  0.00  0.00    +0.000 A 
ATOM     10  H   UNL     1       1.878   8.679  20.735  0.00  0.00    +0.000 HD
ENDROOT
BRANCH   6  11
ATOM     11  C   UNL     1       2.460   7.644  18.258  0.00  0.00    +0.000 C 
ATOM     12  O   UNL     1       3.530   7.747  17.667  0.00  0.00    +0.000 OA
ATOM     13  N   UNL     1       1.929   6.435  18.648  0.00  0.00    +0.000 N 
ATOM     14  H   UNL     1       1.092   6.446  19.210  0.00  0.00    +0.000 HD
BRANCH  13  15
ATOM     15  C   UNL     1       2.623   5.152  18.503  0.00  0.00    +0.000 C 
ATOM     16  C   UNL     1       3.779   5.081  19.512  0.00  0.00    +0.000 C 
ATOM     17  C   UNL     1       4.674   3.844  19.419  0.00  0.00    +0.000 C 
ATOM     18  C   UNL     1       4.093   2.486  19.825  0.00  0.00    +0.000 C 
ATOM     19  C   UNL     1       3.143   2.492  21.022  0.00  0.00    +0.000 C 
ATOM     20  C   UNL     1       1.662   2.439  20.643  0.00  0.00    +0.000 C 
ATOM     21  C   UNL     1       1.072   3.694  19.996  0.00  0.00    +0.000 C 
ATOM     22  C   UNL     1       1.597   4.010  18.590  0.00  0.00    +0.000 C 
ENDBRANCH  13  15
ENDBRANCH   6  11
BRANCH   1  23
ATOM     23  N   UNL     1      -2.508  12.985  19.406  0.00  0.00    +0.000 N 
ATOM     24  H   UNL     1      -2.550  13.673  20.150  0.00  0.00    +0.000 HD
ATOM     25  H   UNL     1      -3.424  12.587  19.213  0.00  0.00    +0.000 HD
ENDBRANCH   1  23
TORSDOF 3
ENDMDL
MODEL 7
REMARK VINA RESULT:      -7.1      1.614      2.024
REMARK  Name = 
REMARK  3 active torsions:
REMARK  status: ('A' for Active; 'I' for Inactive)
REMARK    1  A    between atoms: N_1  and  C_2
REMARK    2  A    between atoms: C_7  and  C_8
REMARK    3  A    between atoms: N_10  and  C_11
REMARK                            x       y       z     vdW  Elec       q    Type
REMARK                         _______ _______ _______ _____ _____    ______ ____
ROOT
ATOM      1  C   UNL     1      -1.407  11.418  22.556  0.00  0.00    +0.000 A 
ATOM      2  C   UNL     1      -0.948  10.340  23.319  0.00  0.00    +0.000 A 
ATOM      3  C   UNL     1      -0.047   9.399  22.796  0.00  0.00    +0.000 A 
ATOM      4  C   UNL     1       0.393   9.586  21.481  0.00  0.00    +0.000 A 
ATOM      5  N   UNL     1       1.201   8.813  20.678  0.00  0.00    +0.000 N 
ATOM      6  C   UNL     1       1.272   9.334  19.399  0.00  0.00    +0.000 A 
ATOM      7  C   UNL     1       0.650  10.572  19.461  0.00  0.00    +0.000 A 
ATOM      8  C   UNL     1       0.028  10.699  20.732  0.00  0.00    +0.000 A 
ATOM      9  C   UNL     1      -0.840  11.651  21.297  0.00  0.00    +0.000 A 
ATOM     10  H   UNL     1       1.612   7.927  20.944  0.00  0.00    +0.000 HD
ENDROOT
BRANCH   6  11
ATOM     11  C   UNL     1       1.869   8.611  18.296  0.00  0.00    +0.000 C 
ATOM     12  O   UNL     1       2.040   9.129  17.197  0.00  0.00    +0.000 OA
ATOM     13  N   UNL     1       2.257   7.322  18.589  0.00  0.00    +0.000 N 
ATOM     14  H   UNL     1       2.164   7.006  19.542  0.00  0.00    +0.000 HD
BRANCH  13  15
ATOM     15  C   UNL     1       3.010   6.466  17.668  0.00  0.00    +0.000 C 
ATOM     16  C   UNL     1       4.450   6.988  17.548  0.00  0.00    +0.000 C 
ATOM     17  C   UNL     1       5.343   6.264  16.539  0.00  0.00    +0.000 C 
ATOM     18  C   UNL     1       5.775   4.826  16.839  0.00  0.00    +0.000 C 
ATOM     19  C   UNL     1       6.087   4.510  18.302  0.00  0.00    +0.000 C 
ATOM     20  C   UNL     1       4.959   3.784  19.037  0.00  0.00    +0.000 C 
ATOM     21  C   UNL     1       3.700   4.599  19.341  0.00  0.00    +0.000 C 
ATOM     22  C   UNL     1       2.873   5.001  18.114  0.00  0.00    +0.000 C 
ENDBRANCH  13  15
ENDBRANCH   6  11
BRANCH   1  23
ATOM     23  N   UNL     1      -2.270  12.371  23.118  0.00  0.00    +0.000 N 
ATOM     24  H   UNL     1      -3.097  11.957  23.537  0.00  0.00    +0.000 HD
ATOM     25  H   UNL     1      -2.512  13.115  22.470  0.00  0.00    +0.000 HD
ENDBRANCH   1  23
TORSDOF 3
ENDMDL
MODEL 8
REMARK VINA RESULT:      -7.0      1.585      8.174
REMARK  Name = 
REMARK  3 active torsions:
REMARK  status: ('A' for Active; 'I' for Inactive)
REMARK    1  A    between atoms: N_1  and  C_2
REMARK    2  A    between atoms: C_7  and  C_8
REMARK    3  A    between atoms: N_10  and  C_11
REMARK                            x       y       z     vdW  Elec       q    Type
REMARK                         _______ _______ _______ _____ _____    ______ ____
ROOT
ATOM      1  C   UNL     1       6.474   4.829  16.652  0.00  0.00    +0.000 A 
ATOM      2  C   UNL     1       5.976   5.856  15.843  0.00  0.00    +0.000 A 
ATOM      3  C   UNL     1       4.911   6.670  16.261  0.00  0.00    +0.000 A 
ATOM      4  C   UNL     1       4.370   6.429  17.528  0.00  0.00    +0.000 A 
ATOM      5  N   UNL     1       3.296   6.994  18.177  0.00  0.00    +0.000 N 
ATOM      6  C   UNL     1       3.052   6.357  19.380  0.00  0.00    +0.000 A 
ATOM      7  C   UNL     1       4.125   5.500  19.577  0.00  0.00    +0.000 A 
ATOM      8  C   UNL     1       4.906   5.478  18.390  0.00  0.00    +0.000 A 
ATOM      9  C   UNL     1       6.003   4.707  17.964  0.00  0.00    +0.000 A 
ATOM     10  H   UNL     1       2.694   7.712  17.794  0.00  0.00    +0.000 HD
ENDROOT
BRANCH   6  11
ATOM     11  C   UNL     1       1.858   6.599  20.162  0.00  0.00    +0.000 C 
ATOM     12  O   UNL     1       1.236   5.687  20.696  0.00  0.00    +0.000 OA
ATOM     13  N   UNL     1       1.504   7.925  20.285  0.00  0.00    +0.000 N 
ATOM     14  H   UNL     1       2.121   8.617  19.891  0.00  0.00    +0.000 HD
BRANCH  13  15
ATOM     15  C   UNL     1       0.419   8.404  21.147  0.00  0.00    +0.000 C 
ATOM     16  C   UNL     1       1.017   9.131  22.361  0.00  0.00    +0.000 C 
ATOM     17  C   UNL     1       0.018   9.603  23.418  0.00  0.00    +0.000 C 
ATOM     18  C   UNL     1      -0.936  10.749  23.066  0.00  0.00    +0.000 C 
ATOM     19  C   UNL     1      -0.354  11.866  22.201  0.00  0.00    +0.000 C 
ATOM     20  C   UNL     1      -0.736  11.774  20.723  0.00  0.00    +0.000 C 
ATOM     21  C   UNL     1      -0.102  10.636  19.918  0.00  0.00    +0.000 C 
ATOM     22  C   UNL     1      -0.569   9.227  20.304  0.00  0.00    +0.000 C 
ENDBRANCH  13  15
ENDBRANCH   6  11
BRANCH   1  23
ATOM     23  N   UNL     1       7.570   4.061  16.231  0.00  0.00    +0.000 N 
ATOM     24  H   UNL     1       8.449   4.375  16.629  0.00  0.00    +0.000 HD
ATOM     25  H   UNL     1       7.627   3.976  15.220  0.00  0.00    +0.000 HD
ENDBRANCH   1  23
TORSDOF 3
ENDMDL
MODEL 9
REMARK VINA RESULT:      -6.9      2.423      7.900
REMARK  Name = 
REMARK  3 active torsions:
REMARK  status: ('A' for Active; 'I' for Inactive)
REMARK    1  A    between atoms: N_1  and  C_2
REMARK    2  A    between atoms: C_7  and  C_8
REMARK    3  A    between atoms: N_10  and  C_11
REMARK                            x       y       z     vdW  Elec       q    Type
REMARK                         _______ _______ _______ _____ _____    ______ ____
ROOT
ATOM      1  C   UNL     1       3.520   2.646  18.279  0.00  0.00    +0.000 A 
ATOM      2  C   UNL     1       4.049   3.481  17.290  0.00  0.00    +0.000 A 
ATOM      3  C   UNL     1       3.948   4.879  17.375  0.00  0.00    +0.000 A 
ATOM      4  C   UNL     1       3.309   5.414  18.499  0.00  0.00    +0.000 A 
ATOM      5  N   UNL     1       2.993   6.712  18.828  0.00  0.00    +0.000 N 
ATOM      6  C   UNL     1       2.249   6.761  19.993  0.00  0.00    +0.000 A 
ATOM      7  C   UNL     1       2.270   5.473  20.508  0.00  0.00    +0.000 A 
ATOM      8  C   UNL     1       2.857   4.612  19.542  0.00  0.00    +0.000 A 
ATOM      9  C   UNL     1       3.012   3.217  19.452  0.00  0.00    +0.000 A 
ATOM     10  H   UNL     1       3.184   7.523  18.254  0.00  0.00    +0.000 HD
ENDROOT
BRANCH   6  11
ATOM     11  C   UNL     1       1.598   7.970  20.451  0.00  0.00    +0.000 C 
ATOM     12  O   UNL     1       1.251   8.118  21.619  0.00  0.00    +0.000 OA
ATOM     13  N   UNL     1       1.435   8.942  19.489  0.00  0.00    +0.000 N 
ATOM     14  H   UNL     1       1.832   8.775  18.577  0.00  0.00    +0.000 HD
BRANCH  13  15
ATOM     15  C   UNL     1       0.935  10.292  19.767  0.00  0.00    +0.000 C 
ATOM     16  C   UNL     1       1.451  11.258  18.690  0.00  0.00    +0.000 C 
ATOM     17  C   UNL     1       1.105  12.734  18.893  0.00  0.00    +0.000 C 
ATOM     18  C   UNL     1      -0.354  13.173  18.740  0.00  0.00    +0.000 C 
ATOM     19  C   UNL     1      -1.152  12.481  17.636  0.00  0.00    +0.000 C 
ATOM     20  C   UNL     1      -2.073  11.367  18.136  0.00  0.00    +0.000 C 
ATOM     21  C   UNL     1      -1.396  10.088  18.635  0.00  0.00    +0.000 C 
ATOM     22  C   UNL     1      -0.593  10.240  19.931  0.00  0.00    +0.000 C 
ENDBRANCH  13  15
ENDBRANCH   6  11
BRANCH   1  23
ATOM     23  N   UNL     1       3.676   1.254  18.193  0.00  0.00    +0.000 N 
ATOM     24  H   UNL     1       4.572   0.980  17.801  0.00  0.00    +0.000 HD
ATOM     25  H   UNL     1       2.904   0.799  17.715  0.00  0.00    +0.000 HD
ENDBRANCH   1  23
TORSDOF 3
ENDMDL
