MODEL 1
REMARK VINA RESULT:      -7.6      0.000      0.000
REMARK  Name = 
REMARK  5 active torsions:
REMARK  status: ('A' for Active; 'I' for Inactive)
REMARK    1  A    between atoms: C_1  and  C_2
REMARK    2  A    between atoms: C_4  and  C_5
REMARK    3  A    between atoms: N_12  and  C_13
REMARK    4  A    between atoms: C_22  and  C_23
REMARK    5  A    between atoms: N_24  and  C_25
REMARK                            x       y       z     vdW  Elec       q    Type
REMARK                         _______ _______ _______ _____ _____    ______ ____
ROOT
ATOM      1  C   UNL     1       2.337   7.188  18.107  0.00  0.00    +0.000 C 
ATOM      2  C   UNL     1       1.868   8.016  19.065  0.00  0.00    +0.000 C 
ATOM      3  C   UNL     1       1.569   7.581  20.446  0.00  0.00    +0.000 C 
ATOM      4  O   UNL     1       1.753   6.460  20.905  0.00  0.00    +0.000 OA
ATOM      5  N   UNL     1       1.064   8.554  21.253  0.00  0.00    +0.000 N 
ATOM      6  C   UNL     1       0.890   9.879  20.973  0.00  0.00    +0.000 C 
ATOM      7  O   UNL     1       0.532  10.618  21.887  0.00  0.00    +0.000 OA
ATOM      8  N   UNL     1       1.186  10.286  19.678  0.00  0.00    +0.000 N 
ATOM      9  C   UNL     1       1.669   9.442  18.677  0.00  0.00    +0.000 C 
ATOM     10  O   UNL     1       1.892   9.809  17.521  0.00  0.00    +0.000 OA
ATOM     11  H   UNL     1       0.886   8.282  22.211  0.00  0.00    +0.000 HD
ENDROOT
BRANCH   1  15
ATOM     12  C   UNL     1       1.796   2.179  18.245  0.00  0.00    +0.000 C 
ATOM     13  C   UNL     1       2.342   3.562  18.268  0.00  0.00    +0.000 A 
ATOM     14  C   UNL     1       1.713   4.745  17.932  0.00  0.00    +0.000 A 
ATOM     15  C   UNL     1       2.605   5.797  18.229  0.00  0.00    +0.000 A 
ATOM     16  C   UNL     1       3.799   5.247  18.658  0.00  0.00    +0.000 A 
ATOM     17  C   UNL     1       5.065   5.912  19.076  0.00  0.00    +0.000 C 
ATOM     18  N   UNL     1       3.616   3.877  18.693  0.00  0.00    +0.000 N 
ATOM     19  C   UNL     1       4.585   2.898  19.146  0.00  0.00    +0.000 C 
ENDBRANCH   1  15
BRANCH   8  20
ATOM     20  C   UNL     1       0.992  11.668  19.362  0.00  0.00    +0.000 A 
ATOM     21  C   UNL     1       2.024  12.595  19.564  0.00  0.00    +0.000 A 
ATOM     22  C   UNL     1       1.820  13.949  19.282  0.00  0.00    +0.000 A 
ATOM     23  C   UNL     1       0.589  14.376  18.786  0.00  0.00    +0.000 A 
ATOM     24 CL   UNL     1       0.338  16.043  18.445  0.00  0.00    +0.000 Cl
ATOM     25  C   UNL     1      -0.439  13.462  18.569  0.00  0.00    +0.000 A 
ATOM     26  C   UNL     1      -0.239  12.110  18.861  0.00  0.00    +0.000 A 
ENDBRANCH   8  20
TORSDOF 2
ENDMDL
MODEL 2
REMARK VINA RESULT:      -7.5      3.467      7.735
REMARK  Name = 
REMARK  5 active torsions:
REMARK  status: ('A' for Active; 'I' for Inactive)
REMARK    1  A    between atoms: C_1  and  C_2
REMARK    2  A    between atoms: C_4  and  C_5
REMARK    3  A    between atoms: N_12  and  C_13
REMARK    4  A    between atoms: C_22  and  C_23
REMARK    5  A    between atoms: N_24  and  C_25
REMARK                            x       y       z     vdW  Elec       q    Type
REMARK                         _______ _______ _______ _____ _____    ______ ____
ROOT
ATOM      1  C   UNL     1       1.047  10.116  18.738  0.00  0.00    +0.000 C 
ATOM      2  C   UNL     1       1.506   8.932  19.197  0.00  0.00    +0.000 C 
ATOM      3  C   UNL     1       1.192   8.399  20.540  0.00  0.00    +0.000 C 
ATOM      4  O   UNL     1       0.450   8.917  21.366  0.00  0.00    +0.000 OA
ATOM      5  N   UNL     1       1.786   7.209  20.833  0.00  0.00    +0.000 N 
ATOM      6  C   UNL     1       2.548   6.421  20.020  0.00  0.00    +0.000 C 
ATOM      7  O   UNL     1       2.889   5.319  20.442  0.00  0.00    +0.000 OA
ATOM      8  N   UNL     1       2.829   6.921  18.755  0.00  0.00    +0.000 N 
ATOM      9  C   UNL     1       2.363   8.142  18.267  0.00  0.00    +0.000 C 
ATOM     10  O   UNL     1       2.652   8.590  17.155  0.00  0.00    +0.000 OA
ATOM     11  H   UNL     1       1.553   6.813  21.735  0.00  0.00    +0.000 HD
ENDROOT
BRANCH   1  15
ATOM     12  C   UNL     1      -0.594  13.601  21.988  0.00  0.00    +0.000 C 
ATOM     13  C   UNL     1      -0.482  12.614  20.882  0.00  0.00    +0.000 A 
ATOM     14  C   UNL     1       0.643  11.967  20.411  0.00  0.00    +0.000 A 
ATOM     15  C   UNL     1       0.221  11.045  19.430  0.00  0.00    +0.000 A 
ATOM     16  C   UNL     1      -1.140  11.197  19.246  0.00  0.00    +0.000 A 
ATOM     17  C   UNL     1      -2.068  10.485  18.324  0.00  0.00    +0.000 C 
ATOM     18  N   UNL     1      -1.561  12.150  20.156  0.00  0.00    +0.000 N 
ATOM     19  C   UNL     1      -2.927  12.585  20.367  0.00  0.00    +0.000 C 
ENDBRANCH   1  15
BRANCH   8  20
ATOM     20  C   UNL     1       3.642   6.116  17.895  0.00  0.00    +0.000 A 
ATOM     21  C   UNL     1       4.872   6.597  17.425  0.00  0.00    +0.000 A 
ATOM     22  C   UNL     1       5.649   5.818  16.562  0.00  0.00    +0.000 A 
ATOM     23  C   UNL     1       5.205   4.554  16.177  0.00  0.00    +0.000 A 
ATOM     24 CL   UNL     1       6.159   3.600  15.111  0.00  0.00    +0.000 Cl
ATOM     25  C   UNL     1       3.990   4.061  16.649  0.00  0.00    +0.000 A 
ATOM     26  C   UNL     1       3.208   4.842  17.503  0.00  0.00    +0.000 A 
ENDBRANCH   8  20
TORSDOF 2
ENDMDL
MODEL 3
REMARK VINA RESULT:      -7.4      3.387      7.635
REMARK  Name = 
REMARK  5 active torsions:
REMARK  status: ('A' for Active; 'I' for Inactive)
REMARK    1  A    between atoms: C_1  and  C_2
REMARK    2  A    between atoms: C_4  and  C_5
REMARK    3  A    between atoms: N_12  and  C_13
REMARK    4  A    between atoms: C_22  and  C_23
REMARK    5  A    between atoms: N_24  and  C_25
REMARK                            x       y       z     vdW  Elec       q    Type
REMARK                         _______ _______ _______ _____ _____    ______ ____
ROOT
ATOM      1  C   UNL     1       0.867  10.149  18.630  0.00  0.00    +0.000 C 
ATOM      2  C   UNL     1       1.370   9.002  19.136  0.00  0.00    +0.000 C 
ATOM      3  C   UNL     1       1.092   8.523  20.507  0.00  0.00    +0.000 C 
ATOM      4  O   UNL     1       0.348   9.057  21.320  0.00  0.00    +0.000 OA
ATOM      5  N   UNL     1       1.727   7.367  20.845  0.00  0.00    +0.000 N 
ATOM      6  C   UNL     1       2.500   6.565  20.057  0.00  0.00    +0.000 C 
ATOM      7  O   UNL     1       2.881   5.494  20.524  0.00  0.00    +0.000 OA
ATOM      8  N   UNL     1       2.746   7.012  18.765  0.00  0.00    +0.000 N 
ATOM      9  C   UNL     1       2.235   8.195  18.228  0.00  0.00    +0.000 C 
ATOM     10  O   UNL     1       2.493   8.598  17.092  0.00  0.00    +0.000 OA
ATOM     11  H   UNL     1       1.521   7.007  21.768  0.00  0.00    +0.000 HD
ENDROOT
BRANCH   1  15
ATOM     12  C   UNL     1      -3.188  12.686  20.218  0.00  0.00    +0.000 C 
ATOM     13  C   UNL     1      -1.803  12.189  20.000  0.00  0.00    +0.000 A 
ATOM     14  C   UNL     1      -1.386  11.061  19.322  0.00  0.00    +0.000 A 
ATOM     15  C   UNL     1       0.024  11.084  19.292  0.00  0.00    +0.000 A 
ATOM     16  C   UNL     1       0.458  12.172  20.026  0.00  0.00    +0.000 A 
ATOM     17  C   UNL     1       1.842  12.639  20.321  0.00  0.00    +0.000 C 
ATOM     18  N   UNL     1      -0.674  12.850  20.439  0.00  0.00    +0.000 N 
ATOM     19  C   UNL     1      -0.700  14.094  21.184  0.00  0.00    +0.000 C 
ENDBRANCH   1  15
BRANCH   8  20
ATOM     20  C   UNL     1       3.570   6.192  17.930  0.00  0.00    +0.000 A 
ATOM     21  C   UNL     1       4.797   6.672  17.450  0.00  0.00    +0.000 A 
ATOM     22  C   UNL     1       5.584   5.878  16.611  0.00  0.00    +0.000 A 
ATOM     23  C   UNL     1       5.153   4.600  16.260  0.00  0.00    +0.000 A 
ATOM     24 CL   UNL     1       6.120   3.627  15.222  0.00  0.00    +0.000 Cl
ATOM     25  C   UNL     1       3.941   4.108  16.740  0.00  0.00    +0.000 A 
ATOM     26  C   UNL     1       3.149   4.905  17.571  0.00  0.00    +0.000 A 
ENDBRANCH   8  20
TORSDOF 2
ENDMDL
MODEL 4
REMARK VINA RESULT:      -7.2      3.426      7.811
REMARK  Name = 
REMARK  5 active torsions:
REMARK  status: ('A' for Active; 'I' for Inactive)
REMARK    1  A    between atoms: C_1  and  C_2
REMARK    2  A    between atoms: C_4  and  C_5
REMARK    3  A    between atoms: N_12  and  C_13
REMARK    4  A    between atoms: C_22  and  C_23
REMARK    5  A    between atoms: N_24  and  C_25
REMARK                            x       y       z     vdW  Elec       q    Type
REMARK                         _______ _______ _______ _____ _____    ______ ____
ROOT
ATOM      1  C   UNL     1       1.025  10.388  18.687  0.00  0.00    +0.000 C 
ATOM      2  C   UNL     1       1.460   9.198  19.156  0.00  0.00    +0.000 C 
ATOM      3  C   UNL     1       1.159   8.694  20.512  0.00  0.00    +0.000 C 
ATOM      4  O   UNL     1       0.450   9.245  21.345  0.00  0.00    +0.000 OA
ATOM      5  N   UNL     1       1.726   7.493  20.812  0.00  0.00    +0.000 N 
ATOM      6  C   UNL     1       2.449   6.672  19.996  0.00  0.00    +0.000 C 
ATOM      7  O   UNL     1       2.768   5.566  20.427  0.00  0.00    +0.000 OA
ATOM      8  N   UNL     1       2.717   7.144  18.717  0.00  0.00    +0.000 N 
ATOM      9  C   UNL     1       2.275   8.370  18.220  0.00  0.00    +0.000 C 
ATOM     10  O   UNL     1       2.553   8.794  17.096  0.00  0.00    +0.000 OA
ATOM     11  H   UNL     1       1.501   7.117  21.724  0.00  0.00    +0.000 HD
ENDROOT
BRANCH   1  15
ATOM     12  C   UNL     1      -0.434  14.008  21.876  0.00  0.00    +0.000 C 
ATOM     13  C   UNL     1      -0.382  12.979  20.804  0.00  0.00    +0.000 A 
ATOM     14  C   UNL     1       0.715  12.304  20.305  0.00  0.00    +0.000 A 
ATOM     15  C   UNL     1       0.239  11.349  19.383  0.00  0.00    +0.000 A 
ATOM     16  C   UNL     1      -1.128  11.506  19.258  0.00  0.00    +0.000 A 
ATOM     17  C   UNL     1      -2.104  10.768  18.409  0.00  0.00    +0.000 C 
ATOM     18  N   UNL     1      -1.498  12.497  20.149  0.00  0.00    +0.000 N 
ATOM     19  C   UNL     1      -2.850  12.951  20.408  0.00  0.00    +0.000 C 
ENDBRANCH   1  15
BRANCH   8  20
ATOM     20  C   UNL     1       3.490   6.304  17.854  0.00  0.00    +0.000 A 
ATOM     21  C   UNL     1       3.087   4.985  17.599  0.00  0.00    +0.000 A 
ATOM     22  C   UNL     1       3.862   4.159  16.778  0.00  0.00    +0.000 A 
ATOM     23  C   UNL     1       5.031   4.652  16.203  0.00  0.00    +0.000 A 
ATOM     24 CL   UNL     1       5.985   3.632  15.199  0.00  0.00    +0.000 Cl
ATOM     25  C   UNL     1       5.434   5.964  16.439  0.00  0.00    +0.000 A 
ATOM     26  C   UNL     1       4.667   6.788  17.267  0.00  0.00    +0.000 A 
ENDBRANCH   8  20
TORSDOF 2
ENDMDL
MODEL 5
REMARK VINA RESULT:      -7.2      1.306      1.622
REMARK  Name = 
REMARK  5 active torsions:
REMARK  status: ('A' for Active; 'I' for Inactive)
REMARK    1  A    between atoms: C_1  and  C_2
REMARK    2  A    between atoms: C_4  and  C_5
REMARK    3  A    between atoms: N_12  and  C_13
REMARK    4  A    between atoms: C_22  and  C_23
REMARK    5  A    between atoms: N_24  and  C_25
REMARK                            x       y       z     vdW  Elec       q    Type
REMARK                         _______ _______ _______ _____ _____    ______ ____
ROOT
ATOM      1  C   UNL     1       2.190   7.483  17.970  0.00  0.00    +0.000 C 
ATOM      2  C   UNL     1       1.842   8.025  19.158  0.00  0.00    +0.000 C 
ATOM      3  C   UNL     1       1.957   7.310  20.447  0.00  0.00    +0.000 C 
ATOM      4  O   UNL     1       2.421   6.188  20.611  0.00  0.00    +0.000 OA
ATOM      5  N   UNL     1       1.515   8.011  21.527  0.00  0.00    +0.000 N 
ATOM      6  C   UNL     1       1.072   9.301  21.575  0.00  0.00    +0.000 C 
ATOM      7  O   UNL     1       0.834   9.788  22.678  0.00  0.00    +0.000 OA
ATOM      8  N   UNL     1       0.979   9.973  20.362  0.00  0.00    +0.000 N 
ATOM      9  C   UNL     1       1.333   9.426  19.128  0.00  0.00    +0.000 C 
ATOM     10  O   UNL     1       1.209  10.021  18.055  0.00  0.00    +0.000 OA
ATOM     11  H   UNL     1       1.618   7.550  22.422  0.00  0.00    +0.000 HD
ENDROOT
BRANCH   1  15
ATOM     12  C   UNL     1       2.586   2.470  17.629  0.00  0.00    +0.000 C 
ATOM     13  C   UNL     1       2.842   3.934  17.578  0.00  0.00    +0.000 A 
ATOM     14  C   UNL     1       1.955   4.974  17.777  0.00  0.00    +0.000 A 
ATOM     15  C   UNL     1       2.696   6.174  17.738  0.00  0.00    +0.000 A 
ATOM     16  C   UNL     1       4.008   5.866  17.429  0.00  0.00    +0.000 A 
ATOM     17  C   UNL     1       5.185   6.761  17.252  0.00  0.00    +0.000 C 
ATOM     18  N   UNL     1       4.085   4.488  17.351  0.00  0.00    +0.000 N 
ATOM     19  C   UNL     1       5.287   3.713  17.112  0.00  0.00    +0.000 C 
ENDBRANCH   1  15
BRANCH   8  20
ATOM     20  C   UNL     1       0.499  11.321  20.392  0.00  0.00    +0.000 A 
ATOM     21  C   UNL     1      -0.873  11.589  20.283  0.00  0.00    +0.000 A 
ATOM     22  C   UNL     1      -1.333  12.910  20.283  0.00  0.00    +0.000 A 
ATOM     23  C   UNL     1      -0.427  13.961  20.402  0.00  0.00    +0.000 A 
ATOM     24 CL   UNL     1      -0.995  15.585  20.395  0.00  0.00    +0.000 Cl
ATOM     25  C   UNL     1       0.937  13.706  20.523  0.00  0.00    +0.000 A 
ATOM     26  C   UNL     1       1.400  12.387  20.514  0.00  0.00    +0.000 A 
ENDBRANCH   8  20
TORSDOF 2
ENDMDL
MODEL 6
REMARK VINA RESULT:      -6.8      1.585      2.216
REMARK  Name = 
REMARK  5 active torsions:
REMARK  status: ('A' for Active; 'I' for Inactive)
REMARK    1  A    between atoms: C_1  and  C_2
REMARK    2  A    between atoms: C_4  and  C_5
REMARK    3  A    between atoms: N_12  and  C_13
REMARK    4  A    between atoms: C_22  and  C_23
REMARK    5  A    between atoms: N_24  and  C_25
REMARK                            x       y       z     vdW  Elec       q    Type
REMARK                         _______ _______ _______ _____ _____    ______ ____
ROOT
ATOM      1  C   UNL     1       2.829   7.533  17.929  0.00  0.00    +0.000 C 
ATOM      2  C   UNL     1       2.197   7.916  19.059  0.00  0.00    +0.000 C 
ATOM      3  C   UNL     1       2.192   7.119  20.304  0.00  0.00    +0.000 C 
ATOM      4  O   UNL     1       2.789   6.065  20.487  0.00  0.00    +0.000 OA
ATOM      5  N   UNL     1       1.461   7.655  21.320  0.00  0.00    +0.000 N 
ATOM      6  C   UNL     1       0.820   8.859  21.358  0.00  0.00    +0.000 C 
ATOM      7  O   UNL     1       0.317   9.211  22.422  0.00  0.00    +0.000 OA
ATOM      8  N   UNL     1       0.840   9.611  20.189  0.00  0.00    +0.000 N 
ATOM      9  C   UNL     1       1.488   9.228  19.015  0.00  0.00    +0.000 C 
ATOM     10  O   UNL     1       1.464   9.888  17.973  0.00  0.00    +0.000 OA
ATOM     11  H   UNL     1       1.476   7.139  22.190  0.00  0.00    +0.000 HD
ENDROOT
BRANCH   1  15
ATOM     12  C   UNL     1       6.576   4.290  17.007  0.00  0.00    +0.000 C 
ATOM     13  C   UNL     1       5.261   4.907  17.325  0.00  0.00    +0.000 A 
ATOM     14  C   UNL     1       4.968   6.229  17.597  0.00  0.00    +0.000 A 
ATOM     15  C   UNL     1       3.567   6.334  17.722  0.00  0.00    +0.000 A 
ATOM     16  C   UNL     1       3.023   5.068  17.616  0.00  0.00    +0.000 A 
ATOM     17  C   UNL     1       1.603   4.626  17.692  0.00  0.00    +0.000 C 
ATOM     18  N   UNL     1       4.072   4.205  17.355  0.00  0.00    +0.000 N 
ATOM     19  C   UNL     1       3.964   2.782  17.103  0.00  0.00    +0.000 C 
ENDBRANCH   1  15
BRANCH   8  20
ATOM     20  C   UNL     1       0.157  10.869  20.205  0.00  0.00    +0.000 A 
ATOM     21  C   UNL     1       0.808  12.025  20.657  0.00  0.00    +0.000 A 
ATOM     22  C   UNL     1       0.127  13.246  20.698  0.00  0.00    +0.000 A 
ATOM     23  C   UNL     1      -1.199  13.315  20.278  0.00  0.00    +0.000 A 
ATOM     24 CL   UNL     1      -2.037  14.816  20.335  0.00  0.00    +0.000 Cl
ATOM     25  C   UNL     1      -1.852  12.175  19.815  0.00  0.00    +0.000 A 
ATOM     26  C   UNL     1      -1.176  10.953  19.783  0.00  0.00    +0.000 A 
ENDBRANCH   8  20
TORSDOF 2
ENDMDL
MODEL 7
REMARK VINA RESULT:      -6.8      1.892      2.134
REMARK  Name = 
REMARK  5 active torsions:
REMARK  status: ('A' for Active; 'I' for Inactive)
REMARK    1  A    between atoms: C_1  and  C_2
REMARK    2  A    between atoms: C_4  and  C_5
REMARK    3  A    between atoms: N_12  and  C_13
REMARK    4  A    between atoms: C_22  and  C_23
REMARK    5  A    between atoms: N_24  and  C_25
REMARK                            x       y       z     vdW  Elec       q    Type
REMARK                         _______ _______ _______ _____ _____    ______ ____
ROOT
ATOM      1  C   UNL     1       3.353   7.479  17.584  0.00  0.00    +0.000 C 
ATOM      2  C   UNL     1       2.611   7.741  18.682  0.00  0.00    +0.000 C 
ATOM      3  C   UNL     1       2.511   6.826  19.839  0.00  0.00    +0.000 C 
ATOM      4  O   UNL     1       3.114   5.768  19.975  0.00  0.00    +0.000 OA
ATOM      5  N   UNL     1       1.679   7.250  20.829  0.00  0.00    +0.000 N 
ATOM      6  C   UNL     1       1.009   8.435  20.922  0.00  0.00    +0.000 C 
ATOM      7  O   UNL     1       0.403   8.674  21.964  0.00  0.00    +0.000 OA
ATOM      8  N   UNL     1       1.117   9.298  19.838  0.00  0.00    +0.000 N 
ATOM      9  C   UNL     1       1.878   9.041  18.698  0.00  0.00    +0.000 C 
ATOM     10  O   UNL     1       1.934   9.799  17.727  0.00  0.00    +0.000 OA
ATOM     11  H   UNL     1       1.626   6.652  21.643  0.00  0.00    +0.000 HD
ENDROOT
BRANCH   1  15
ATOM     12  C   UNL     1       4.762   2.694  16.864  0.00  0.00    +0.000 C 
ATOM     13  C   UNL     1       4.735   4.175  16.997  0.00  0.00    +0.000 A 
ATOM     14  C   UNL     1       3.643   5.012  17.120  0.00  0.00    +0.000 A 
ATOM     15  C   UNL     1       4.134   6.317  17.332  0.00  0.00    +0.000 A 
ATOM     16  C   UNL     1       5.513   6.284  17.250  0.00  0.00    +0.000 A 
ATOM     17  C   UNL     1       6.509   7.384  17.382  0.00  0.00    +0.000 C 
ATOM     18  N   UNL     1       5.868   4.960  17.061  0.00  0.00    +0.000 N 
ATOM     19  C   UNL     1       7.220   4.442  16.983  0.00  0.00    +0.000 C 
ENDBRANCH   1  15
BRANCH   8  20
ATOM     20  C   UNL     1       0.407  10.538  19.911  0.00  0.00    +0.000 A 
ATOM     21  C   UNL     1       1.008  11.669  20.482  0.00  0.00    +0.000 A 
ATOM     22  C   UNL     1       0.299  12.871  20.577  0.00  0.00    +0.000 A 
ATOM     23  C   UNL     1      -1.005  12.947  20.093  0.00  0.00    +0.000 A 
ATOM     24 CL   UNL     1      -1.878  14.424  20.217  0.00  0.00    +0.000 Cl
ATOM     25  C   UNL     1      -1.608  11.833  19.513  0.00  0.00    +0.000 A 
ATOM     26  C   UNL     1      -0.904  10.629  19.426  0.00  0.00    +0.000 A 
ENDBRANCH   8  20
TORSDOF 2
ENDMDL
MODEL 8
REMARK VINA RESULT:      -6.7      0.608      1.541
REMARK  Name = 
REMARK  5 active torsions:
REMARK  status: ('A' for Active; 'I' for Inactive)
REMARK    1  A    between atoms: C_1  and  C_2
REMARK    2  A    between atoms: C_4  and  C_5
REMARK    3  A    between atoms: N_12  and  C_13
REMARK    4  A    between atoms: C_22  and  C_23
REMARK    5  A    between atoms: N_24  and  C_25
REMARK                            x       y       z     vdW  Elec       q    Type
REMARK                         _______ _______ _______ _____ _____    ______ ____
ROOT
ATOM      1  C   UNL     1       2.663   7.058  18.410  0.00  0.00    +0.000 C 
ATOM      2  C   UNL     1       1.961   7.834  19.264  0.00  0.00    +0.000 C 
ATOM      3  C   UNL     1       1.461   7.364  20.573  0.00  0.00    +0.000 C 
ATOM      4  O   UNL     1       1.659   6.260  21.066  0.00  0.00    +0.000 OA
ATOM      5  N   UNL     1       0.738   8.283  21.270  0.00  0.00    +0.000 N 
ATOM      6  C   UNL     1       0.501   9.589  20.953  0.00  0.00    +0.000 C 
ATOM      7  O   UNL     1      -0.076  10.287  21.784  0.00  0.00    +0.000 OA
ATOM      8  N   UNL     1       0.985  10.030  19.728  0.00  0.00    +0.000 N 
ATOM      9  C   UNL     1       1.709   9.240  18.835  0.00  0.00    +0.000 C 
ATOM     10  O   UNL     1       2.100   9.635  17.734  0.00  0.00    +0.000 OA
ATOM     11  H   UNL     1       0.418   7.989  22.183  0.00  0.00    +0.000 HD
ENDROOT
BRANCH   1  15
ATOM     12  C   UNL     1       5.195   2.878  19.641  0.00  0.00    +0.000 C 
ATOM     13  C   UNL     1       4.169   3.844  19.164  0.00  0.00    +0.000 A 
ATOM     14  C   UNL     1       4.141   5.217  19.310  0.00  0.00    +0.000 A 
ATOM     15  C   UNL     1       3.027   5.695  18.589  0.00  0.00    +0.000 A 
ATOM     16  C   UNL     1       2.335   4.609  18.084  0.00  0.00    +0.000 A 
ATOM     17  C   UNL     1       1.089   4.561  17.270  0.00  0.00    +0.000 C 
ATOM     18  N   UNL     1       3.058   3.482  18.430  0.00  0.00    +0.000 N 
ATOM     19  C   UNL     1       2.742   2.118  18.055  0.00  0.00    +0.000 C 
ENDBRANCH   1  15
BRANCH   8  20
ATOM     20  C   UNL     1       0.729  11.392  19.371  0.00  0.00    +0.000 A 
ATOM     21  C   UNL     1       1.644  12.399  19.711  0.00  0.00    +0.000 A 
ATOM     22  C   UNL     1       1.375  13.733  19.386  0.00  0.00    +0.000 A 
ATOM     23  C   UNL     1       0.200  14.060  18.713  0.00  0.00    +0.000 A 
ATOM     24 CL   UNL     1      -0.132  15.701  18.321  0.00  0.00    +0.000 Cl
ATOM     25  C   UNL     1      -0.710  13.066  18.361  0.00  0.00    +0.000 A 
ATOM     26  C   UNL     1      -0.448  11.735  18.693  0.00  0.00    +0.000 A 
ENDBRANCH   8  20
TORSDOF 2
ENDMDL
MODEL 9
REMARK VINA RESULT:      -6.7      2.404      3.338
REMARK  Name = 
REMARK  5 active torsions:
REMARK  status: ('A' for Active; 'I' for Inactive)
REMARK    1  A    between atoms: C_1  and  C_2
REMARK    2  A    between atoms: C_4  and  C_5
REMARK    3  A    between atoms: N_12  and  C_13
REMARK    4  A    between atoms: C_22  and  C_23
REMARK    5  A    between atoms: N_24  and  C_25
REMARK                            x       y       z     vdW  Elec       q    Type
REMARK                         _______ _______ _______ _____ _____    ______ ____
ROOT
ATOM      1  C   UNL     1       2.061   7.401  20.225  0.00  0.00    +0.000 C 
ATOM      2  C   UNL     1       1.491   8.536  19.768  0.00  0.00    +0.000 C 
ATOM      3  C   UNL     1       1.318   8.844  18.332  0.00  0.00    +0.000 C 
ATOM      4  O   UNL     1       1.609   8.107  17.397  0.00  0.00    +0.000 OA
ATOM      5  N   UNL     1       0.761  10.058  18.073  0.00  0.00    +0.000 N 
ATOM      6  C   UNL     1       0.268  10.970  18.961  0.00  0.00    +0.000 C 
ATOM      7  O   UNL     1      -0.309  11.957  18.512  0.00  0.00    +0.000 OA
ATOM      8  N   UNL     1       0.421  10.670  20.309  0.00  0.00    +0.000 N 
ATOM      9  C   UNL     1       1.008   9.502  20.797  0.00  0.00    +0.000 C 
ATOM     10  O   UNL     1       1.171   9.267  21.996  0.00  0.00    +0.000 OA
ATOM     11  H   UNL     1       0.604  10.270  17.096  0.00  0.00    +0.000 HD
ENDROOT
BRANCH   1  15
ATOM     12  C   UNL     1       4.745   4.777  16.862  0.00  0.00    +0.000 C 
ATOM     13  C   UNL     1       3.819   5.184  17.952  0.00  0.00    +0.000 A 
ATOM     14  C   UNL     1       3.683   6.419  18.554  0.00  0.00    +0.000 A 
ATOM     15  C   UNL     1       2.596   6.335  19.449  0.00  0.00    +0.000 A 
ATOM     16  C   UNL     1       2.135   5.032  19.454  0.00  0.00    +0.000 A 
ATOM     17  C   UNL     1       1.025   4.411  20.229  0.00  0.00    +0.000 C 
ATOM     18  N   UNL     1       2.883   4.342  18.518  0.00  0.00    +0.000 N 
ATOM     19  C   UNL     1       2.705   2.955  18.137  0.00  0.00    +0.000 C 
ENDBRANCH   1  15
BRANCH   8  20
ATOM     20  C   UNL     1      -0.074  11.623  21.255  0.00  0.00    +0.000 A 
ATOM     21  C   UNL     1      -1.129  11.289  22.117  0.00  0.00    +0.000 A 
ATOM     22  C   UNL     1      -1.628  12.234  23.018  0.00  0.00    +0.000 A 
ATOM     23  C   UNL     1      -1.067  13.509  23.069  0.00  0.00    +0.000 A 
ATOM     24 CL   UNL     1      -1.686  14.671  24.175  0.00  0.00    +0.000 Cl
ATOM     25  C   UNL     1      -0.011  13.848  22.226  0.00  0.00    +0.000 A 
ATOM     26  C   UNL     1       0.482  12.908  21.318  0.00  0.00    +0.000 A 
ENDBRANCH   8  20
TORSDOF 2
ENDMDL
