MODEL 1
REMARK VINA RESULT:      -8.4      0.000      0.000
REMARK  Name = 
REMARK  6 active torsions:
REMARK  status: ('A' for Active; 'I' for Inactive)
REMARK    1  A    between atoms: C_1  and  C_2
REMARK    2  A    between atoms: C_4  and  C_5
REMARK    3  A    between atoms: C_7  and  N_8
REMARK    4  A    between atoms: C_9  and  S_10
REMARK    5  A    between atoms: S_10  and  C_11
REMARK    6  A    between atoms: C_11  and  C_12
REMARK                            x       y       z     vdW  Elec       q    Type
REMARK                         _______ _______ _______ _____ _____    ______ ____
ROOT
ATOM      1  N   UNL     1      -1.046  11.839  21.951  0.00  0.00    +0.000 N 
ATOM      2  C   UNL     1      -1.015  12.178  20.560  0.00  0.00    +0.000 A 
ATOM      3  N   UNL     1      -0.377  11.517  19.631  0.00  0.00    +0.000 NA
ATOM      4  C   UNL     1       0.280  10.366  20.093  0.00  0.00    +0.000 A 
ATOM      5  C   UNL     1       0.274   9.994  21.403  0.00  0.00    +0.000 A 
ATOM      6  N   UNL     1       0.971   8.833  21.540  0.00  0.00    +0.000 N 
ATOM      7  C   UNL     1       1.455   8.446  20.314  0.00  0.00    +0.000 A 
ATOM      8  C   UNL     1       2.216   7.321  19.983  0.00  0.00    +0.000 A 
ATOM      9  C   UNL     1       2.584   7.169  18.648  0.00  0.00    +0.000 A 
ATOM     10  C   UNL     1       2.203   8.108  17.689  0.00  0.00    +0.000 A 
ATOM     11  C   UNL     1       1.435   9.230  18.036  0.00  0.00    +0.000 A 
ATOM     12  C   UNL     1       1.045   9.408  19.377  0.00  0.00    +0.000 A 
ATOM     13  C   UNL     1      -0.380  10.707  22.434  0.00  0.00    +0.000 A 
ATOM     14  O   UNL     1      -0.351  10.307  23.596  0.00  0.00    +0.000 OA
ATOM     15  H   UNL     1       1.098   8.338  22.405  0.00  0.00    +0.000 HD
ENDROOT
BRANCH   1  22
ATOM     16  C   UNL     1      -1.197  15.634  25.103  0.00  0.00    +0.000 C 
ATOM     17  C   UNL     1      -1.892  14.480  24.448  0.00  0.00    +0.000 A 
ATOM     18  C   UNL     1      -3.162  14.052  24.866  0.00  0.00    +0.000 A 
ATOM     19  C   UNL     1      -3.742  12.902  24.321  0.00  0.00    +0.000 A 
ATOM     20  C   UNL     1      -5.096  12.420  24.754  0.00  0.00    +0.000 C 
ATOM     21  C   UNL     1      -3.028  12.178  23.360  0.00  0.00    +0.000 A 
ATOM     22  C   UNL     1      -1.750  12.586  22.943  0.00  0.00    +0.000 A 
ATOM     23  C   UNL     1      -1.210  13.763  23.460  0.00  0.00    +0.000 A 
ENDBRANCH   1  22
BRANCH   2  24
ATOM     24  S   UNL     1      -1.757  13.729  20.105  0.00  0.00    +0.000 S 
BRANCH  24  25
ATOM     25  C   UNL     1      -3.529  13.611  20.458  0.00  0.00    +0.000 C 
BRANCH  25  26
ATOM     26  C   UNL     1      -4.288  12.510  19.722  0.00  0.00    +0.000 C 
ATOM     27  O   UNL     1      -3.801  11.873  18.787  0.00  0.00    +0.000 OA
ATOM     28  N   UNL     1      -5.571  12.228  20.198  0.00  0.00    +0.000 N 
ATOM     29  C   UNL     1      -6.317  12.920  21.237  0.00  0.00    +0.000 C 
ATOM     30  C   UNL     1      -7.313  11.879  21.728  0.00  0.00    +0.000 C 
ATOM     31  C   UNL     1      -7.642  11.077  20.474  0.00  0.00    +0.000 C 
ATOM     32  C   UNL     1      -6.396  11.192  19.593  0.00  0.00    +0.000 C 
ENDBRANCH  25  26
ENDBRANCH  24  25
ENDBRANCH   2  24
TORSDOF 4
ENDMDL
MODEL 2
REMARK VINA RESULT:      -8.3      0.199      1.566
REMARK  Name = 
REMARK  6 active torsions:
REMARK  status: ('A' for Active; 'I' for Inactive)
REMARK    1  A    between atoms: C_1  and  C_2
REMARK    2  A    between atoms: C_4  and  C_5
REMARK    3  A    between atoms: C_7  and  N_8
REMARK    4  A    between atoms: C_9  and  S_10
REMARK    5  A    between atoms: S_10  and  C_11
REMARK    6  A    between atoms: C_11  and  C_12
REMARK                            x       y       z     vdW  Elec       q    Type
REMARK                         _______ _______ _______ _____ _____    ______ ____
ROOT
ATOM      1  N   UNL     1      -1.052  11.811  21.929  0.00  0.00    +0.000 N 
ATOM      2  C   UNL     1      -0.999  12.110  20.529  0.00  0.00    +0.000 A 
ATOM      3  N   UNL     1      -0.352  11.417  19.629  0.00  0.00    +0.000 NA
ATOM      4  C   UNL     1       0.290  10.276  20.134  0.00  0.00    +0.000 A 
ATOM      5  C   UNL     1       0.262   9.942  21.454  0.00  0.00    +0.000 A 
ATOM      6  N   UNL     1       0.948   8.780  21.635  0.00  0.00    +0.000 N 
ATOM      7  C   UNL     1       1.448   8.355  20.427  0.00  0.00    +0.000 A 
ATOM      8  C   UNL     1       2.205   7.215  20.140  0.00  0.00    +0.000 A 
ATOM      9  C   UNL     1       2.591   7.023  18.816  0.00  0.00    +0.000 A 
ATOM     10  C   UNL     1       2.231   7.936  17.825  0.00  0.00    +0.000 A 
ATOM     11  C   UNL     1       1.467   9.072  18.128  0.00  0.00    +0.000 A 
ATOM     12  C   UNL     1       1.058   9.292  19.457  0.00  0.00    +0.000 A 
ATOM     13  C   UNL     1      -0.402  10.689  22.453  0.00  0.00    +0.000 A 
ATOM     14  O   UNL     1      -0.392  10.323  23.627  0.00  0.00    +0.000 OA
ATOM     15  H   UNL     1       1.059   8.309  22.515  0.00  0.00    +0.000 HD
ENDROOT
BRANCH   1  22
ATOM     16  C   UNL     1      -5.150  12.603  24.565  0.00  0.00    +0.000 C 
ATOM     17  C   UNL     1      -3.731  12.970  24.254  0.00  0.00    +0.000 A 
ATOM     18  C   UNL     1      -3.134  14.119  24.794  0.00  0.00    +0.000 A 
ATOM     19  C   UNL     1      -1.848  14.507  24.401  0.00  0.00    +0.000 A 
ATOM     20  C   UNL     1      -1.189  15.734  24.960  0.00  0.00    +0.000 C 
ATOM     21  C   UNL     1      -1.174  13.736  23.449  0.00  0.00    +0.000 A 
ATOM     22  C   UNL     1      -1.765  12.591  22.888  0.00  0.00    +0.000 A 
ATOM     23  C   UNL     1      -3.026  12.191  23.331  0.00  0.00    +0.000 A 
ENDBRANCH   1  22
BRANCH   2  24
ATOM     24  S   UNL     1      -1.722  13.652  20.018  0.00  0.00    +0.000 S 
BRANCH  24  25
ATOM     25  C   UNL     1      -3.511  13.525  20.268  0.00  0.00    +0.000 C 
BRANCH  25  26
ATOM     26  C   UNL     1      -4.220  12.416  19.494  0.00  0.00    +0.000 C 
ATOM     27  O   UNL     1      -3.694  11.815  18.556  0.00  0.00    +0.000 OA
ATOM     28  N   UNL     1      -5.503  12.084  19.938  0.00  0.00    +0.000 N 
ATOM     29  C   UNL     1      -6.291  12.730  20.975  0.00  0.00    +0.000 C 
ATOM     30  C   UNL     1      -7.262  11.648  21.424  0.00  0.00    +0.000 C 
ATOM     31  C   UNL     1      -7.541  10.863  20.147  0.00  0.00    +0.000 C 
ATOM     32  C   UNL     1      -6.282  11.036  19.294  0.00  0.00    +0.000 C 
ENDBRANCH  25  26
ENDBRANCH  24  25
ENDBRANCH   2  24
TORSDOF 4
ENDMDL
MODEL 3
REMARK VINA RESULT:      -8.1      1.022      2.033
REMARK  Name = 
REMARK  6 active torsions:
REMARK  status: ('A' for Active; 'I' for Inactive)
REMARK    1  A    between atoms: C_1  and  C_2
REMARK    2  A    between atoms: C_4  and  C_5
REMARK    3  A    between atoms: C_7  and  N_8
REMARK    4  A    between atoms: C_9  and  S_10
REMARK    5  A    between atoms: S_10  and  C_11
REMARK    6  A    between atoms: C_11  and  C_12
REMARK                            x       y       z     vdW  Elec       q    Type
REMARK                         _______ _______ _______ _____ _____    ______ ____
ROOT
ATOM      1  N   UNL     1      -0.804  11.489  21.764  0.00  0.00    +0.000 N 
ATOM      2  C   UNL     1      -0.811  11.703  20.348  0.00  0.00    +0.000 A 
ATOM      3  N   UNL     1      -0.176  10.974  19.468  0.00  0.00    +0.000 NA
ATOM      4  C   UNL     1       0.519   9.885  20.015  0.00  0.00    +0.000 A 
ATOM      5  C   UNL     1       0.549   9.633  21.353  0.00  0.00    +0.000 A 
ATOM      6  N   UNL     1       1.276   8.504  21.577  0.00  0.00    +0.000 N 
ATOM      7  C   UNL     1       1.744   8.020  20.379  0.00  0.00    +0.000 A 
ATOM      8  C   UNL     1       2.525   6.887  20.133  0.00  0.00    +0.000 A 
ATOM      9  C   UNL     1       2.868   6.624  18.809  0.00  0.00    +0.000 A 
ATOM     10  C   UNL     1       2.445   7.464  17.779  0.00  0.00    +0.000 A 
ATOM     11  C   UNL     1       1.658   8.594  18.042  0.00  0.00    +0.000 A 
ATOM     12  C   UNL     1       1.291   8.884  19.370  0.00  0.00    +0.000 A 
ATOM     13  C   UNL     1      -0.101  10.420  22.330  0.00  0.00    +0.000 A 
ATOM     14  O   UNL     1      -0.037  10.128  23.523  0.00  0.00    +0.000 OA
ATOM     15  H   UNL     1       1.434   8.092  22.479  0.00  0.00    +0.000 HD
ENDROOT
BRANCH   1  22
ATOM     16  C   UNL     1      -4.762  12.253  24.612  0.00  0.00    +0.000 C 
ATOM     17  C   UNL     1      -3.397  12.681  24.169  0.00  0.00    +0.000 A 
ATOM     18  C   UNL     1      -2.848  13.911  24.562  0.00  0.00    +0.000 A 
ATOM     19  C   UNL     1      -1.622  14.344  24.044  0.00  0.00    +0.000 A 
ATOM     20  C   UNL     1      -1.016  15.657  24.444  0.00  0.00    +0.000 C 
ATOM     21  C   UNL     1      -0.960  13.533  23.116  0.00  0.00    +0.000 A 
ATOM     22  C   UNL     1      -1.505  12.306  22.702  0.00  0.00    +0.000 A 
ATOM     23  C   UNL     1      -2.701  11.868  23.268  0.00  0.00    +0.000 A 
ENDBRANCH   1  22
BRANCH   2  24
ATOM     24  S   UNL     1      -1.599  13.189  19.773  0.00  0.00    +0.000 S 
BRANCH  24  25
ATOM     25  C   UNL     1      -3.388  12.927  19.861  0.00  0.00    +0.000 C 
BRANCH  25  26
ATOM     26  C   UNL     1      -4.166  13.895  20.750  0.00  0.00    +0.000 C 
ATOM     27  O   UNL     1      -3.733  15.005  21.067  0.00  0.00    +0.000 OA
ATOM     28  N   UNL     1      -5.433  13.470  21.157  0.00  0.00    +0.000 N 
ATOM     29  C   UNL     1      -6.064  12.180  20.930  0.00  0.00    +0.000 C 
ATOM     30  C   UNL     1      -7.552  12.476  21.040  0.00  0.00    +0.000 C 
ATOM     31  C   UNL     1      -7.624  13.575  22.093  0.00  0.00    +0.000 C 
ATOM     32  C   UNL     1      -6.282  14.304  21.995  0.00  0.00    +0.000 C 
ENDBRANCH  25  26
ENDBRANCH  24  25
ENDBRANCH   2  24
TORSDOF 4
ENDMDL
MODEL 4
REMARK VINA RESULT:      -8.1      2.545      4.671
REMARK  Name = 
REMARK  6 active torsions:
REMARK  status: ('A' for Active; 'I' for Inactive)
REMARK    1  A    between atoms: C_1  and  C_2
REMARK    2  A    between atoms: C_4  and  C_5
REMARK    3  A    between atoms: C_7  and  N_8
REMARK    4  A    between atoms: C_9  and  S_10
REMARK    5  A    between atoms: S_10  and  C_11
REMARK    6  A    between atoms: C_11  and  C_12
REMARK                            x       y       z     vdW  Elec       q    Type
REMARK                         _______ _______ _______ _____ _____    ______ ____
ROOT
ATOM      1  N   UNL     1      -0.969  12.026  21.836  0.00  0.00    +0.000 N 
ATOM      2  C   UNL     1      -0.695  12.453  20.497  0.00  0.00    +0.000 A 
ATOM      3  N   UNL     1       0.006  11.788  19.616  0.00  0.00    +0.000 NA
ATOM      4  C   UNL     1       0.466  10.542  20.069  0.00  0.00    +0.000 A 
ATOM      5  C   UNL     1       0.224  10.085  21.329  0.00  0.00    +0.000 A 
ATOM      6  N   UNL     1       0.771   8.846  21.466  0.00  0.00    +0.000 N 
ATOM      7  C   UNL     1       1.392   8.491  20.293  0.00  0.00    +0.000 A 
ATOM      8  C   UNL     1       2.076   7.312  19.981  0.00  0.00    +0.000 A 
ATOM      9  C   UNL     1       2.623   7.211  18.705  0.00  0.00    +0.000 A 
ATOM     10  C   UNL     1       2.488   8.249  17.783  0.00  0.00    +0.000 A 
ATOM     11  C   UNL     1       1.795   9.424  18.110  0.00  0.00    +0.000 A 
ATOM     12  C   UNL     1       1.228   9.555  19.391  0.00  0.00    +0.000 A 
ATOM     13  C   UNL     1      -0.502  10.796  22.312  0.00  0.00    +0.000 A 
ATOM     14  O   UNL     1      -0.688  10.318  23.429  0.00  0.00    +0.000 OA
ATOM     15  H   UNL     1       0.716   8.282  22.296  0.00  0.00    +0.000 HD
ENDROOT
BRANCH   1  22
ATOM     16  C   UNL     1      -1.182  15.511  25.324  0.00  0.00    +0.000 C 
ATOM     17  C   UNL     1      -1.894  14.534  24.440  0.00  0.00    +0.000 A 
ATOM     18  C   UNL     1      -3.262  14.263  24.594  0.00  0.00    +0.000 A 
ATOM     19  C   UNL     1      -3.881  13.263  23.836  0.00  0.00    +0.000 A 
ATOM     20  C   UNL     1      -5.341  12.951  23.985  0.00  0.00    +0.000 C 
ATOM     21  C   UNL     1      -3.109  12.529  22.930  0.00  0.00    +0.000 A 
ATOM     22  C   UNL     1      -1.734  12.779  22.777  0.00  0.00    +0.000 A 
ATOM     23  C   UNL     1      -1.146  13.814  23.502  0.00  0.00    +0.000 A 
ENDBRANCH   1  22
BRANCH   2  24
ATOM     24  S   UNL     1      -1.198  14.104  20.071  0.00  0.00    +0.000 S 
BRANCH  24  25
ATOM     25  C   UNL     1       0.088  15.235  20.658  0.00  0.00    +0.000 C 
BRANCH  25  26
ATOM     26  C   UNL     1       1.495  14.654  20.766  0.00  0.00    +0.000 C 
ATOM     27  O   UNL     1       1.841  13.905  21.682  0.00  0.00    +0.000 OA
ATOM     28  N   UNL     1       2.375  14.985  19.732  0.00  0.00    +0.000 N 
ATOM     29  C   UNL     1       2.155  15.898  18.621  0.00  0.00    +0.000 C 
ATOM     30  C   UNL     1       3.135  15.425  17.558  0.00  0.00    +0.000 C 
ATOM     31  C   UNL     1       4.329  14.929  18.365  0.00  0.00    +0.000 C 
ATOM     32  C   UNL     1       3.742  14.485  19.707  0.00  0.00    +0.000 C 
ENDBRANCH  25  26
ENDBRANCH  24  25
ENDBRANCH   2  24
TORSDOF 4
ENDMDL
MODEL 5
REMARK VINA RESULT:      -8.0      2.930      4.539
REMARK  Name = 
REMARK  6 active torsions:
REMARK  status: ('A' for Active; 'I' for Inactive)
REMARK    1  A    between atoms: C_1  and  C_2
REMARK    2  A    between atoms: C_4  and  C_5
REMARK    3  A    between atoms: C_7  and  N_8
REMARK    4  A    between atoms: C_9  and  S_10
REMARK    5  A    between atoms: S_10  and  C_11
REMARK    6  A    between atoms: C_11  and  C_12
REMARK                            x       y       z     vdW  Elec       q    Type
REMARK                         _______ _______ _______ _____ _____    ______ ____
ROOT
ATOM      1  N   UNL     1      -1.013  12.042  21.790  0.00  0.00    +0.000 N 
ATOM      2  C   UNL     1      -0.771  12.452  20.440  0.00  0.00    +0.000 A 
ATOM      3  N   UNL     1      -0.073  11.787  19.558  0.00  0.00    +0.000 NA
ATOM      4  C   UNL     1       0.420  10.558  20.022  0.00  0.00    +0.000 A 
ATOM      5  C   UNL     1       0.210  10.117  21.294  0.00  0.00    +0.000 A 
ATOM      6  N   UNL     1       0.784   8.891  21.441  0.00  0.00    +0.000 N 
ATOM      7  C   UNL     1       1.392   8.530  20.263  0.00  0.00    +0.000 A 
ATOM      8  C   UNL     1       2.093   7.360  19.958  0.00  0.00    +0.000 A 
ATOM      9  C   UNL     1       2.620   7.248  18.673  0.00  0.00    +0.000 A 
ATOM     10  C   UNL     1       2.448   8.269  17.738  0.00  0.00    +0.000 A 
ATOM     11  C   UNL     1       1.738   9.435  18.058  0.00  0.00    +0.000 A 
ATOM     12  C   UNL     1       1.190   9.575  19.347  0.00  0.00    +0.000 A 
ATOM     13  C   UNL     1      -0.513  10.829  22.278  0.00  0.00    +0.000 A 
ATOM     14  O   UNL     1      -0.670  10.366  23.406  0.00  0.00    +0.000 OA
ATOM     15  H   UNL     1       0.754   8.340  22.280  0.00  0.00    +0.000 HD
ENDROOT
BRANCH   1  22
ATOM     16  C   UNL     1      -5.341  12.986  23.966  0.00  0.00    +0.000 C 
ATOM     17  C   UNL     1      -3.867  13.236  23.876  0.00  0.00    +0.000 A 
ATOM     18  C   UNL     1      -3.249  14.263  24.608  0.00  0.00    +0.000 A 
ATOM     19  C   UNL     1      -1.894  14.555  24.421  0.00  0.00    +0.000 A 
ATOM     20  C   UNL     1      -1.210  15.650  25.187  0.00  0.00    +0.000 C 
ATOM     21  C   UNL     1      -1.168  13.814  23.483  0.00  0.00    +0.000 A 
ATOM     22  C   UNL     1      -1.777  12.794  22.733  0.00  0.00    +0.000 A 
ATOM     23  C   UNL     1      -3.115  12.483  22.969  0.00  0.00    +0.000 A 
ENDBRANCH   1  22
BRANCH   2  24
ATOM     24  S   UNL     1      -1.315  14.086  19.997  0.00  0.00    +0.000 S 
BRANCH  24  25
ATOM     25  C   UNL     1      -0.030  15.249  20.522  0.00  0.00    +0.000 C 
BRANCH  25  26
ATOM     26  C   UNL     1       0.969  15.675  19.448  0.00  0.00    +0.000 C 
ATOM     27  O   UNL     1       2.005  15.050  19.215  0.00  0.00    +0.000 OA
ATOM     28  N   UNL     1       0.622  16.805  18.703  0.00  0.00    +0.000 N 
ATOM     29  C   UNL     1      -0.517  17.689  18.887  0.00  0.00    +0.000 C 
ATOM     30  C   UNL     1      -0.715  18.322  17.518  0.00  0.00    +0.000 C 
ATOM     31  C   UNL     1       0.702  18.439  16.967  0.00  0.00    +0.000 C 
ATOM     32  C   UNL     1       1.482  17.307  17.641  0.00  0.00    +0.000 C 
ENDBRANCH  25  26
ENDBRANCH  24  25
ENDBRANCH   2  24
TORSDOF 4
ENDMDL
MODEL 6
REMARK VINA RESULT:      -8.0      2.545      4.922
REMARK  Name = 
REMARK  6 active torsions:
REMARK  status: ('A' for Active; 'I' for Inactive)
REMARK    1  A    between atoms: C_1  and  C_2
REMARK    2  A    between atoms: C_4  and  C_5
REMARK    3  A    between atoms: C_7  and  N_8
REMARK    4  A    between atoms: C_9  and  S_10
REMARK    5  A    between atoms: S_10  and  C_11
REMARK    6  A    between atoms: C_11  and  C_12
REMARK                            x       y       z     vdW  Elec       q    Type
REMARK                         _______ _______ _______ _____ _____    ______ ____
ROOT
ATOM      1  N   UNL     1      -0.934  11.936  21.823  0.00  0.00    +0.000 N 
ATOM      2  C   UNL     1      -0.663  12.337  20.476  0.00  0.00    +0.000 A 
ATOM      3  N   UNL     1       0.036  11.655  19.607  0.00  0.00    +0.000 NA
ATOM      4  C   UNL     1       0.498  10.419  20.083  0.00  0.00    +0.000 A 
ATOM      5  C   UNL     1       0.260   9.987  21.352  0.00  0.00    +0.000 A 
ATOM      6  N   UNL     1       0.808   8.751  21.513  0.00  0.00    +0.000 N 
ATOM      7  C   UNL     1       1.428   8.374  20.345  0.00  0.00    +0.000 A 
ATOM      8  C   UNL     1       2.112   7.190  20.055  0.00  0.00    +0.000 A 
ATOM      9  C   UNL     1       2.657   7.064  18.779  0.00  0.00    +0.000 A 
ATOM     10  C   UNL     1       2.519   8.084  17.838  0.00  0.00    +0.000 A 
ATOM     11  C   UNL     1       1.825   9.265  18.143  0.00  0.00    +0.000 A 
ATOM     12  C   UNL     1       1.260   9.419  19.423  0.00  0.00    +0.000 A 
ATOM     13  C   UNL     1      -0.465  10.716  22.322  0.00  0.00    +0.000 A 
ATOM     14  O   UNL     1      -0.649  10.259  23.449  0.00  0.00    +0.000 OA
ATOM     15  H   UNL     1       0.755   8.203  22.353  0.00  0.00    +0.000 HD
ENDROOT
BRANCH   1  22
ATOM     16  C   UNL     1      -5.274  12.956  23.942  0.00  0.00    +0.000 C 
ATOM     17  C   UNL     1      -3.796  13.185  23.867  0.00  0.00    +0.000 A 
ATOM     18  C   UNL     1      -3.173  14.208  24.598  0.00  0.00    +0.000 A 
ATOM     19  C   UNL     1      -1.811  14.481  24.425  0.00  0.00    +0.000 A 
ATOM     20  C   UNL     1      -1.122  15.572  25.190  0.00  0.00    +0.000 C 
ATOM     21  C   UNL     1      -1.085  13.723  23.500  0.00  0.00    +0.000 A 
ATOM     22  C   UNL     1      -1.699  12.706  22.751  0.00  0.00    +0.000 A 
ATOM     23  C   UNL     1      -3.044  12.414  22.974  0.00  0.00    +0.000 A 
ENDBRANCH   1  22
BRANCH   2  24
ATOM     24  S   UNL     1      -1.169  13.979  20.019  0.00  0.00    +0.000 S 
BRANCH  24  25
ATOM     25  C   UNL     1       0.095  15.126  20.620  0.00  0.00    +0.000 C 
BRANCH  25  26
ATOM     26  C   UNL     1       1.514  14.571  20.717  0.00  0.00    +0.000 C 
ATOM     27  O   UNL     1       1.871  13.800  21.610  0.00  0.00    +0.000 OA
ATOM     28  N   UNL     1       2.392  14.954  19.700  0.00  0.00    +0.000 N 
ATOM     29  C   UNL     1       2.159  15.898  18.618  0.00  0.00    +0.000 C 
ATOM     30  C   UNL     1       3.155  15.480  17.547  0.00  0.00    +0.000 C 
ATOM     31  C   UNL     1       4.355  14.983  18.344  0.00  0.00    +0.000 C 
ATOM     32  C   UNL     1       3.770  14.484  19.668  0.00  0.00    +0.000 C 
ENDBRANCH  25  26
ENDBRANCH  24  25
ENDBRANCH   2  24
TORSDOF 4
ENDMDL
MODEL 7
REMARK VINA RESULT:      -8.0      2.846      4.197
REMARK  Name = 
REMARK  6 active torsions:
REMARK  status: ('A' for Active; 'I' for Inactive)
REMARK    1  A    between atoms: C_1  and  C_2
REMARK    2  A    between atoms: C_4  and  C_5
REMARK    3  A    between atoms: C_7  and  N_8
REMARK    4  A    between atoms: C_9  and  S_10
REMARK    5  A    between atoms: S_10  and  C_11
REMARK    6  A    between atoms: C_11  and  C_12
REMARK                            x       y       z     vdW  Elec       q    Type
REMARK                         _______ _______ _______ _____ _____    ______ ____
ROOT
ATOM      1  N   UNL     1      -0.979  11.896  21.863  0.00  0.00    +0.000 N 
ATOM      2  C   UNL     1      -0.815  12.273  20.491  0.00  0.00    +0.000 A 
ATOM      3  N   UNL     1      -0.138  11.604  19.595  0.00  0.00    +0.000 NA
ATOM      4  C   UNL     1       0.416  10.406  20.070  0.00  0.00    +0.000 A 
ATOM      5  C   UNL     1       0.282   9.997  21.362  0.00  0.00    +0.000 A 
ATOM      6  N   UNL     1       0.902   8.795  21.515  0.00  0.00    +0.000 N 
ATOM      7  C   UNL     1       1.465   8.418  20.320  0.00  0.00    +0.000 A 
ATOM      8  C   UNL     1       2.190   7.262  20.014  0.00  0.00    +0.000 A 
ATOM      9  C   UNL     1       2.658   7.129  18.709  0.00  0.00    +0.000 A 
ATOM     10  C   UNL     1       2.408   8.115  17.755  0.00  0.00    +0.000 A 
ATOM     11  C   UNL     1       1.675   9.267  18.076  0.00  0.00    +0.000 A 
ATOM     12  C   UNL     1       1.185   9.428  19.386  0.00  0.00    +0.000 A 
ATOM     13  C   UNL     1      -0.416  10.714  22.359  0.00  0.00    +0.000 A 
ATOM     14  O   UNL     1      -0.504  10.280  23.506  0.00  0.00    +0.000 OA
ATOM     15  H   UNL     1       0.931   8.268  22.370  0.00  0.00    +0.000 HD
ENDROOT
BRANCH   1  22
ATOM     16  C   UNL     1      -1.183  15.590  25.130  0.00  0.00    +0.000 C 
ATOM     17  C   UNL     1      -1.884  14.501  24.376  0.00  0.00    +0.000 A 
ATOM     18  C   UNL     1      -3.207  14.137  24.670  0.00  0.00    +0.000 A 
ATOM     19  C   UNL     1      -3.804  13.042  24.035  0.00  0.00    +0.000 A 
ATOM     20  C   UNL     1      -5.215  12.629  24.335  0.00  0.00    +0.000 C 
ATOM     21  C   UNL     1      -3.053  12.307  23.112  0.00  0.00    +0.000 A 
ATOM     22  C   UNL     1      -1.722  12.651  22.819  0.00  0.00    +0.000 A 
ATOM     23  C   UNL     1      -1.162  13.777  23.423  0.00  0.00    +0.000 A 
ENDBRANCH   1  22
BRANCH   2  24
ATOM     24  S   UNL     1      -1.433  13.875  20.030  0.00  0.00    +0.000 S 
BRANCH  24  25
ATOM     25  C   UNL     1      -0.161  15.092  20.448  0.00  0.00    +0.000 C 
BRANCH  25  26
ATOM     26  C   UNL     1       0.808  15.463  19.327  0.00  0.00    +0.000 C 
ATOM     27  O   UNL     1       1.754  14.746  18.997  0.00  0.00    +0.000 OA
ATOM     28  N   UNL     1       0.538  16.658  18.655  0.00  0.00    +0.000 N 
ATOM     29  C   UNL     1      -0.486  17.646  18.953  0.00  0.00    +0.000 C 
ATOM     30  C   UNL     1      -0.702  18.362  17.628  0.00  0.00    +0.000 C 
ATOM     31  C   UNL     1       0.681  18.357  16.987  0.00  0.00    +0.000 C 
ATOM     32  C   UNL     1       1.377  17.119  17.558  0.00  0.00    +0.000 C 
ENDBRANCH  25  26
ENDBRANCH  24  25
ENDBRANCH   2  24
TORSDOF 4
ENDMDL
MODEL 8
REMARK VINA RESULT:      -8.0      2.715      4.924
REMARK  Name = 
REMARK  6 active torsions:
REMARK  status: ('A' for Active; 'I' for Inactive)
REMARK    1  A    between atoms: C_1  and  C_2
REMARK    2  A    between atoms: C_4  and  C_5
REMARK    3  A    between atoms: C_7  and  N_8
REMARK    4  A    between atoms: C_9  and  S_10
REMARK    5  A    between atoms: S_10  and  C_11
REMARK    6  A    between atoms: C_11  and  C_12
REMARK                            x       y       z     vdW  Elec       q    Type
REMARK                         _______ _______ _______ _____ _____    ______ ____
ROOT
ATOM      1  N   UNL     1      -0.984  11.998  21.816  0.00  0.00    +0.000 N 
ATOM      2  C   UNL     1      -0.750  12.402  20.462  0.00  0.00    +0.000 A 
ATOM      3  N   UNL     1      -0.058  11.732  19.578  0.00  0.00    +0.000 NA
ATOM      4  C   UNL     1       0.436  10.505  20.046  0.00  0.00    +0.000 A 
ATOM      5  C   UNL     1       0.233  10.070  21.320  0.00  0.00    +0.000 A 
ATOM      6  N   UNL     1       0.807   8.845  21.470  0.00  0.00    +0.000 N 
ATOM      7  C   UNL     1       1.407   8.477  20.290  0.00  0.00    +0.000 A 
ATOM      8  C   UNL     1       2.106   7.305  19.985  0.00  0.00    +0.000 A 
ATOM      9  C   UNL     1       2.624   7.187  18.698  0.00  0.00    +0.000 A 
ATOM     10  C   UNL     1       2.448   8.203  17.759  0.00  0.00    +0.000 A 
ATOM     11  C   UNL     1       1.740   9.371  18.078  0.00  0.00    +0.000 A 
ATOM     12  C   UNL     1       1.201   9.518  19.370  0.00  0.00    +0.000 A 
ATOM     13  C   UNL     1      -0.482  10.788  22.305  0.00  0.00    +0.000 A 
ATOM     14  O   UNL     1      -0.633  10.330  23.437  0.00  0.00    +0.000 OA
ATOM     15  H   UNL     1       0.782   8.298  22.312  0.00  0.00    +0.000 HD
ENDROOT
BRANCH   1  22
ATOM     16  C   UNL     1      -5.286  12.922  24.053  0.00  0.00    +0.000 C 
ATOM     17  C   UNL     1      -3.817  13.190  23.933  0.00  0.00    +0.000 A 
ATOM     18  C   UNL     1      -3.200  14.236  24.636  0.00  0.00    +0.000 A 
ATOM     19  C   UNL     1      -1.852  14.543  24.421  0.00  0.00    +0.000 A 
ATOM     20  C   UNL     1      -1.170  15.659  25.156  0.00  0.00    +0.000 C 
ATOM     21  C   UNL     1      -1.133  13.797  23.481  0.00  0.00    +0.000 A 
ATOM     22  C   UNL     1      -1.742  12.756  22.759  0.00  0.00    +0.000 A 
ATOM     23  C   UNL     1      -3.071  12.431  23.025  0.00  0.00    +0.000 A 
ENDBRANCH   1  22
BRANCH   2  24
ATOM     24  S   UNL     1      -1.295  14.035  20.015  0.00  0.00    +0.000 S 
BRANCH  24  25
ATOM     25  C   UNL     1       0.073  15.175  20.341  0.00  0.00    +0.000 C 
BRANCH  25  26
ATOM     26  C   UNL     1       0.762  15.764  19.112  0.00  0.00    +0.000 C 
ATOM     27  O   UNL     1       0.213  16.571  18.360  0.00  0.00    +0.000 OA
ATOM     28  N   UNL     1       2.086  15.367  18.904  0.00  0.00    +0.000 N 
ATOM     29  C   UNL     1       2.857  14.383  19.647  0.00  0.00    +0.000 C 
ATOM     30  C   UNL     1       4.302  14.787  19.398  0.00  0.00    +0.000 C 
ATOM     31  C   UNL     1       4.283  15.336  17.976  0.00  0.00    +0.000 C 
ATOM     32  C   UNL     1       2.861  15.865  17.777  0.00  0.00    +0.000 C 
ENDBRANCH  25  26
ENDBRANCH  24  25
ENDBRANCH   2  24
TORSDOF 4
ENDMDL
MODEL 9
REMARK VINA RESULT:      -8.0      2.697      4.650
REMARK  Name = 
REMARK  6 active torsions:
REMARK  status: ('A' for Active; 'I' for Inactive)
REMARK    1  A    between atoms: C_1  and  C_2
REMARK    2  A    between atoms: C_4  and  C_5
REMARK    3  A    between atoms: C_7  and  N_8
REMARK    4  A    between atoms: C_9  and  S_10
REMARK    5  A    between atoms: S_10  and  C_11
REMARK    6  A    between atoms: C_11  and  C_12
REMARK                            x       y       z     vdW  Elec       q    Type
REMARK                         _______ _______ _______ _____ _____    ______ ____
ROOT
ATOM      1  N   UNL     1      -0.936  11.920  21.856  0.00  0.00    +0.000 N 
ATOM      2  C   UNL     1      -0.727  12.299  20.491  0.00  0.00    +0.000 A 
ATOM      3  N   UNL     1      -0.048  11.614  19.609  0.00  0.00    +0.000 NA
ATOM      4  C   UNL     1       0.458  10.397  20.091  0.00  0.00    +0.000 A 
ATOM      5  C   UNL     1       0.278   9.986  21.376  0.00  0.00    +0.000 A 
ATOM      6  N   UNL     1       0.857   8.765  21.539  0.00  0.00    +0.000 N 
ATOM      7  C   UNL     1       1.438   8.376  20.356  0.00  0.00    +0.000 A 
ATOM      8  C   UNL     1       2.134   7.200  20.061  0.00  0.00    +0.000 A 
ATOM      9  C   UNL     1       2.631   7.059  18.768  0.00  0.00    +0.000 A 
ATOM     10  C   UNL     1       2.436   8.057  17.813  0.00  0.00    +0.000 A 
ATOM     11  C   UNL     1       1.731   9.230  18.122  0.00  0.00    +0.000 A 
ATOM     12  C   UNL     1       1.213   9.399  19.420  0.00  0.00    +0.000 A 
ATOM     13  C   UNL     1      -0.423  10.720  22.360  0.00  0.00    +0.000 A 
ATOM     14  O   UNL     1      -0.553  10.283  23.502  0.00  0.00    +0.000 OA
ATOM     15  H   UNL     1       0.848   8.233  22.391  0.00  0.00    +0.000 HD
ENDROOT
BRANCH   1  22
ATOM     16  C   UNL     1      -1.097  15.570  25.175  0.00  0.00    +0.000 C 
ATOM     17  C   UNL     1      -1.817  14.526  24.378  0.00  0.00    +0.000 A 
ATOM     18  C   UNL     1      -3.165  14.216  24.619  0.00  0.00    +0.000 A 
ATOM     19  C   UNL     1      -3.785  13.158  23.945  0.00  0.00    +0.000 A 
ATOM     20  C   UNL     1      -5.223  12.804  24.188  0.00  0.00    +0.000 C 
ATOM     21  C   UNL     1      -3.034  12.405  23.037  0.00  0.00    +0.000 A 
ATOM     22  C   UNL     1      -1.680  12.694  22.798  0.00  0.00    +0.000 A 
ATOM     23  C   UNL     1      -1.093  13.784  23.439  0.00  0.00    +0.000 A 
ENDBRANCH   1  22
BRANCH   2  24
ATOM     24  S   UNL     1      -1.283  13.922  20.023  0.00  0.00    +0.000 S 
BRANCH  24  25
ATOM     25  C   UNL     1       0.062  15.082  20.372  0.00  0.00    +0.000 C 
BRANCH  25  26
ATOM     26  C   UNL     1       0.695  15.760  19.160  0.00  0.00    +0.000 C 
ATOM     27  O   UNL     1       0.115  16.623  18.498  0.00  0.00    +0.000 OA
ATOM     28  N   UNL     1       2.004  15.376  18.858  0.00  0.00    +0.000 N 
ATOM     29  C   UNL     1       2.804  14.337  19.487  0.00  0.00    +0.000 C 
ATOM     30  C   UNL     1       4.238  14.755  19.199  0.00  0.00    +0.000 C 
ATOM     31  C   UNL     1       4.153  15.409  17.825  0.00  0.00    +0.000 C 
ATOM     32  C   UNL     1       2.727  15.956  17.735  0.00  0.00    +0.000 C 
ENDBRANCH  25  26
ENDBRANCH  24  25
ENDBRANCH   2  24
TORSDOF 4
ENDMDL
