MODEL 1
REMARK VINA RESULT:      -8.1      0.000      0.000
REMARK  Name = 
REMARK  7 active torsions:
REMARK  status: ('A' for Active; 'I' for Inactive)
REMARK    1  A    between atoms: C_2  and  O_3
REMARK    2  A    between atoms: C_2  and  C_4
REMARK    3  A    between atoms: N_6  and  C_7
REMARK    4  A    between atoms: C_12  and  N_13
REMARK    5  A    between atoms: C_17  and  C_19
REMARK    6  A    between atoms: C_19  and  N_20
REMARK    7  A    between atoms: C_24  and  S_25
REMARK                            x       y       z     vdW  Elec       q    Type
REMARK                         _______ _______ _______ _____ _____    ______ ____
ROOT
ATOM      1  C   UNL     1       4.440   5.145  17.941  0.00  0.00    +0.000 A 
ATOM      2  C   UNL     1       3.586   4.776  18.907  0.00  0.00    +0.000 A 
ATOM      3  N   UNL     1       2.619   5.584  19.471  0.00  0.00    +0.000 N 
ATOM      4  C   UNL     1       2.430   6.895  18.964  0.00  0.00    +0.000 A 
ATOM      5  C   UNL     1       1.468   7.754  19.488  0.00  0.00    +0.000 A 
ATOM      6  C   UNL     1       1.349   9.089  19.083  0.00  0.00    +0.000 A 
ATOM      7  C   UNL     1       2.157   9.519  18.020  0.00  0.00    +0.000 A 
ATOM      8  F   UNL     1       2.078  10.780  17.567  0.00  0.00    +0.000 F 
ATOM      9  C   UNL     1       3.093   8.677  17.432  0.00  0.00    +0.000 A 
ATOM     10  C   UNL     1       3.245   7.381  17.930  0.00  0.00    +0.000 A 
ATOM     11  C   UNL     1       4.319   6.515  17.402  0.00  0.00    +0.000 A 
ATOM     12  O   UNL     1       5.118   6.925  16.564  0.00  0.00    +0.000 OA
ENDROOT
BRANCH   6  13
ATOM     13  N   UNL     1       0.414   9.864  19.741  0.00  0.00    +0.000 N 
ATOM     14  C   UNL     1       0.167   9.678  21.169  0.00  0.00    +0.000 C 
ATOM     15  C   UNL     1      -0.157  11.069  21.732  0.00  0.00    +0.000 C 
ATOM     16  N   UNL     1      -1.327  11.661  21.056  0.00  0.00    +0.000 N 
ATOM     17  C   UNL     1      -2.379  12.292  21.694  0.00  0.00    +0.000 C 
ATOM     18  O   UNL     1      -3.309  12.796  21.065  0.00  0.00    +0.000 OA
ATOM     19  C   UNL     1      -1.231  11.696  19.584  0.00  0.00    +0.000 C 
ATOM     20  C   UNL     1      -0.760  10.354  18.987  0.00  0.00    +0.000 C 
BRANCH  17  21
ATOM     21  C   UNL     1      -2.371  12.355  23.206  0.00  0.00    +0.000 C 
BRANCH  21  22
ATOM     22  N   UNL     1      -2.023  13.672  23.670  0.00  0.00    +0.000 N 
ATOM     23  N   UNL     1      -0.730  14.032  23.809  0.00  0.00    +0.000 NA
ATOM     24  N   UNL     1      -0.759  15.289  24.232  0.00  0.00    +0.000 NA
ATOM     25  N   UNL     1      -2.050  15.743  24.334  0.00  0.00    +0.000 NA
ATOM     26  C   UNL     1      -2.815  14.739  23.973  0.00  0.00    +0.000 A 
BRANCH  26  27
ATOM     27  S   UNL     1      -4.528  14.753  23.868  0.00  0.00    +0.000 S 
ATOM     28  H   UNL     1      -4.658  16.071  23.666  0.00  0.00    +0.000 HD
ENDBRANCH  26  27
ENDBRANCH  21  22
ENDBRANCH  17  21
ENDBRANCH   6  13
BRANCH   3  29
ATOM     29  C   UNL     1       1.820   5.072  20.606  0.00  0.00    +0.000 C 
ATOM     30  C   UNL     1       1.065   3.766  20.525  0.00  0.00    +0.000 C 
ATOM     31  C   UNL     1       2.256   3.878  21.425  0.00  0.00    +0.000 C 
ENDBRANCH   3  29
BRANCH   1  33
ATOM     32  O   UNL     1       5.472   3.597  16.462  0.00  0.00    +0.000 OA
ATOM     33  C   UNL     1       5.493   4.201  17.520  0.00  0.00    +0.000 C 
BRANCH  33  34
ATOM     34  O   UNL     1       6.469   4.016  18.437  0.00  0.00    +0.000 OA
ATOM     35  H   UNL     1       6.901   4.850  18.741  0.00  0.00    +0.000 HD
ENDBRANCH  33  34
ENDBRANCH   1  33
TORSDOF 7
ENDMDL
MODEL 2
REMARK VINA RESULT:      -8.0      1.140      1.465
REMARK  Name = 
REMARK  7 active torsions:
REMARK  status: ('A' for Active; 'I' for Inactive)
REMARK    1  A    between atoms: C_2  and  O_3
REMARK    2  A    between atoms: C_2  and  C_4
REMARK    3  A    between atoms: N_6  and  C_7
REMARK    4  A    between atoms: C_12  and  N_13
REMARK    5  A    between atoms: C_17  and  C_19
REMARK    6  A    between atoms: C_19  and  N_20
REMARK    7  A    between atoms: C_24  and  S_25
REMARK                            x       y       z     vdW  Elec       q    Type
REMARK                         _______ _______ _______ _____ _____    ______ ____
ROOT
ATOM      1  C   UNL     1       4.418   5.133  17.965  0.00  0.00    +0.000 A 
ATOM      2  C   UNL     1       3.525   4.785  18.903  0.00  0.00    +0.000 A 
ATOM      3  N   UNL     1       2.561   5.616  19.437  0.00  0.00    +0.000 N 
ATOM      4  C   UNL     1       2.419   6.930  18.924  0.00  0.00    +0.000 A 
ATOM      5  C   UNL     1       1.461   7.812  19.417  0.00  0.00    +0.000 A 
ATOM      6  C   UNL     1       1.386   9.149  19.008  0.00  0.00    +0.000 A 
ATOM      7  C   UNL     1       2.236   9.559  17.970  0.00  0.00    +0.000 A 
ATOM      8  F   UNL     1       2.201  10.821  17.515  0.00  0.00    +0.000 F 
ATOM      9  C   UNL     1       3.170   8.694  17.412  0.00  0.00    +0.000 A 
ATOM     10  C   UNL     1       3.276   7.395  17.916  0.00  0.00    +0.000 A 
ATOM     11  C   UNL     1       4.346   6.504  17.421  0.00  0.00    +0.000 A 
ATOM     12  O   UNL     1       5.180   6.895  16.608  0.00  0.00    +0.000 OA
ENDROOT
BRANCH   6  13
ATOM     13  N   UNL     1       0.449   9.947  19.636  0.00  0.00    +0.000 N 
ATOM     14  C   UNL     1       0.338   9.954  21.093  0.00  0.00    +0.000 C 
ATOM     15  C   UNL     1      -0.050  11.388  21.485  0.00  0.00    +0.000 C 
ATOM     16  N   UNL     1      -1.316  11.793  20.846  0.00  0.00    +0.000 N 
ATOM     17  C   UNL     1      -2.359  12.437  21.485  0.00  0.00    +0.000 C 
ATOM     18  O   UNL     1      -3.376  12.780  20.882  0.00  0.00    +0.000 OA
ATOM     19  C   UNL     1      -1.347  11.619  19.381  0.00  0.00    +0.000 C 
ATOM     20  C   UNL     1      -0.819  10.239  18.935  0.00  0.00    +0.000 C 
BRANCH  17  21
ATOM     21  C   UNL     1      -2.231  12.722  22.966  0.00  0.00    +0.000 C 
BRANCH  21  22
ATOM     22  N   UNL     1      -3.523  12.832  23.588  0.00  0.00    +0.000 N 
ATOM     23  N   UNL     1      -4.085  11.768  24.200  0.00  0.00    +0.000 NA
ATOM     24  N   UNL     1      -5.244  12.207  24.673  0.00  0.00    +0.000 NA
ATOM     25  N   UNL     1      -5.414  13.540  24.399  0.00  0.00    +0.000 NA
ATOM     26  C   UNL     1      -4.340  13.913  23.741  0.00  0.00    +0.000 A 
BRANCH  26  27
ATOM     27  S   UNL     1      -3.989  15.496  23.180  0.00  0.00    +0.000 S 
ATOM     28  H   UNL     1      -2.768  15.585  23.724  0.00  0.00    +0.000 HD
ENDBRANCH  26  27
ENDBRANCH  21  22
ENDBRANCH  17  21
ENDBRANCH   6  13
BRANCH   3  29
ATOM     29  C   UNL     1       1.715   5.124  20.546  0.00  0.00    +0.000 C 
ATOM     30  C   UNL     1       1.004   3.793  20.479  0.00  0.00    +0.000 C 
ATOM     31  C   UNL     1       2.139   3.977  21.437  0.00  0.00    +0.000 C 
ENDBRANCH   3  29
BRANCH   1  33
ATOM     32  O   UNL     1       5.477   3.584  16.506  0.00  0.00    +0.000 OA
ATOM     33  C   UNL     1       5.461   4.163  17.577  0.00  0.00    +0.000 C 
BRANCH  33  34
ATOM     34  O   UNL     1       6.380   3.926  18.540  0.00  0.00    +0.000 OA
ATOM     35  H   UNL     1       6.468   4.653  19.202  0.00  0.00    +0.000 HD
ENDBRANCH  33  34
ENDBRANCH   1  33
TORSDOF 7
ENDMDL
MODEL 3
REMARK VINA RESULT:      -7.9      1.555      2.086
REMARK  Name = 
REMARK  7 active torsions:
REMARK  status: ('A' for Active; 'I' for Inactive)
REMARK    1  A    between atoms: C_2  and  O_3
REMARK    2  A    between atoms: C_2  and  C_4
REMARK    3  A    between atoms: N_6  and  C_7
REMARK    4  A    between atoms: C_12  and  N_13
REMARK    5  A    between atoms: C_17  and  C_19
REMARK    6  A    between atoms: C_19  and  N_20
REMARK    7  A    between atoms: C_24  and  S_25
REMARK                            x       y       z     vdW  Elec       q    Type
REMARK                         _______ _______ _______ _____ _____    ______ ____
ROOT
ATOM      1  C   UNL     1       4.269   5.096  17.850  0.00  0.00    +0.000 A 
ATOM      2  C   UNL     1       3.476   4.752  18.875  0.00  0.00    +0.000 A 
ATOM      3  N   UNL     1       2.595   5.594  19.523  0.00  0.00    +0.000 N 
ATOM      4  C   UNL     1       2.429   6.920  19.049  0.00  0.00    +0.000 A 
ATOM      5  C   UNL     1       1.551   7.814  19.657  0.00  0.00    +0.000 A 
ATOM      6  C   UNL     1       1.464   9.159  19.278  0.00  0.00    +0.000 A 
ATOM      7  C   UNL     1       2.206   9.568  18.160  0.00  0.00    +0.000 A 
ATOM      8  F   UNL     1       2.151  10.839  17.730  0.00  0.00    +0.000 F 
ATOM      9  C   UNL     1       3.053   8.693  17.490  0.00  0.00    +0.000 A 
ATOM     10  C   UNL     1       3.182   7.384  17.960  0.00  0.00    +0.000 A 
ATOM     11  C   UNL     1       4.170   6.479  17.338  0.00  0.00    +0.000 A 
ATOM     12  O   UNL     1       4.920   6.864  16.445  0.00  0.00    +0.000 OA
ENDROOT
BRANCH   6  13
ATOM     13  N   UNL     1       0.621   9.966  20.017  0.00  0.00    +0.000 N 
ATOM     14  C   UNL     1      -0.023  11.126  19.405  0.00  0.00    +0.000 C 
ATOM     15  C   UNL     1      -1.402  11.249  20.067  0.00  0.00    +0.000 C 
ATOM     16  N   UNL     1      -1.282  11.409  21.528  0.00  0.00    +0.000 N 
ATOM     17  C   UNL     1      -1.979  12.331  22.288  0.00  0.00    +0.000 C 
ATOM     18  O   UNL     1      -1.856  12.387  23.511  0.00  0.00    +0.000 OA
ATOM     19  C   UNL     1      -0.467  10.375  22.193  0.00  0.00    +0.000 C 
ATOM     20  C   UNL     1       0.869  10.113  21.467  0.00  0.00    +0.000 C 
BRANCH  17  21
ATOM     21  C   UNL     1      -2.913  13.289  21.580  0.00  0.00    +0.000 C 
BRANCH  21  22
ATOM     22  N   UNL     1      -4.239  13.228  22.134  0.00  0.00    +0.000 N 
ATOM     23  N   UNL     1      -5.083  12.231  21.792  0.00  0.00    +0.000 NA
ATOM     24  N   UNL     1      -6.193  12.460  22.480  0.00  0.00    +0.000 NA
ATOM     25  N   UNL     1      -6.058  13.567  23.279  0.00  0.00    +0.000 NA
ATOM     26  C   UNL     1      -4.845  14.021  23.063  0.00  0.00    +0.000 A 
BRANCH  26  27
ATOM     27  S   UNL     1      -4.113  15.371  23.830  0.00  0.00    +0.000 S 
ATOM     28  H   UNL     1      -5.227  16.109  23.936  0.00  0.00    +0.000 HD
ENDBRANCH  26  27
ENDBRANCH  21  22
ENDBRANCH  17  21
ENDBRANCH   6  13
BRANCH   3  29
ATOM     29  C   UNL     1       1.864   5.102  20.711  0.00  0.00    +0.000 C 
ATOM     30  C   UNL     1       1.029   3.843  20.670  0.00  0.00    +0.000 C 
ATOM     31  C   UNL     1       2.295   3.866  21.469  0.00  0.00    +0.000 C 
ENDBRANCH   3  29
BRANCH   1  33
ATOM     32  O   UNL     1       5.104   3.520  16.280  0.00  0.00    +0.000 OA
ATOM     33  C   UNL     1       5.240   4.111  17.336  0.00  0.00    +0.000 C 
BRANCH  33  34
ATOM     34  O   UNL     1       6.279   3.874  18.168  0.00  0.00    +0.000 OA
ATOM     35  H   UNL     1       6.630   4.682  18.616  0.00  0.00    +0.000 HD
ENDBRANCH  33  34
ENDBRANCH   1  33
TORSDOF 7
ENDMDL
MODEL 4
REMARK VINA RESULT:      -7.8      4.211     10.208
REMARK  Name = 
REMARK  7 active torsions:
REMARK  status: ('A' for Active; 'I' for Inactive)
REMARK    1  A    between atoms: C_2  and  O_3
REMARK    2  A    between atoms: C_2  and  C_4
REMARK    3  A    between atoms: N_6  and  C_7
REMARK    4  A    between atoms: C_12  and  N_13
REMARK    5  A    between atoms: C_17  and  C_19
REMARK    6  A    between atoms: C_19  and  N_20
REMARK    7  A    between atoms: C_24  and  S_25
REMARK                            x       y       z     vdW  Elec       q    Type
REMARK                         _______ _______ _______ _____ _____    ______ ____
ROOT
ATOM      1  C   UNL     1      -1.728  13.044  20.911  0.00  0.00    +0.000 A 
ATOM      2  C   UNL     1      -1.906  12.495  19.700  0.00  0.00    +0.000 A 
ATOM      3  N   UNL     1      -1.295  11.343  19.247  0.00  0.00    +0.000 N 
ATOM      4  C   UNL     1      -0.464  10.607  20.130  0.00  0.00    +0.000 A 
ATOM      5  C   UNL     1       0.173   9.434  19.732  0.00  0.00    +0.000 A 
ATOM      6  C   UNL     1       1.090   8.762  20.549  0.00  0.00    +0.000 A 
ATOM      7  C   UNL     1       1.263   9.235  21.858  0.00  0.00    +0.000 A 
ATOM      8  F   UNL     1       2.111   8.624  22.700  0.00  0.00    +0.000 F 
ATOM      9  C   UNL     1       0.604  10.371  22.312  0.00  0.00    +0.000 A 
ATOM     10  C   UNL     1      -0.230  11.067  21.434  0.00  0.00    +0.000 A 
ATOM     11  C   UNL     1      -0.839  12.343  21.860  0.00  0.00    +0.000 A 
ATOM     12  O   UNL     1      -0.590  12.837  22.958  0.00  0.00    +0.000 OA
ENDROOT
BRANCH   6  13
ATOM     13  N   UNL     1       1.723   7.659  20.007  0.00  0.00    +0.000 N 
ATOM     14  C   UNL     1       2.080   7.629  18.591  0.00  0.00    +0.000 C 
ATOM     15  C   UNL     1       3.393   6.839  18.497  0.00  0.00    +0.000 C 
ATOM     16  N   UNL     1       3.238   5.477  19.042  0.00  0.00    +0.000 N 
ATOM     17  C   UNL     1       3.702   4.322  18.441  0.00  0.00    +0.000 C 
ATOM     18  O   UNL     1       3.569   3.218  18.969  0.00  0.00    +0.000 OA
ATOM     19  C   UNL     1       2.685   5.423  20.409  0.00  0.00    +0.000 C 
ATOM     20  C   UNL     1       1.447   6.327  20.585  0.00  0.00    +0.000 C 
BRANCH  17  21
ATOM     21  C   UNL     1       4.389   4.436  17.096  0.00  0.00    +0.000 C 
BRANCH  21  22
ATOM     22  N   UNL     1       5.819   4.474  17.244  0.00  0.00    +0.000 N 
ATOM     23  N   UNL     1       6.385   4.451  18.469  0.00  0.00    +0.000 NA
ATOM     24  N   UNL     1       7.693   4.481  18.252  0.00  0.00    +0.000 NA
ATOM     25  N   UNL     1       7.968   4.492  16.908  0.00  0.00    +0.000 NA
ATOM     26  C   UNL     1       6.804   4.475  16.301  0.00  0.00    +0.000 A 
BRANCH  26  27
ATOM     27  S   UNL     1       6.541   4.435  14.606  0.00  0.00    +0.000 S 
ATOM     28  H   UNL     1       5.620   3.462  14.616  0.00  0.00    +0.000 HD
ENDBRANCH  26  27
ENDBRANCH  21  22
ENDBRANCH  17  21
ENDBRANCH   6  13
BRANCH   3  29
ATOM     29  C   UNL     1      -1.504  10.916  17.846  0.00  0.00    +0.000 C 
ATOM     30  C   UNL     1      -2.528   9.870  17.474  0.00  0.00    +0.000 C 
ATOM     31  C   UNL     1      -2.742  11.294  17.064  0.00  0.00    +0.000 C 
ENDBRANCH   3  29
BRANCH   1  33
ATOM     32  O   UNL     1      -3.558  14.551  21.081  0.00  0.00    +0.000 OA
ATOM     33  C   UNL     1      -2.365  14.342  21.207  0.00  0.00    +0.000 C 
BRANCH  33  34
ATOM     34  O   UNL     1      -1.498  15.309  21.584  0.00  0.00    +0.000 OA
ATOM     35  H   UNL     1      -1.189  15.232  22.519  0.00  0.00    +0.000 HD
ENDBRANCH  33  34
ENDBRANCH   1  33
TORSDOF 7
ENDMDL
MODEL 5
REMARK VINA RESULT:      -7.8      1.874      2.415
REMARK  Name = 
REMARK  7 active torsions:
REMARK  status: ('A' for Active; 'I' for Inactive)
REMARK    1  A    between atoms: C_2  and  O_3
REMARK    2  A    between atoms: C_2  and  C_4
REMARK    3  A    between atoms: N_6  and  C_7
REMARK    4  A    between atoms: C_12  and  N_13
REMARK    5  A    between atoms: C_17  and  C_19
REMARK    6  A    between atoms: C_19  and  N_20
REMARK    7  A    between atoms: C_24  and  S_25
REMARK                            x       y       z     vdW  Elec       q    Type
REMARK                         _______ _______ _______ _____ _____    ______ ____
ROOT
ATOM      1  C   UNL     1       4.445   4.972  17.785  0.00  0.00    +0.000 A 
ATOM      2  C   UNL     1       3.707   4.615  18.847  0.00  0.00    +0.000 A 
ATOM      3  N   UNL     1       2.830   5.438  19.523  0.00  0.00    +0.000 N 
ATOM      4  C   UNL     1       2.603   6.753  19.043  0.00  0.00    +0.000 A 
ATOM      5  C   UNL     1       1.725   7.627  19.680  0.00  0.00    +0.000 A 
ATOM      6  C   UNL     1       1.581   8.965  19.291  0.00  0.00    +0.000 A 
ATOM      7  C   UNL     1       2.262   9.384  18.139  0.00  0.00    +0.000 A 
ATOM      8  F   UNL     1       2.151  10.647  17.699  0.00  0.00    +0.000 F 
ATOM      9  C   UNL     1       3.106   8.527  17.442  0.00  0.00    +0.000 A 
ATOM     10  C   UNL     1       3.295   7.227  17.919  0.00  0.00    +0.000 A 
ATOM     11  C   UNL     1       4.283   6.345  17.265  0.00  0.00    +0.000 A 
ATOM     12  O   UNL     1       4.982   6.743  16.336  0.00  0.00    +0.000 OA
ENDROOT
BRANCH   6  13
ATOM     13  N   UNL     1       0.746   9.754  20.058  0.00  0.00    +0.000 N 
ATOM     14  C   UNL     1       0.131  10.953  19.492  0.00  0.00    +0.000 C 
ATOM     15  C   UNL     1      -1.253  11.073  20.147  0.00  0.00    +0.000 C 
ATOM     16  N   UNL     1      -1.144  11.165  21.615  0.00  0.00    +0.000 N 
ATOM     17  C   UNL     1      -1.831  12.066  22.408  0.00  0.00    +0.000 C 
ATOM     18  O   UNL     1      -1.720  12.065  23.634  0.00  0.00    +0.000 OA
ATOM     19  C   UNL     1      -0.356  10.087  22.240  0.00  0.00    +0.000 C 
ATOM     20  C   UNL     1       0.982   9.831  21.516  0.00  0.00    +0.000 C 
BRANCH  17  21
ATOM     21  C   UNL     1      -2.739  13.072  21.735  0.00  0.00    +0.000 C 
BRANCH  21  22
ATOM     22  N   UNL     1      -4.124  12.714  21.896  0.00  0.00    +0.000 N 
ATOM     23  N   UNL     1      -4.697  12.715  23.118  0.00  0.00    +0.000 NA
ATOM     24  N   UNL     1      -5.958  12.360  22.914  0.00  0.00    +0.000 NA
ATOM     25  N   UNL     1      -6.204  12.164  21.578  0.00  0.00    +0.000 NA
ATOM     26  C   UNL     1      -5.067  12.398  20.964  0.00  0.00    +0.000 A 
BRANCH  26  27
ATOM     27  S   UNL     1      -4.797  12.345  19.270  0.00  0.00    +0.000 S 
ATOM     28  H   UNL     1      -4.888  13.665  19.060  0.00  0.00    +0.000 HD
ENDBRANCH  26  27
ENDBRANCH  21  22
ENDBRANCH  17  21
ENDBRANCH   6  13
BRANCH   3  29
ATOM     29  C   UNL     1       2.165   4.938  20.746  0.00  0.00    +0.000 C 
ATOM     30  C   UNL     1       1.048   3.922  20.689  0.00  0.00    +0.000 C 
ATOM     31  C   UNL     1       2.375   3.530  21.261  0.00  0.00    +0.000 C 
ENDBRANCH   3  29
BRANCH   1  33
ATOM     32  O   UNL     1       5.140   3.153  16.423  0.00  0.00    +0.000 OA
ATOM     33  C   UNL     1       5.423   4.011  17.240  0.00  0.00    +0.000 C 
BRANCH  33  34
ATOM     34  O   UNL     1       6.663   4.125  17.767  0.00  0.00    +0.000 OA
ATOM     35  H   UNL     1       6.858   3.474  18.484  0.00  0.00    +0.000 HD
ENDBRANCH  33  34
ENDBRANCH   1  33
TORSDOF 7
ENDMDL
MODEL 6
REMARK VINA RESULT:      -7.7      0.927      1.086
REMARK  Name = 
REMARK  7 active torsions:
REMARK  status: ('A' for Active; 'I' for Inactive)
REMARK    1  A    between atoms: C_2  and  O_3
REMARK    2  A    between atoms: C_2  and  C_4
REMARK    3  A    between atoms: N_6  and  C_7
REMARK    4  A    between atoms: C_12  and  N_13
REMARK    5  A    between atoms: C_17  and  C_19
REMARK    6  A    between atoms: C_19  and  N_20
REMARK    7  A    between atoms: C_24  and  S_25
REMARK                            x       y       z     vdW  Elec       q    Type
REMARK                         _______ _______ _______ _____ _____    ______ ____
ROOT
ATOM      1  C   UNL     1       4.417   5.140  17.948  0.00  0.00    +0.000 A 
ATOM      2  C   UNL     1       3.606   4.775  18.952  0.00  0.00    +0.000 A 
ATOM      3  N   UNL     1       2.660   5.583  19.550  0.00  0.00    +0.000 N 
ATOM      4  C   UNL     1       2.443   6.889  19.041  0.00  0.00    +0.000 A 
ATOM      5  C   UNL     1       1.499   7.747  19.599  0.00  0.00    +0.000 A 
ATOM      6  C   UNL     1       1.356   9.078  19.188  0.00  0.00    +0.000 A 
ATOM      7  C   UNL     1       2.116   9.503  18.088  0.00  0.00    +0.000 A 
ATOM      8  F   UNL     1       2.011  10.760  17.630  0.00  0.00    +0.000 F 
ATOM      9  C   UNL     1       3.030   8.661  17.468  0.00  0.00    +0.000 A 
ATOM     10  C   UNL     1       3.210   7.370  17.970  0.00  0.00    +0.000 A 
ATOM     11  C   UNL     1       4.266   6.505  17.403  0.00  0.00    +0.000 A 
ATOM     12  O   UNL     1       5.026   6.913  16.528  0.00  0.00    +0.000 OA
ENDROOT
BRANCH   6  13
ATOM     13  N   UNL     1       0.446   9.854  19.879  0.00  0.00    +0.000 N 
ATOM     14  C   UNL     1       0.382   9.803  21.338  0.00  0.00    +0.000 C 
ATOM     15  C   UNL     1       0.017  11.221  21.800  0.00  0.00    +0.000 C 
ATOM     16  N   UNL     1      -1.267  11.658  21.220  0.00  0.00    +0.000 N 
ATOM     17  C   UNL     1      -2.284  12.281  21.920  0.00  0.00    +0.000 C 
ATOM     18  O   UNL     1      -3.319  12.652  21.365  0.00  0.00    +0.000 OA
ATOM     19  C   UNL     1      -1.348  11.544  19.752  0.00  0.00    +0.000 C 
ATOM     20  C   UNL     1      -0.844  10.181  19.233  0.00  0.00    +0.000 C 
BRANCH  17  21
ATOM     21  C   UNL     1      -2.106  12.504  23.406  0.00  0.00    +0.000 C 
BRANCH  21  22
ATOM     22  N   UNL     1      -2.500  13.835  23.784  0.00  0.00    +0.000 N 
ATOM     23  N   UNL     1      -3.623  14.042  24.502  0.00  0.00    +0.000 NA
ATOM     24  N   UNL     1      -3.683  15.354  24.689  0.00  0.00    +0.000 NA
ATOM     25  N   UNL     1      -2.599  15.981  24.129  0.00  0.00    +0.000 NA
ATOM     26  C   UNL     1      -1.874  15.030  23.585  0.00  0.00    +0.000 A 
BRANCH  26  27
ATOM     27  S   UNL     1      -0.373  15.232  22.778  0.00  0.00    +0.000 S 
ATOM     28  H   UNL     1       0.322  15.642  23.847  0.00  0.00    +0.000 HD
ENDBRANCH  26  27
ENDBRANCH  21  22
ENDBRANCH  17  21
ENDBRANCH   6  13
BRANCH   3  29
ATOM     29  C   UNL     1       1.913   5.076  20.722  0.00  0.00    +0.000 C 
ATOM     30  C   UNL     1       0.995   3.879  20.627  0.00  0.00    +0.000 C 
ATOM     31  C   UNL     1       2.270   3.775  21.406  0.00  0.00    +0.000 C 
ENDBRANCH   3  29
BRANCH   1  33
ATOM     32  O   UNL     1       5.408   3.609  16.425  0.00  0.00    +0.000 OA
ATOM     33  C   UNL     1       5.456   4.198  17.490  0.00  0.00    +0.000 C 
BRANCH  33  34
ATOM     34  O   UNL     1       6.451   3.996  18.382  0.00  0.00    +0.000 OA
ATOM     35  H   UNL     1       6.628   4.769  18.971  0.00  0.00    +0.000 HD
ENDBRANCH  33  34
ENDBRANCH   1  33
TORSDOF 7
ENDMDL
MODEL 7
REMARK VINA RESULT:      -7.6      4.349     10.226
REMARK  Name = 
REMARK  7 active torsions:
REMARK  status: ('A' for Active; 'I' for Inactive)
REMARK    1  A    between atoms: C_2  and  O_3
REMARK    2  A    between atoms: C_2  and  C_4
REMARK    3  A    between atoms: N_6  and  C_7
REMARK    4  A    between atoms: C_12  and  N_13
REMARK    5  A    between atoms: C_17  and  C_19
REMARK    6  A    between atoms: C_19  and  N_20
REMARK    7  A    between atoms: C_24  and  S_25
REMARK                            x       y       z     vdW  Elec       q    Type
REMARK                         _______ _______ _______ _____ _____    ______ ____
ROOT
ATOM      1  C   UNL     1      -4.431  12.668  19.627  0.00  0.00    +0.000 A 
ATOM      2  C   UNL     1      -4.397  11.819  18.590  0.00  0.00    +0.000 A 
ATOM      3  N   UNL     1      -3.349  10.974  18.283  0.00  0.00    +0.000 N 
ATOM      4  C   UNL     1      -2.231  10.912  19.153  0.00  0.00    +0.000 A 
ATOM      5  C   UNL     1      -1.148  10.075  18.899  0.00  0.00    +0.000 A 
ATOM      6  C   UNL     1       0.015  10.091  19.680  0.00  0.00    +0.000 A 
ATOM      7  C   UNL     1       0.015  10.897  20.828  0.00  0.00    +0.000 A 
ATOM      8  F   UNL     1       1.089  10.941  21.632  0.00  0.00    +0.000 F 
ATOM      9  C   UNL     1      -1.068  11.706  21.148  0.00  0.00    +0.000 A 
ATOM     10  C   UNL     1      -2.170  11.732  20.290  0.00  0.00    +0.000 A 
ATOM     11  C   UNL     1      -3.274  12.679  20.547  0.00  0.00    +0.000 A 
ATOM     12  O   UNL     1      -3.226  13.484  21.474  0.00  0.00    +0.000 OA
ENDROOT
BRANCH   6  13
ATOM     13  N   UNL     1       1.055   9.277  19.274  0.00  0.00    +0.000 N 
ATOM     14  C   UNL     1       1.635   8.300  20.191  0.00  0.00    +0.000 C 
ATOM     15  C   UNL     1       2.042   7.094  19.330  0.00  0.00    +0.000 C 
ATOM     16  N   UNL     1       3.002   7.485  18.281  0.00  0.00    +0.000 N 
ATOM     17  C   UNL     1       4.155   6.793  17.961  0.00  0.00    +0.000 C 
ATOM     18  O   UNL     1       4.897   7.157  17.048  0.00  0.00    +0.000 OA
ATOM     19  C   UNL     1       2.563   8.613  17.437  0.00  0.00    +0.000 C 
ATOM     20  C   UNL     1       2.004   9.791  18.263  0.00  0.00    +0.000 C 
BRANCH  17  21
ATOM     21  C   UNL     1       4.501   5.558  18.764  0.00  0.00    +0.000 C 
BRANCH  21  22
ATOM     22  N   UNL     1       5.893   5.221  18.627  0.00  0.00    +0.000 N 
ATOM     23  N   UNL     1       6.771   5.507  19.612  0.00  0.00    +0.000 NA
ATOM     24  N   UNL     1       7.941   5.057  19.179  0.00  0.00    +0.000 NA
ATOM     25  N   UNL     1       7.816   4.462  17.950  0.00  0.00    +0.000 NA
ATOM     26  C   UNL     1       6.547   4.561  17.629  0.00  0.00    +0.000 A 
BRANCH  26  27
ATOM     27  S   UNL     1       5.806   3.945  16.208  0.00  0.00    +0.000 S 
ATOM     28  H   UNL     1       4.994   3.076  16.823  0.00  0.00    +0.000 HD
ENDBRANCH  26  27
ENDBRANCH  21  22
ENDBRANCH  17  21
ENDBRANCH   6  13
BRANCH   3  29
ATOM     29  C   UNL     1      -3.408  10.170  17.043  0.00  0.00    +0.000 C 
ATOM     30  C   UNL     1      -4.080  10.683  15.790  0.00  0.00    +0.000 C 
ATOM     31  C   UNL     1      -2.592  10.518  15.817  0.00  0.00    +0.000 C 
ENDBRANCH   3  29
BRANCH   1  33
ATOM     32  O   UNL     1      -6.386  13.532  20.667  0.00  0.00    +0.000 OA
ATOM     33  C   UNL     1      -5.576  13.589  19.758  0.00  0.00    +0.000 C 
BRANCH  33  34
ATOM     34  O   UNL     1      -5.688  14.479  18.747  0.00  0.00    +0.000 OA
ATOM     35  H   UNL     1      -5.606  14.080  17.847  0.00  0.00    +0.000 HD
ENDBRANCH  33  34
ENDBRANCH   1  33
TORSDOF 7
ENDMDL
MODEL 8
REMARK VINA RESULT:      -7.5      1.306      1.668
REMARK  Name = 
REMARK  7 active torsions:
REMARK  status: ('A' for Active; 'I' for Inactive)
REMARK    1  A    between atoms: C_2  and  O_3
REMARK    2  A    between atoms: C_2  and  C_4
REMARK    3  A    between atoms: N_6  and  C_7
REMARK    4  A    between atoms: C_12  and  N_13
REMARK    5  A    between atoms: C_17  and  C_19
REMARK    6  A    between atoms: C_19  and  N_20
REMARK    7  A    between atoms: C_24  and  S_25
REMARK                            x       y       z     vdW  Elec       q    Type
REMARK                         _______ _______ _______ _____ _____    ______ ____
ROOT
ATOM      1  C   UNL     1       5.163   4.912  17.310  0.00  0.00    +0.000 A 
ATOM      2  C   UNL     1       4.576   4.472  18.433  0.00  0.00    +0.000 A 
ATOM      3  N   UNL     1       3.671   5.184  19.194  0.00  0.00    +0.000 N 
ATOM      4  C   UNL     1       3.241   6.459  18.745  0.00  0.00    +0.000 A 
ATOM      5  C   UNL     1       2.325   7.222  19.465  0.00  0.00    +0.000 A 
ATOM      6  C   UNL     1       1.982   8.529  19.100  0.00  0.00    +0.000 A 
ATOM      7  C   UNL     1       2.496   9.022  17.892  0.00  0.00    +0.000 A 
ATOM      8  F   UNL     1       2.190  10.260  17.473  0.00  0.00    +0.000 F 
ATOM      9  C   UNL     1       3.371   8.272  17.115  0.00  0.00    +0.000 A 
ATOM     10  C   UNL     1       3.762   7.009  17.564  0.00  0.00    +0.000 A 
ATOM     11  C   UNL     1       4.786   6.251  16.815  0.00  0.00    +0.000 A 
ATOM     12  O   UNL     1       5.341   6.728  15.829  0.00  0.00    +0.000 OA
ENDROOT
BRANCH   6  13
ATOM     13  N   UNL     1       1.130   9.214  19.946  0.00  0.00    +0.000 N 
ATOM     14  C   UNL     1       0.893  10.643  19.763  0.00  0.00    +0.000 C 
ATOM     15  C   UNL     1      -0.569  10.889  20.165  0.00  0.00    +0.000 C 
ATOM     16  N   UNL     1      -0.817  10.477  21.559  0.00  0.00    +0.000 N 
ATOM     17  C   UNL     1      -1.514  11.217  22.495  0.00  0.00    +0.000 C 
ATOM     18  O   UNL     1      -1.715  10.796  23.635  0.00  0.00    +0.000 OA
ATOM     19  C   UNL     1      -0.408   9.094  21.871  0.00  0.00    +0.000 C 
ATOM     20  C   UNL     1       1.004   8.758  21.347  0.00  0.00    +0.000 C 
BRANCH  17  21
ATOM     21  C   UNL     1      -2.038  12.579  22.093  0.00  0.00    +0.000 C 
BRANCH  21  22
ATOM     22  N   UNL     1      -1.254  13.632  22.680  0.00  0.00    +0.000 N 
ATOM     23  N   UNL     1      -0.057  13.973  22.156  0.00  0.00    +0.000 NA
ATOM     24  N   UNL     1       0.384  14.970  22.911  0.00  0.00    +0.000 NA
ATOM     25  N   UNL     1      -0.525  15.289  23.887  0.00  0.00    +0.000 NA
ATOM     26  C   UNL     1      -1.534  14.464  23.723  0.00  0.00    +0.000 A 
BRANCH  26  27
ATOM     27  S   UNL     1      -2.984  14.437  24.640  0.00  0.00    +0.000 S 
ATOM     28  H   UNL     1      -2.727  13.300  25.300  0.00  0.00    +0.000 HD
ENDBRANCH  26  27
ENDBRANCH  21  22
ENDBRANCH  17  21
ENDBRANCH   6  13
BRANCH   3  29
ATOM     29  C   UNL     1       3.189   4.612  20.470  0.00  0.00    +0.000 C 
ATOM     30  C   UNL     1       1.726   4.321  20.713  0.00  0.00    +0.000 C 
ATOM     31  C   UNL     1       2.694   3.187  20.579  0.00  0.00    +0.000 C 
ENDBRANCH   3  29
BRANCH   1  33
ATOM     32  O   UNL     1       7.385   4.343  16.687  0.00  0.00    +0.000 OA
ATOM     33  C   UNL     1       6.197   4.075  16.671  0.00  0.00    +0.000 C 
BRANCH  33  34
ATOM     34  O   UNL     1       5.708   3.001  16.010  0.00  0.00    +0.000 OA
ATOM     35  H   UNL     1       4.729   3.017  15.882  0.00  0.00    +0.000 HD
ENDBRANCH  33  34
ENDBRANCH   1  33
TORSDOF 7
ENDMDL
MODEL 9
REMARK VINA RESULT:      -7.4      3.755      9.988
REMARK  Name = 
REMARK  7 active torsions:
REMARK  status: ('A' for Active; 'I' for Inactive)
REMARK    1  A    between atoms: C_2  and  O_3
REMARK    2  A    between atoms: C_2  and  C_4
REMARK    3  A    between atoms: N_6  and  C_7
REMARK    4  A    between atoms: C_12  and  N_13
REMARK    5  A    between atoms: C_17  and  C_19
REMARK    6  A    between atoms: C_19  and  N_20
REMARK    7  A    between atoms: C_24  and  S_25
REMARK                            x       y       z     vdW  Elec       q    Type
REMARK                         _______ _______ _______ _____ _____    ______ ____
ROOT
ATOM      1  C   UNL     1      -3.899  13.097  20.098  0.00  0.00    +0.000 A 
ATOM      2  C   UNL     1      -4.007  12.252  19.061  0.00  0.00    +0.000 A 
ATOM      3  N   UNL     1      -3.075  11.299  18.706  0.00  0.00    +0.000 N 
ATOM      4  C   UNL     1      -1.930  11.112  19.522  0.00  0.00    +0.000 A 
ATOM      5  C   UNL     1      -0.958  10.163  19.218  0.00  0.00    +0.000 A 
ATOM      6  C   UNL     1       0.235  10.048  19.942  0.00  0.00    +0.000 A 
ATOM      7  C   UNL     1       0.379  10.845  21.088  0.00  0.00    +0.000 A 
ATOM      8  F   UNL     1       1.488  10.768  21.840  0.00  0.00    +0.000 F 
ATOM      9  C   UNL     1      -0.593  11.767  21.457  0.00  0.00    +0.000 A 
ATOM     10  C   UNL     1      -1.725  11.917  20.653  0.00  0.00    +0.000 A 
ATOM     11  C   UNL     1      -2.706  12.978  20.961  0.00  0.00    +0.000 A 
ATOM     12  O   UNL     1      -2.526  13.769  21.883  0.00  0.00    +0.000 OA
ENDROOT
BRANCH   6  13
ATOM     13  N   UNL     1       1.159   9.127  19.488  0.00  0.00    +0.000 N 
ATOM     14  C   UNL     1       1.729   8.136  20.397  0.00  0.00    +0.000 C 
ATOM     15  C   UNL     1       1.950   6.866  19.561  0.00  0.00    +0.000 C 
ATOM     16  N   UNL     1       2.846   7.127  18.419  0.00  0.00    +0.000 N 
ATOM     17  C   UNL     1       3.901   6.320  18.036  0.00  0.00    +0.000 C 
ATOM     18  O   UNL     1       4.589   6.578  17.048  0.00  0.00    +0.000 OA
ATOM     19  C   UNL     1       2.437   8.258  17.564  0.00  0.00    +0.000 C 
ATOM     20  C   UNL     1       2.058   9.512  18.379  0.00  0.00    +0.000 C 
BRANCH  17  21
ATOM     21  C   UNL     1       4.205   5.089  18.863  0.00  0.00    +0.000 C 
BRANCH  21  22
ATOM     22  N   UNL     1       3.325   4.003  18.523  0.00  0.00    +0.000 N 
ATOM     23  N   UNL     1       3.212   3.583  17.245  0.00  0.00    +0.000 NA
ATOM     24  N   UNL     1       2.349   2.576  17.282  0.00  0.00    +0.000 NA
ATOM     25  N   UNL     1       1.936   2.330  18.567  0.00  0.00    +0.000 NA
ATOM     26  C   UNL     1       2.555   3.209  19.320  0.00  0.00    +0.000 A 
BRANCH  26  27
ATOM     27  S   UNL     1       2.448   3.339  21.028  0.00  0.00    +0.000 S 
ATOM     28  H   UNL     1       1.282   2.694  21.159  0.00  0.00    +0.000 HD
ENDBRANCH  26  27
ENDBRANCH  21  22
ENDBRANCH  17  21
ENDBRANCH   6  13
BRANCH   3  29
ATOM     29  C   UNL     1      -3.279  10.512  17.471  0.00  0.00    +0.000 C 
ATOM     30  C   UNL     1      -4.193  10.985  16.364  0.00  0.00    +0.000 C 
ATOM     31  C   UNL     1      -2.714  10.944  16.136  0.00  0.00    +0.000 C 
ENDBRANCH   3  29
BRANCH   1  33
ATOM     32  O   UNL     1      -6.103  13.892  20.498  0.00  0.00    +0.000 OA
ATOM     33  C   UNL     1      -4.929  14.137  20.282  0.00  0.00    +0.000 C 
BRANCH  33  34
ATOM     34  O   UNL     1      -4.471  15.401  20.136  0.00  0.00    +0.000 OA
ATOM     35  H   UNL     1      -4.939  15.922  19.441  0.00  0.00    +0.000 HD
ENDBRANCH  33  34
ENDBRANCH   1  33
TORSDOF 7
ENDMDL
