MODEL 1
REMARK VINA RESULT:      -8.6      0.000      0.000
REMARK  Name = 
REMARK  7 active torsions:
REMARK  status: ('A' for Active; 'I' for Inactive)
REMARK    1  A    between atoms: C_1  and  C_2
REMARK    2  A    between atoms: C_2  and  C_3
REMARK    3  A    between atoms: C_6  and  O_7
REMARK    4  A    between atoms: C_9  and  C_10
REMARK    5  A    between atoms: C_15  and  O_16
REMARK    6  A    between atoms: C_18  and  O_19
REMARK    7  A    between atoms: C_26  and  O_27
REMARK                            x       y       z     vdW  Elec       q    Type
REMARK                         _______ _______ _______ _____ _____    ______ ____
ROOT
ATOM      1  C   UNL     1      -2.044  13.542  22.283  0.00  0.00    +0.000 C 
ATOM      2  C   UNL     1      -1.022  12.711  21.487  0.00  0.00    +0.000 C 
ATOM      3  C   UNL     1       0.249  13.572  21.335  0.00  0.00    +0.000 C 
ATOM      4  O   UNL     1      -0.699  11.543  22.282  0.00  0.00    +0.000 OA
ATOM      5  C   UNL     1      -0.067  10.524  21.607  0.00  0.00    +0.000 A 
ATOM      6  C   UNL     1       0.550   9.538  22.379  0.00  0.00    +0.000 A 
ATOM      7  C   UNL     1       1.274   8.501  21.794  0.00  0.00    +0.000 A 
ATOM      8  C   UNL     1       1.388   8.428  20.394  0.00  0.00    +0.000 A 
ATOM      9  C   UNL     1       0.730   9.396  19.620  0.00  0.00    +0.000 A 
ATOM     10  C   UNL     1      -0.004  10.432  20.214  0.00  0.00    +0.000 A 
ATOM     11  C   UNL     1      -0.668  11.453  19.339  0.00  0.00    +0.000 C 
ATOM     12  C   UNL     1      -1.658  12.287  20.141  0.00  0.00    +0.000 C 
ENDROOT
BRANCH   8  13
ATOM     13  C   UNL     1       2.271   7.375  19.742  0.00  0.00    +0.000 C 
ATOM     14  C   UNL     1       2.598   7.800  18.316  0.00  0.00    +0.000 C 
ATOM     15  C   UNL     1       3.504   6.760  17.734  0.00  0.00    +0.000 C 
ATOM     16  O   UNL     1       4.417   7.017  16.952  0.00  0.00    +0.000 OA
ATOM     17  C   UNL     1       3.185   5.363  18.064  0.00  0.00    +0.000 A 
ATOM     18  C   UNL     1       3.778   4.299  17.375  0.00  0.00    +0.000 A 
ATOM     19  C   UNL     1       3.389   2.988  17.640  0.00  0.00    +0.000 A 
ATOM     20  C   UNL     1       2.404   2.755  18.596  0.00  0.00    +0.000 A 
ATOM     21  C   UNL     1       1.815   3.807  19.297  0.00  0.00    +0.000 A 
ATOM     22  C   UNL     1       2.216   5.120  19.039  0.00  0.00    +0.000 A 
ATOM     23  O   UNL     1       1.588   6.105  19.754  0.00  0.00    +0.000 OA
BRANCH  18  24
ATOM     24  O   UNL     1       4.732   4.474  16.410  0.00  0.00    +0.000 OA
ATOM     25  H   UNL     1       4.422   4.030  15.587  0.00  0.00    +0.000 HD
ENDBRANCH  18  24
BRANCH  20  26
ATOM     26  O   UNL     1       1.981   1.490  18.876  0.00  0.00    +0.000 OA
ATOM     27  H   UNL     1       2.114   0.932  18.089  0.00  0.00    +0.000 HD
ENDBRANCH  20  26
ENDBRANCH   8  13
BRANCH   6  28
ATOM     28  O   UNL     1       0.475   9.579  23.745  0.00  0.00    +0.000 OA
ATOM     29  H   UNL     1       0.118   8.709  24.011  0.00  0.00    +0.000 HD
ENDBRANCH   6  28
BRANCH  12  30
ATOM     30  O   UNL     1      -2.121  13.388  19.362  0.00  0.00    +0.000 OA
ATOM     31  H   UNL     1      -1.557  13.472  18.573  0.00  0.00    +0.000 HD
ENDBRANCH  12  30
TORSDOF 5
ENDMDL
MODEL 2
REMARK VINA RESULT:      -8.6      1.903      3.515
REMARK  Name = 
REMARK  7 active torsions:
REMARK  status: ('A' for Active; 'I' for Inactive)
REMARK    1  A    between atoms: C_1  and  C_2
REMARK    2  A    between atoms: C_2  and  C_3
REMARK    3  A    between atoms: C_6  and  O_7
REMARK    4  A    between atoms: C_9  and  C_10
REMARK    5  A    between atoms: C_15  and  O_16
REMARK    6  A    between atoms: C_18  and  O_19
REMARK    7  A    between atoms: C_26  and  O_27
REMARK                            x       y       z     vdW  Elec       q    Type
REMARK                         _______ _______ _______ _____ _____    ______ ____
ROOT
ATOM      1  C   UNL     1      -0.896  13.723  21.152  0.00  0.00    +0.000 C 
ATOM      2  C   UNL     1      -0.693  12.291  20.624  0.00  0.00    +0.000 C 
ATOM      3  C   UNL     1      -1.969  11.905  19.849  0.00  0.00    +0.000 C 
ATOM      4  O   UNL     1       0.421  12.323  19.699  0.00  0.00    +0.000 OA
ATOM      5  C   UNL     1       0.963  11.099  19.382  0.00  0.00    +0.000 A 
ATOM      6  C   UNL     1       1.801  11.044  18.267  0.00  0.00    +0.000 A 
ATOM      7  C   UNL     1       2.345   9.841  17.822  0.00  0.00    +0.000 A 
ATOM      8  C   UNL     1       2.060   8.647  18.507  0.00  0.00    +0.000 A 
ATOM      9  C   UNL     1       1.253   8.712  19.653  0.00  0.00    +0.000 A 
ATOM     10  C   UNL     1       0.715   9.927  20.101  0.00  0.00    +0.000 A 
ATOM     11  C   UNL     1      -0.160   9.934  21.319  0.00  0.00    +0.000 C 
ATOM     12  C   UNL     1      -0.376  11.357  21.817  0.00  0.00    +0.000 C 
ENDROOT
BRANCH   8  13
ATOM     13  C   UNL     1       2.546   7.310  17.970  0.00  0.00    +0.000 C 
ATOM     14  C   UNL     1       2.546   6.282  19.094  0.00  0.00    +0.000 C 
ATOM     15  C   UNL     1       2.984   4.975  18.507  0.00  0.00    +0.000 C 
ATOM     16  O   UNL     1       2.540   3.887  18.866  0.00  0.00    +0.000 OA
ATOM     17  C   UNL     1       4.077   5.039  17.524  0.00  0.00    +0.000 A 
ATOM     18  C   UNL     1       4.754   3.885  17.113  0.00  0.00    +0.000 A 
ATOM     19  C   UNL     1       5.847   3.981  16.256  0.00  0.00    +0.000 A 
ATOM     20  C   UNL     1       6.255   5.238  15.817  0.00  0.00    +0.000 A 
ATOM     21  C   UNL     1       5.581   6.394  16.212  0.00  0.00    +0.000 A 
ATOM     22  C   UNL     1       4.477   6.294  17.062  0.00  0.00    +0.000 A 
ATOM     23  O   UNL     1       3.869   7.469  17.420  0.00  0.00    +0.000 OA
BRANCH  18  24
ATOM     24  O   UNL     1       4.409   2.629  17.532  0.00  0.00    +0.000 OA
ATOM     25  H   UNL     1       4.648   1.991  16.819  0.00  0.00    +0.000 HD
ENDBRANCH  18  24
BRANCH  20  26
ATOM     26  O   UNL     1       7.329   5.381  14.991  0.00  0.00    +0.000 OA
ATOM     27  H   UNL     1       7.758   4.514  14.881  0.00  0.00    +0.000 HD
ENDBRANCH  20  26
ENDBRANCH   8  13
BRANCH   6  28
ATOM     28  O   UNL     1       2.094  12.182  17.564  0.00  0.00    +0.000 OA
ATOM     29  H   UNL     1       1.458  12.852  17.878  0.00  0.00    +0.000 HD
ENDBRANCH   6  28
BRANCH  12  30
ATOM     30  O   UNL     1      -1.375  11.377  22.834  0.00  0.00    +0.000 OA
ATOM     31  H   UNL     1      -2.007  12.090  22.638  0.00  0.00    +0.000 HD
ENDBRANCH  12  30
TORSDOF 5
ENDMDL
MODEL 3
REMARK VINA RESULT:      -8.4      1.491      8.476
REMARK  Name = 
REMARK  7 active torsions:
REMARK  status: ('A' for Active; 'I' for Inactive)
REMARK    1  A    between atoms: C_1  and  C_2
REMARK    2  A    between atoms: C_2  and  C_3
REMARK    3  A    between atoms: C_6  and  O_7
REMARK    4  A    between atoms: C_9  and  C_10
REMARK    5  A    between atoms: C_15  and  O_16
REMARK    6  A    between atoms: C_18  and  O_19
REMARK    7  A    between atoms: C_26  and  O_27
REMARK                            x       y       z     vdW  Elec       q    Type
REMARK                         _______ _______ _______ _____ _____    ______ ____
ROOT
ATOM      1  C   UNL     1       4.008   1.476  18.051  0.00  0.00    +0.000 C 
ATOM      2  C   UNL     1       3.528   2.939  18.050  0.00  0.00    +0.000 C 
ATOM      3  C   UNL     1       2.564   3.102  16.857  0.00  0.00    +0.000 C 
ATOM      4  O   UNL     1       2.789   3.154  19.278  0.00  0.00    +0.000 OA
ATOM      5  C   UNL     1       2.569   4.470  19.613  0.00  0.00    +0.000 A 
ATOM      6  C   UNL     1       1.599   4.725  20.585  0.00  0.00    +0.000 A 
ATOM      7  C   UNL     1       1.254   6.025  20.946  0.00  0.00    +0.000 A 
ATOM      8  C   UNL     1       1.893   7.117  20.333  0.00  0.00    +0.000 A 
ATOM      9  C   UNL     1       2.897   6.857  19.388  0.00  0.00    +0.000 A 
ATOM     10  C   UNL     1       3.247   5.546  19.035  0.00  0.00    +0.000 A 
ATOM     11  C   UNL     1       4.312   5.327  18.003  0.00  0.00    +0.000 C 
ATOM     12  C   UNL     1       4.762   3.872  17.994  0.00  0.00    +0.000 C 
ENDROOT
BRANCH   8  13
ATOM     13  C   UNL     1       1.447   8.541  20.626  0.00  0.00    +0.000 C 
ATOM     14  C   UNL     1       0.500   8.540  21.820  0.00  0.00    +0.000 C 
ATOM     15  C   UNL     1       0.128   9.964  22.099  0.00  0.00    +0.000 C 
ATOM     16  O   UNL     1      -0.054  10.409  23.230  0.00  0.00    +0.000 OA
ATOM     17  C   UNL     1      -0.120  10.812  20.923  0.00  0.00    +0.000 A 
ATOM     18  C   UNL     1      -0.732  12.065  21.045  0.00  0.00    +0.000 A 
ATOM     19  C   UNL     1      -1.044  12.807  19.909  0.00  0.00    +0.000 A 
ATOM     20  C   UNL     1      -0.740  12.285  18.655  0.00  0.00    +0.000 A 
ATOM     21  C   UNL     1      -0.120  11.042  18.521  0.00  0.00    +0.000 A 
ATOM     22  C   UNL     1       0.204  10.305  19.662  0.00  0.00    +0.000 A 
ATOM     23  O   UNL     1       0.800   9.088  19.460  0.00  0.00    +0.000 OA
BRANCH  18  24
ATOM     24  O   UNL     1      -1.073  12.614  22.252  0.00  0.00    +0.000 OA
ATOM     25  H   UNL     1      -2.048  12.754  22.260  0.00  0.00    +0.000 HD
ENDBRANCH  18  24
BRANCH  20  26
ATOM     26  O   UNL     1      -1.041  12.969  17.515  0.00  0.00    +0.000 OA
ATOM     27  H   UNL     1      -1.911  12.674  17.192  0.00  0.00    +0.000 HD
ENDBRANCH  20  26
ENDBRANCH   8  13
BRANCH   6  28
ATOM     28  O   UNL     1       0.944   3.691  21.198  0.00  0.00    +0.000 OA
ATOM     29  H   UNL     1       0.674   3.091  20.476  0.00  0.00    +0.000 HD
ENDBRANCH   6  28
BRANCH  12  30
ATOM     30  O   UNL     1       5.609   3.624  16.874  0.00  0.00    +0.000 OA
ATOM     31  H   UNL     1       5.571   2.677  16.656  0.00  0.00    +0.000 HD
ENDBRANCH  12  30
TORSDOF 5
ENDMDL
MODEL 4
REMARK VINA RESULT:      -8.3      1.417      2.588
REMARK  Name = 
REMARK  7 active torsions:
REMARK  status: ('A' for Active; 'I' for Inactive)
REMARK    1  A    between atoms: C_1  and  C_2
REMARK    2  A    between atoms: C_2  and  C_3
REMARK    3  A    between atoms: C_6  and  O_7
REMARK    4  A    between atoms: C_9  and  C_10
REMARK    5  A    between atoms: C_15  and  O_16
REMARK    6  A    between atoms: C_18  and  O_19
REMARK    7  A    between atoms: C_26  and  O_27
REMARK                            x       y       z     vdW  Elec       q    Type
REMARK                         _______ _______ _______ _____ _____    ______ ____
ROOT
ATOM      1  C   UNL     1      -0.461  14.122  21.832  0.00  0.00    +0.000 C 
ATOM      2  C   UNL     1       0.288  13.064  21.001  0.00  0.00    +0.000 C 
ATOM      3  C   UNL     1       1.730  13.575  20.804  0.00  0.00    +0.000 C 
ATOM      4  O   UNL     1       0.329  11.846  21.784  0.00  0.00    +0.000 OA
ATOM      5  C   UNL     1       0.658  10.706  21.087  0.00  0.00    +0.000 A 
ATOM      6  C   UNL     1       1.029   9.588  21.837  0.00  0.00    +0.000 A 
ATOM      7  C   UNL     1       1.444   8.406  21.228  0.00  0.00    +0.000 A 
ATOM      8  C   UNL     1       1.488   8.318  19.825  0.00  0.00    +0.000 A 
ATOM      9  C   UNL     1       1.073   9.429  19.075  0.00  0.00    +0.000 A 
ATOM     10  C   UNL     1       0.648  10.613  19.694  0.00  0.00    +0.000 A 
ATOM     11  C   UNL     1       0.237  11.776  18.842  0.00  0.00    +0.000 C 
ATOM     12  C   UNL     1      -0.480  12.828  19.678  0.00  0.00    +0.000 C 
ENDROOT
BRANCH   8  13
ATOM     13  C   UNL     1       2.051   7.082  19.143  0.00  0.00    +0.000 C 
ATOM     14  C   UNL     1       2.524   6.091  20.199  0.00  0.00    +0.000 C 
ATOM     15  C   UNL     1       3.023   4.874  19.482  0.00  0.00    +0.000 C 
ATOM     16  O   UNL     1       2.887   3.731  19.911  0.00  0.00    +0.000 OA
ATOM     17  C   UNL     1       3.797   5.116  18.255  0.00  0.00    +0.000 A 
ATOM     18  C   UNL     1       4.540   4.096  17.650  0.00  0.00    +0.000 A 
ATOM     19  C   UNL     1       5.342   4.372  16.546  0.00  0.00    +0.000 A 
ATOM     20  C   UNL     1       5.392   5.674  16.054  0.00  0.00    +0.000 A 
ATOM     21  C   UNL     1       4.647   6.696  16.642  0.00  0.00    +0.000 A 
ATOM     22  C   UNL     1       3.834   6.415  17.742  0.00  0.00    +0.000 A 
ATOM     23  O   UNL     1       3.138   7.466  18.278  0.00  0.00    +0.000 OA
BRANCH  18  24
ATOM     24  O   UNL     1       4.545   2.806  18.107  0.00  0.00    +0.000 OA
ATOM     25  H   UNL     1       4.361   2.210  17.344  0.00  0.00    +0.000 HD
ENDBRANCH  18  24
BRANCH  20  26
ATOM     26  O   UNL     1       6.174   5.993  14.985  0.00  0.00    +0.000 OA
ATOM     27  H   UNL     1       6.995   6.405  15.308  0.00  0.00    +0.000 HD
ENDBRANCH  20  26
ENDBRANCH   8  13
BRANCH   6  28
ATOM     28  O   UNL     1       1.013   9.635  23.206  0.00  0.00    +0.000 OA
ATOM     29  H   UNL     1       0.387   8.938  23.481  0.00  0.00    +0.000 HD
ENDBRANCH   6  28
BRANCH  12  30
ATOM     30  O   UNL     1      -0.674  14.017  18.915  0.00  0.00    +0.000 OA
ATOM     31  H   UNL     1      -1.589  14.324  19.039  0.00  0.00    +0.000 HD
ENDBRANCH  12  30
TORSDOF 5
ENDMDL
MODEL 5
REMARK VINA RESULT:      -8.1      1.192      8.671
REMARK  Name = 
REMARK  7 active torsions:
REMARK  status: ('A' for Active; 'I' for Inactive)
REMARK    1  A    between atoms: C_1  and  C_2
REMARK    2  A    between atoms: C_2  and  C_3
REMARK    3  A    between atoms: C_6  and  O_7
REMARK    4  A    between atoms: C_9  and  C_10
REMARK    5  A    between atoms: C_15  and  O_16
REMARK    6  A    between atoms: C_18  and  O_19
REMARK    7  A    between atoms: C_26  and  O_27
REMARK                            x       y       z     vdW  Elec       q    Type
REMARK                         _______ _______ _______ _____ _____    ______ ____
ROOT
ATOM      1  C   UNL     1       3.708   1.449  17.772  0.00  0.00    +0.000 C 
ATOM      2  C   UNL     1       3.364   2.616  18.714  0.00  0.00    +0.000 C 
ATOM      3  C   UNL     1       4.355   2.558  19.895  0.00  0.00    +0.000 C 
ATOM      4  O   UNL     1       3.586   3.846  17.980  0.00  0.00    +0.000 OA
ATOM      5  C   UNL     1       3.023   4.973  18.532  0.00  0.00    +0.000 A 
ATOM      6  C   UNL     1       3.476   6.206  18.058  0.00  0.00    +0.000 A 
ATOM      7  C   UNL     1       3.019   7.407  18.597  0.00  0.00    +0.000 A 
ATOM      8  C   UNL     1       2.074   7.394  19.639  0.00  0.00    +0.000 A 
ATOM      9  C   UNL     1       1.590   6.154  20.083  0.00  0.00    +0.000 A 
ATOM     10  C   UNL     1       2.047   4.949  19.531  0.00  0.00    +0.000 A 
ATOM     11  C   UNL     1       1.510   3.653  20.060  0.00  0.00    +0.000 C 
ATOM     12  C   UNL     1       1.878   2.501  19.135  0.00  0.00    +0.000 C 
ENDROOT
BRANCH   8  13
ATOM     13  C   UNL     1       1.654   8.686  20.320  0.00  0.00    +0.000 C 
ATOM     14  C   UNL     1       0.838   8.361  21.565  0.00  0.00    +0.000 C 
ATOM     15  C   UNL     1       0.490   9.659  22.226  0.00  0.00    +0.000 C 
ATOM     16  O   UNL     1       0.425   9.804  23.444  0.00  0.00    +0.000 OA
ATOM     17  C   UNL     1       0.115  10.763  21.330  0.00  0.00    +0.000 A 
ATOM     18  C   UNL     1      -0.487  11.927  21.820  0.00  0.00    +0.000 A 
ATOM     19  C   UNL     1      -0.920  12.917  20.943  0.00  0.00    +0.000 A 
ATOM     20  C   UNL     1      -0.747  12.731  19.574  0.00  0.00    +0.000 A 
ATOM     21  C   UNL     1      -0.138  11.580  19.074  0.00  0.00    +0.000 A 
ATOM     22  C   UNL     1       0.308  10.594  19.957  0.00  0.00    +0.000 A 
ATOM     23  O   UNL     1       0.885   9.484  19.398  0.00  0.00    +0.000 OA
BRANCH  18  24
ATOM     24  O   UNL     1      -0.702  12.149  23.154  0.00  0.00    +0.000 OA
ATOM     25  H   UNL     1       0.078  12.631  23.515  0.00  0.00    +0.000 HD
ENDBRANCH  18  24
BRANCH  20  26
ATOM     26  O   UNL     1      -1.169  13.666  18.677  0.00  0.00    +0.000 OA
ATOM     27  H   UNL     1      -0.409  13.954  18.141  0.00  0.00    +0.000 HD
ENDBRANCH  20  26
ENDBRANCH   8  13
BRANCH   6  28
ATOM     28  O   UNL     1       4.404   6.264  17.053  0.00  0.00    +0.000 OA
ATOM     29  H   UNL     1       4.021   5.750  16.316  0.00  0.00    +0.000 HD
ENDBRANCH   6  28
BRANCH  12  30
ATOM     30  O   UNL     1       1.559   1.254  19.748  0.00  0.00    +0.000 OA
ATOM     31  H   UNL     1       0.631   1.036  19.549  0.00  0.00    +0.000 HD
ENDBRANCH  12  30
TORSDOF 5
ENDMDL
MODEL 6
REMARK VINA RESULT:      -8.1      1.095      1.185
REMARK  Name = 
REMARK  7 active torsions:
REMARK  status: ('A' for Active; 'I' for Inactive)
REMARK    1  A    between atoms: C_1  and  C_2
REMARK    2  A    between atoms: C_2  and  C_3
REMARK    3  A    between atoms: C_6  and  O_7
REMARK    4  A    between atoms: C_9  and  C_10
REMARK    5  A    between atoms: C_15  and  O_16
REMARK    6  A    between atoms: C_18  and  O_19
REMARK    7  A    between atoms: C_26  and  O_27
REMARK                            x       y       z     vdW  Elec       q    Type
REMARK                         _______ _______ _______ _____ _____    ______ ____
ROOT
ATOM      1  C   UNL     1      -2.642  13.217  20.468  0.00  0.00    +0.000 C 
ATOM      2  C   UNL     1      -1.542  12.361  19.816  0.00  0.00    +0.000 C 
ATOM      3  C   UNL     1      -0.450  13.327  19.312  0.00  0.00    +0.000 C 
ATOM      4  O   UNL     1      -0.977  11.519  20.850  0.00  0.00    +0.000 OA
ATOM      5  C   UNL     1      -0.221  10.460  20.403  0.00  0.00    +0.000 A 
ATOM      6  C   UNL     1       0.601   9.827  21.337  0.00  0.00    +0.000 A 
ATOM      7  C   UNL     1       1.456   8.789  20.972  0.00  0.00    +0.000 A 
ATOM      8  C   UNL     1       1.497   8.351  19.636  0.00  0.00    +0.000 A 
ATOM      9  C   UNL     1       0.637   8.961  18.709  0.00  0.00    +0.000 A 
ATOM     10  C   UNL     1      -0.227   9.999  19.084  0.00  0.00    +0.000 A 
ATOM     11  C   UNL     1      -1.108  10.628  18.047  0.00  0.00    +0.000 C 
ATOM     12  C   UNL     1      -2.176  11.494  18.701  0.00  0.00    +0.000 C 
ENDROOT
BRANCH   8  13
ATOM     13  C   UNL     1       2.506   7.304  19.193  0.00  0.00    +0.000 C 
ATOM     14  C   UNL     1       3.060   7.680  17.825  0.00  0.00    +0.000 C 
ATOM     15  C   UNL     1       4.081   6.648  17.455  0.00  0.00    +0.000 C 
ATOM     16  O   UNL     1       5.106   6.903  16.828  0.00  0.00    +0.000 OA
ATOM     17  C   UNL     1       3.748   5.256  17.792  0.00  0.00    +0.000 A 
ATOM     18  C   UNL     1       4.478   4.185  17.265  0.00  0.00    +0.000 A 
ATOM     19  C   UNL     1       4.085   2.874  17.522  0.00  0.00    +0.000 A 
ATOM     20  C   UNL     1       2.959   2.647  18.308  0.00  0.00    +0.000 A 
ATOM     21  C   UNL     1       2.230   3.706  18.848  0.00  0.00    +0.000 A 
ATOM     22  C   UNL     1       2.633   5.020  18.600  0.00  0.00    +0.000 A 
ATOM     23  O   UNL     1       1.866   6.013  19.150  0.00  0.00    +0.000 OA
BRANCH  18  24
ATOM     24  O   UNL     1       5.578   4.353  16.468  0.00  0.00    +0.000 OA
ATOM     25  H   UNL     1       5.271   4.442  15.536  0.00  0.00    +0.000 HD
ENDBRANCH  18  24
BRANCH  20  26
ATOM     26  O   UNL     1       2.528   1.381  18.572  0.00  0.00    +0.000 OA
ATOM     27  H   UNL     1       2.317   1.312  19.520  0.00  0.00    +0.000 HD
ENDBRANCH  20  26
ENDBRANCH   8  13
BRANCH   6  28
ATOM     28  O   UNL     1       0.602  10.230  22.646  0.00  0.00    +0.000 OA
ATOM     29  H   UNL     1       0.225   9.482  23.147  0.00  0.00    +0.000 HD
ENDBRANCH   6  28
BRANCH  12  30
ATOM     30  O   UNL     1      -2.867  12.256  17.714  0.00  0.00    +0.000 OA
ATOM     31  H   UNL     1      -2.261  12.432  16.973  0.00  0.00    +0.000 HD
ENDBRANCH  12  30
TORSDOF 5
ENDMDL
MODEL 7
REMARK VINA RESULT:      -8.1      1.389      1.487
REMARK  Name = 
REMARK  7 active torsions:
REMARK  status: ('A' for Active; 'I' for Inactive)
REMARK    1  A    between atoms: C_1  and  C_2
REMARK    2  A    between atoms: C_2  and  C_3
REMARK    3  A    between atoms: C_6  and  O_7
REMARK    4  A    between atoms: C_9  and  C_10
REMARK    5  A    between atoms: C_15  and  O_16
REMARK    6  A    between atoms: C_18  and  O_19
REMARK    7  A    between atoms: C_26  and  O_27
REMARK                            x       y       z     vdW  Elec       q    Type
REMARK                         _______ _______ _______ _____ _____    ______ ____
ROOT
ATOM      1  C   UNL     1      -1.622  14.278  20.848  0.00  0.00    +0.000 C 
ATOM      2  C   UNL     1      -0.567  13.234  20.440  0.00  0.00    +0.000 C 
ATOM      3  C   UNL     1       0.813  13.915  20.540  0.00  0.00    +0.000 C 
ATOM      4  O   UNL     1      -0.626  12.157  21.407  0.00  0.00    +0.000 OA
ATOM      5  C   UNL     1      -0.002  10.989  21.031  0.00  0.00    +0.000 A 
ATOM      6  C   UNL     1       0.254  10.054  22.035  0.00  0.00    +0.000 A 
ATOM      7  C   UNL     1       0.940   8.870  21.772  0.00  0.00    +0.000 A 
ATOM      8  C   UNL     1       1.385   8.593  20.467  0.00  0.00    +0.000 A 
ATOM      9  C   UNL     1       1.088   9.516  19.452  0.00  0.00    +0.000 A 
ATOM     10  C   UNL     1       0.390  10.701  19.722  0.00  0.00    +0.000 A 
ATOM     11  C   UNL     1       0.119  11.661  18.602  0.00  0.00    +0.000 C 
ATOM     12  C   UNL     1      -0.906  12.705  19.024  0.00  0.00    +0.000 C 
ENDROOT
BRANCH   8  13
ATOM     13  C   UNL     1       2.238   7.367  20.182  0.00  0.00    +0.000 C 
ATOM     14  C   UNL     1       2.299   7.130  18.678  0.00  0.00    +0.000 C 
ATOM     15  C   UNL     1       3.186   5.946  18.446  0.00  0.00    +0.000 C 
ATOM     16  O   UNL     1       3.939   5.841  17.481  0.00  0.00    +0.000 OA
ATOM     17  C   UNL     1       3.041   4.830  19.394  0.00  0.00    +0.000 A 
ATOM     18  C   UNL     1       3.603   3.576  19.134  0.00  0.00    +0.000 A 
ATOM     19  C   UNL     1       3.371   2.510  19.998  0.00  0.00    +0.000 A 
ATOM     20  C   UNL     1       2.573   2.711  21.121  0.00  0.00    +0.000 A 
ATOM     21  C   UNL     1       2.016   3.960  21.397  0.00  0.00    +0.000 A 
ATOM     22  C   UNL     1       2.261   5.031  20.535  0.00  0.00    +0.000 A 
ATOM     23  O   UNL     1       1.674   6.226  20.858  0.00  0.00    +0.000 OA
BRANCH  18  24
ATOM     24  O   UNL     1       4.375   3.319  18.033  0.00  0.00    +0.000 OA
ATOM     25  H   UNL     1       4.623   2.365  18.048  0.00  0.00    +0.000 HD
ENDBRANCH  18  24
BRANCH  20  26
ATOM     26  O   UNL     1       2.306   1.692  21.987  0.00  0.00    +0.000 OA
ATOM     27  H   UNL     1       2.081   0.895  21.474  0.00  0.00    +0.000 HD
ENDBRANCH  20  26
ENDBRANCH   8  13
BRANCH   6  28
ATOM     28  O   UNL     1      -0.151  10.290  23.322  0.00  0.00    +0.000 OA
ATOM     29  H   UNL     1      -0.665  11.119  23.284  0.00  0.00    +0.000 HD
ENDBRANCH   6  28
BRANCH  12  30
ATOM     30  O   UNL     1      -0.996  13.734  18.042  0.00  0.00    +0.000 OA
ATOM     31  H   UNL     1      -1.390  13.363  17.234  0.00  0.00    +0.000 HD
ENDBRANCH  12  30
TORSDOF 5
ENDMDL
MODEL 8
REMARK VINA RESULT:      -8.1      2.437      8.213
REMARK  Name = 
REMARK  7 active torsions:
REMARK  status: ('A' for Active; 'I' for Inactive)
REMARK    1  A    between atoms: C_1  and  C_2
REMARK    2  A    between atoms: C_2  and  C_3
REMARK    3  A    between atoms: C_6  and  O_7
REMARK    4  A    between atoms: C_9  and  C_10
REMARK    5  A    between atoms: C_15  and  O_16
REMARK    6  A    between atoms: C_18  and  O_19
REMARK    7  A    between atoms: C_26  and  O_27
REMARK                            x       y       z     vdW  Elec       q    Type
REMARK                         _______ _______ _______ _____ _____    ______ ____
ROOT
ATOM      1  C   UNL     1       6.250   4.212  18.084  0.00  0.00    +0.000 C 
ATOM      2  C   UNL     1       5.099   5.146  17.671  0.00  0.00    +0.000 C 
ATOM      3  C   UNL     1       4.157   4.335  16.757  0.00  0.00    +0.000 C 
ATOM      4  O   UNL     1       4.380   5.508  18.876  0.00  0.00    +0.000 OA
ATOM      5  C   UNL     1       3.534   6.587  18.759  0.00  0.00    +0.000 A 
ATOM      6  C   UNL     1       2.590   6.767  19.772  0.00  0.00    +0.000 A 
ATOM      7  C   UNL     1       1.645   7.788  19.714  0.00  0.00    +0.000 A 
ATOM      8  C   UNL     1       1.632   8.672  18.620  0.00  0.00    +0.000 A 
ATOM      9  C   UNL     1       2.610   8.514  17.626  0.00  0.00    +0.000 A 
ATOM     10  C   UNL     1       3.564   7.490  17.693  0.00  0.00    +0.000 A 
ATOM     11  C   UNL     1       4.571   7.355  16.591  0.00  0.00    +0.000 C 
ATOM     12  C   UNL     1       5.693   6.408  16.999  0.00  0.00    +0.000 C 
ENDROOT
BRANCH   8  13
ATOM     13  C   UNL     1       0.537   9.716  18.479  0.00  0.00    +0.000 C 
ATOM     14  C   UNL     1      -0.101   9.969  19.839  0.00  0.00    +0.000 C 
ATOM     15  C   UNL     1      -1.137  11.035  19.659  0.00  0.00    +0.000 C 
ATOM     16  O   UNL     1      -1.382  11.893  20.504  0.00  0.00    +0.000 OA
ATOM     17  C   UNL     1      -1.948  10.951  18.434  0.00  0.00    +0.000 A 
ATOM     18  C   UNL     1      -3.113  11.711  18.279  0.00  0.00    +0.000 A 
ATOM     19  C   UNL     1      -3.915  11.544  17.154  0.00  0.00    +0.000 A 
ATOM     20  C   UNL     1      -3.542  10.612  16.189  0.00  0.00    +0.000 A 
ATOM     21  C   UNL     1      -2.377   9.857  16.328  0.00  0.00    +0.000 A 
ATOM     22  C   UNL     1      -1.567  10.035  17.451  0.00  0.00    +0.000 A 
ATOM     23  O   UNL     1      -0.445   9.253  17.531  0.00  0.00    +0.000 OA
BRANCH  18  24
ATOM     24  O   UNL     1      -3.537  12.624  19.207  0.00  0.00    +0.000 OA
ATOM     25  H   UNL     1      -2.820  12.739  19.874  0.00  0.00    +0.000 HD
ENDBRANCH  18  24
BRANCH  20  26
ATOM     26  O   UNL     1      -4.304  10.404  15.079  0.00  0.00    +0.000 OA
ATOM     27  H   UNL     1      -3.859   9.751  14.509  0.00  0.00    +0.000 HD
ENDBRANCH  20  26
ENDBRANCH   8  13
BRANCH   6  28
ATOM     28  O   UNL     1       2.559   5.922  20.849  0.00  0.00    +0.000 OA
ATOM     29  H   UNL     1       3.494   5.781  21.095  0.00  0.00    +0.000 HD
ENDBRANCH   6  28
BRANCH  12  30
ATOM     30  O   UNL     1       6.524   6.115  15.878  0.00  0.00    +0.000 OA
ATOM     31  H   UNL     1       6.361   5.198  15.599  0.00  0.00    +0.000 HD
ENDBRANCH  12  30
TORSDOF 5
ENDMDL
MODEL 9
REMARK VINA RESULT:      -7.9      2.135      3.294
REMARK  Name = 
REMARK  7 active torsions:
REMARK  status: ('A' for Active; 'I' for Inactive)
REMARK    1  A    between atoms: C_1  and  C_2
REMARK    2  A    between atoms: C_2  and  C_3
REMARK    3  A    between atoms: C_6  and  O_7
REMARK    4  A    between atoms: C_9  and  C_10
REMARK    5  A    between atoms: C_15  and  O_16
REMARK    6  A    between atoms: C_18  and  O_19
REMARK    7  A    between atoms: C_26  and  O_27
REMARK                            x       y       z     vdW  Elec       q    Type
REMARK                         _______ _______ _______ _____ _____    ______ ____
ROOT
ATOM      1  C   UNL     1       0.570  14.761  20.656  0.00  0.00    +0.000 C 
ATOM      2  C   UNL     1       1.378  13.568  20.115  0.00  0.00    +0.000 C 
ATOM      3  C   UNL     1       2.743  13.577  20.832  0.00  0.00    +0.000 C 
ATOM      4  O   UNL     1       0.667  12.360  20.482  0.00  0.00    +0.000 OA
ATOM      5  C   UNL     1       1.048  11.222  19.810  0.00  0.00    +0.000 A 
ATOM      6  C   UNL     1       0.639  10.000  20.347  0.00  0.00    +0.000 A 
ATOM      7  C   UNL     1       1.029   8.788  19.781  0.00  0.00    +0.000 A 
ATOM      8  C   UNL     1       1.846   8.778  18.637  0.00  0.00    +0.000 A 
ATOM      9  C   UNL     1       2.219  10.009  18.074  0.00  0.00    +0.000 A 
ATOM     10  C   UNL     1       1.817  11.225  18.643  0.00  0.00    +0.000 A 
ATOM     11  C   UNL     1       2.264  12.510  18.013  0.00  0.00    +0.000 C 
ATOM     12  C   UNL     1       1.477  13.687  18.574  0.00  0.00    +0.000 C 
ENDROOT
BRANCH   8  13
ATOM     13  C   UNL     1       2.379   7.470  18.075  0.00  0.00    +0.000 C 
ATOM     14  C   UNL     1       2.321   6.395  19.153  0.00  0.00    +0.000 C 
ATOM     15  C   UNL     1       2.809   5.118  18.541  0.00  0.00    +0.000 C 
ATOM     16  O   UNL     1       2.356   4.012  18.825  0.00  0.00    +0.000 OA
ATOM     17  C   UNL     1       3.961   5.233  17.632  0.00  0.00    +0.000 A 
ATOM     18  C   UNL     1       4.674   4.104  17.215  0.00  0.00    +0.000 A 
ATOM     19  C   UNL     1       5.818   4.246  16.433  0.00  0.00    +0.000 A 
ATOM     20  C   UNL     1       6.238   5.524  16.075  0.00  0.00    +0.000 A 
ATOM     21  C   UNL     1       5.528   6.656  16.475  0.00  0.00    +0.000 A 
ATOM     22  C   UNL     1       4.375   6.511  17.248  0.00  0.00    +0.000 A 
ATOM     23  O   UNL     1       3.732   7.663  17.616  0.00  0.00    +0.000 OA
BRANCH  18  24
ATOM     24  O   UNL     1       4.318   2.828  17.559  0.00  0.00    +0.000 OA
ATOM     25  H   UNL     1       3.404   2.665  17.228  0.00  0.00    +0.000 HD
ENDBRANCH  18  24
BRANCH  20  26
ATOM     26  O   UNL     1       7.360   5.711  15.324  0.00  0.00    +0.000 OA
ATOM     27  H   UNL     1       7.174   6.382  14.643  0.00  0.00    +0.000 HD
ENDBRANCH  20  26
ENDBRANCH   8  13
BRANCH   6  28
ATOM     28  O   UNL     1      -0.146   9.963  21.468  0.00  0.00    +0.000 OA
ATOM     29  H   UNL     1      -1.061  10.086  21.147  0.00  0.00    +0.000 HD
ENDBRANCH   6  28
BRANCH  12  30
ATOM     30  O   UNL     1       2.050  14.917  18.137  0.00  0.00    +0.000 OA
ATOM     31  H   UNL     1       3.006  14.791  18.012  0.00  0.00    +0.000 HD
ENDBRANCH  12  30
TORSDOF 5
ENDMDL
