MODEL 1
REMARK VINA RESULT:      -7.5      0.000      0.000
REMARK  Name = 
REMARK  10 active torsions:
REMARK  status: ('A' for Active; 'I' for Inactive)
REMARK    1  A    between atoms: C_1  and  O_2
REMARK    2  A    between atoms: O_2  and  C_3
REMARK    3  A    between atoms: C_5  and  O_6
REMARK    4  A    between atoms: O_6  and  C_7
REMARK    5  A    between atoms: C_9  and  C_10
REMARK    6  A    between atoms: N_12  and  C_13
REMARK    7  A    between atoms: C_13  and  C_14
REMARK    8  A    between atoms: C_14  and  C_15
REMARK    9  A    between atoms: C_14  and  N_21
REMARK   10  A    between atoms: N_19  and  C_20
REMARK                            x       y       z     vdW  Elec       q    Type
REMARK                         _______ _______ _______ _____ _____    ______ ____
ROOT
ATOM      1  C   UNL     1       1.878   8.748  18.316  0.00  0.00    +0.000 C 
ATOM      2  O   UNL     1       2.330   9.136  17.240  0.00  0.00    +0.000 OA
ATOM      3  N   UNL     1       2.291   7.569  18.906  0.00  0.00    +0.000 N 
ATOM      4  H   UNL     1       2.060   7.337  19.857  0.00  0.00    +0.000 HD
ENDROOT
BRANCH   1   9
ATOM      5  C   UNL     1      -1.101  11.015  19.060  0.00  0.00    +0.000 A 
ATOM      6  C   UNL     1      -0.961  11.145  20.443  0.00  0.00    +0.000 A 
ATOM      7  C   UNL     1       0.077  10.507  21.121  0.00  0.00    +0.000 A 
ATOM      8  C   UNL     1       0.964   9.701  20.410  0.00  0.00    +0.000 A 
ATOM      9  C   UNL     1       0.841   9.564  19.017  0.00  0.00    +0.000 A 
ATOM     10  C   UNL     1      -0.201  10.222  18.348  0.00  0.00    +0.000 A 
BRANCH   5  12
ATOM     11  C   UNL     1      -2.620  11.318  17.246  0.00  0.00    +0.000 C 
ATOM     12  O   UNL     1      -2.137  11.730  18.520  0.00  0.00    +0.000 OA
ENDBRANCH   5  12
BRANCH   7  13
ATOM     13  O   UNL     1       0.125  10.725  22.471  0.00  0.00    +0.000 OA
ATOM     14  C   UNL     1      -1.142  10.832  23.116  0.00  0.00    +0.000 C 
ENDBRANCH   7  13
ENDBRANCH   1   9
BRANCH   3  15
ATOM     15  C   UNL     1       3.329   6.782  18.271  0.00  0.00    +0.000 C 
BRANCH  15  16
ATOM     16  C   UNL     1       3.913   5.618  19.114  0.00  0.00    +0.000 C 
BRANCH  16  17
ATOM     17  C   UNL     1       2.868   4.615  19.646  0.00  0.00    +0.000 A 
ATOM     18  C   UNL     1       2.360   4.522  20.942  0.00  0.00    +0.000 A 
ATOM     19  C   UNL     1       1.346   3.544  20.973  0.00  0.00    +0.000 A 
ATOM     20  C   UNL     1       1.235   3.046  19.699  0.00  0.00    +0.000 A 
ATOM     21  N   UNL     1       2.138   3.704  18.892  0.00  0.00    +0.000 N 
ATOM     22  C   UNL     1       2.200   3.430  17.475  0.00  0.00    +0.000 C 
ENDBRANCH  16  17
BRANCH  16  23
ATOM     23  N   UNL     1       5.103   4.927  18.543  0.00  0.00    +0.000 NA
ATOM     24  C   UNL     1       6.367   5.228  19.229  0.00  0.00    +0.000 C 
ATOM     25  C   UNL     1       7.082   6.244  18.355  0.00  0.00    +0.000 C 
ATOM     26  C   UNL     1       6.682   5.843  16.952  0.00  0.00    +0.000 C 
ATOM     27  C   UNL     1       5.371   5.078  17.111  0.00  0.00    +0.000 C 
ENDBRANCH  16  23
ENDBRANCH  15  16
ENDBRANCH   3  15
TORSDOF 7
ENDMDL
MODEL 2
REMARK VINA RESULT:      -7.4      0.223      2.327
REMARK  Name = 
REMARK  10 active torsions:
REMARK  status: ('A' for Active; 'I' for Inactive)
REMARK    1  A    between atoms: C_1  and  O_2
REMARK    2  A    between atoms: O_2  and  C_3
REMARK    3  A    between atoms: C_5  and  O_6
REMARK    4  A    between atoms: O_6  and  C_7
REMARK    5  A    between atoms: C_9  and  C_10
REMARK    6  A    between atoms: N_12  and  C_13
REMARK    7  A    between atoms: C_13  and  C_14
REMARK    8  A    between atoms: C_14  and  C_15
REMARK    9  A    between atoms: C_14  and  N_21
REMARK   10  A    between atoms: N_19  and  C_20
REMARK                            x       y       z     vdW  Elec       q    Type
REMARK                         _______ _______ _______ _____ _____    ______ ____
ROOT
ATOM      1  C   UNL     1       1.849   8.809  18.381  0.00  0.00    +0.000 C 
ATOM      2  O   UNL     1       2.256   9.179  17.282  0.00  0.00    +0.000 OA
ATOM      3  N   UNL     1       2.260   7.622  18.958  0.00  0.00    +0.000 N 
ATOM      4  H   UNL     1       2.072   7.402  19.921  0.00  0.00    +0.000 HD
ENDROOT
BRANCH   1   9
ATOM      5  C   UNL     1      -0.042  10.624  21.155  0.00  0.00    +0.000 A 
ATOM      6  C   UNL     1      -1.091  11.168  20.411  0.00  0.00    +0.000 A 
ATOM      7  C   UNL     1      -1.181  10.952  19.037  0.00  0.00    +0.000 A 
ATOM      8  C   UNL     1      -0.190  10.214  18.394  0.00  0.00    +0.000 A 
ATOM      9  C   UNL     1       0.870   9.655  19.128  0.00  0.00    +0.000 A 
ATOM     10  C   UNL     1       0.939   9.870  20.513  0.00  0.00    +0.000 A 
BRANCH   5  12
ATOM     11  C   UNL     1      -1.145  11.734  22.955  0.00  0.00    +0.000 C 
ATOM     12  O   UNL     1      -0.103  10.878  22.500  0.00  0.00    +0.000 OA
ENDBRANCH   5  12
BRANCH   7  13
ATOM     13  O   UNL     1      -2.264  11.517  18.419  0.00  0.00    +0.000 OA
ATOM     14  C   UNL     1      -2.402  11.213  17.033  0.00  0.00    +0.000 C 
ENDBRANCH   7  13
ENDBRANCH   1   9
BRANCH   3  15
ATOM     15  C   UNL     1       3.245   6.806  18.277  0.00  0.00    +0.000 C 
BRANCH  15  16
ATOM     16  C   UNL     1       3.857   5.645  19.106  0.00  0.00    +0.000 C 
BRANCH  16  17
ATOM     17  C   UNL     1       2.833   4.628  19.652  0.00  0.00    +0.000 A 
ATOM     18  C   UNL     1       2.328   4.541  20.950  0.00  0.00    +0.000 A 
ATOM     19  C   UNL     1       1.334   3.544  20.994  0.00  0.00    +0.000 A 
ATOM     20  C   UNL     1       1.231   3.028  19.727  0.00  0.00    +0.000 A 
ATOM     21  N   UNL     1       2.120   3.693  18.910  0.00  0.00    +0.000 N 
ATOM     22  C   UNL     1       2.186   3.403  17.496  0.00  0.00    +0.000 C 
ENDBRANCH  16  17
BRANCH  16  23
ATOM     23  N   UNL     1       5.045   4.970  18.511  0.00  0.00    +0.000 NA
ATOM     24  C   UNL     1       6.310   5.246  19.204  0.00  0.00    +0.000 C 
ATOM     25  C   UNL     1       7.026   6.287  18.363  0.00  0.00    +0.000 C 
ATOM     26  C   UNL     1       6.623   5.933  16.948  0.00  0.00    +0.000 C 
ATOM     27  C   UNL     1       5.311   5.166  17.084  0.00  0.00    +0.000 C 
ENDBRANCH  16  23
ENDBRANCH  15  16
ENDBRANCH   3  15
TORSDOF 7
ENDMDL
MODEL 3
REMARK VINA RESULT:      -7.4      0.503      1.211
REMARK  Name = 
REMARK  10 active torsions:
REMARK  status: ('A' for Active; 'I' for Inactive)
REMARK    1  A    between atoms: C_1  and  O_2
REMARK    2  A    between atoms: O_2  and  C_3
REMARK    3  A    between atoms: C_5  and  O_6
REMARK    4  A    between atoms: O_6  and  C_7
REMARK    5  A    between atoms: C_9  and  C_10
REMARK    6  A    between atoms: N_12  and  C_13
REMARK    7  A    between atoms: C_13  and  C_14
REMARK    8  A    between atoms: C_14  and  C_15
REMARK    9  A    between atoms: C_14  and  N_21
REMARK   10  A    between atoms: N_19  and  C_20
REMARK                            x       y       z     vdW  Elec       q    Type
REMARK                         _______ _______ _______ _____ _____    ______ ____
ROOT
ATOM      1  C   UNL     1       1.897   8.709  18.193  0.00  0.00    +0.000 C 
ATOM      2  O   UNL     1       2.300   9.114  17.104  0.00  0.00    +0.000 OA
ATOM      3  N   UNL     1       2.339   7.523  18.747  0.00  0.00    +0.000 N 
ATOM      4  H   UNL     1       2.151   7.276  19.704  0.00  0.00    +0.000 HD
ENDROOT
BRANCH   1   9
ATOM      5  C   UNL     1      -1.055  10.952  19.100  0.00  0.00    +0.000 A 
ATOM      6  C   UNL     1      -0.853  11.065  20.477  0.00  0.00    +0.000 A 
ATOM      7  C   UNL     1       0.218  10.424  21.099  0.00  0.00    +0.000 A 
ATOM      8  C   UNL     1       1.075   9.630  20.339  0.00  0.00    +0.000 A 
ATOM      9  C   UNL     1       0.889   9.511  18.951  0.00  0.00    +0.000 A 
ATOM     10  C   UNL     1      -0.185  10.173  18.338  0.00  0.00    +0.000 A 
BRANCH   5  12
ATOM     11  C   UNL     1      -2.555  11.375  17.295  0.00  0.00    +0.000 C 
ATOM     12  O   UNL     1      -2.117  11.669  18.617  0.00  0.00    +0.000 OA
ENDBRANCH   5  12
BRANCH   7  13
ATOM     13  O   UNL     1       0.325  10.624  22.448  0.00  0.00    +0.000 OA
ATOM     14  C   UNL     1      -0.647   9.951  23.244  0.00  0.00    +0.000 C 
ENDBRANCH   7  13
ENDBRANCH   1   9
BRANCH   3  15
ATOM     15  C   UNL     1       3.351   6.749  18.056  0.00  0.00    +0.000 C 
BRANCH  15  16
ATOM     16  C   UNL     1       3.747   5.402  18.716  0.00  0.00    +0.000 C 
BRANCH  16  17
ATOM     17  C   UNL     1       2.593   4.390  18.869  0.00  0.00    +0.000 A 
ATOM     18  C   UNL     1       1.970   3.650  17.863  0.00  0.00    +0.000 A 
ATOM     19  C   UNL     1       1.043   2.764  18.446  0.00  0.00    +0.000 A 
ATOM     20  C   UNL     1       1.103   2.961  19.803  0.00  0.00    +0.000 A 
ATOM     21  N   UNL     1       2.051   3.927  20.062  0.00  0.00    +0.000 N 
ATOM     22  C   UNL     1       2.379   4.296  21.420  0.00  0.00    +0.000 C 
ENDBRANCH  16  17
BRANCH  16  23
ATOM     23  N   UNL     1       4.985   4.756  18.196  0.00  0.00    +0.000 NA
ATOM     24  C   UNL     1       6.151   4.875  19.082  0.00  0.00    +0.000 C 
ATOM     25  C   UNL     1       7.006   5.983  18.495  0.00  0.00    +0.000 C 
ATOM     26  C   UNL     1       6.792   5.841  17.004  0.00  0.00    +0.000 C 
ATOM     27  C   UNL     1       5.451   5.128  16.858  0.00  0.00    +0.000 C 
ENDBRANCH  16  23
ENDBRANCH  15  16
ENDBRANCH   3  15
TORSDOF 7
ENDMDL
MODEL 4
REMARK VINA RESULT:      -7.4      1.309      2.603
REMARK  Name = 
REMARK  10 active torsions:
REMARK  status: ('A' for Active; 'I' for Inactive)
REMARK    1  A    between atoms: C_1  and  O_2
REMARK    2  A    between atoms: O_2  and  C_3
REMARK    3  A    between atoms: C_5  and  O_6
REMARK    4  A    between atoms: O_6  and  C_7
REMARK    5  A    between atoms: C_9  and  C_10
REMARK    6  A    between atoms: N_12  and  C_13
REMARK    7  A    between atoms: C_13  and  C_14
REMARK    8  A    between atoms: C_14  and  C_15
REMARK    9  A    between atoms: C_14  and  N_21
REMARK   10  A    between atoms: N_19  and  C_20
REMARK                            x       y       z     vdW  Elec       q    Type
REMARK                         _______ _______ _______ _____ _____    ______ ____
ROOT
ATOM      1  C   UNL     1       2.277   8.247  18.151  0.00  0.00    +0.000 C 
ATOM      2  O   UNL     1       2.661   8.775  17.109  0.00  0.00    +0.000 OA
ATOM      3  N   UNL     1       2.667   6.973  18.519  0.00  0.00    +0.000 N 
ATOM      4  H   UNL     1       2.504   6.609  19.442  0.00  0.00    +0.000 HD
ENDROOT
BRANCH   1   9
ATOM      5  C   UNL     1       0.364   9.462  21.222  0.00  0.00    +0.000 A 
ATOM      6  C   UNL     1      -0.502  10.375  20.617  0.00  0.00    +0.000 A 
ATOM      7  C   UNL     1      -0.464  10.593  19.241  0.00  0.00    +0.000 A 
ATOM      8  C   UNL     1       0.477   9.917  18.466  0.00  0.00    +0.000 A 
ATOM      9  C   UNL     1       1.352   8.992  19.059  0.00  0.00    +0.000 A 
ATOM     10  C   UNL     1       1.293   8.773  20.443  0.00  0.00    +0.000 A 
BRANCH   5  12
ATOM     11  C   UNL     1      -0.799  10.130  23.194  0.00  0.00    +0.000 C 
ATOM     12  O   UNL     1       0.188   9.314  22.573  0.00  0.00    +0.000 OA
ENDBRANCH   5  12
BRANCH   7  13
ATOM     13  O   UNL     1      -1.375  11.494  18.759  0.00  0.00    +0.000 OA
ATOM     14  C   UNL     1      -1.602  12.632  19.587  0.00  0.00    +0.000 C 
ENDBRANCH   7  13
ENDBRANCH   1   9
BRANCH   3  15
ATOM     15  C   UNL     1       3.601   6.247  17.682  0.00  0.00    +0.000 C 
BRANCH  15  16
ATOM     16  C   UNL     1       4.086   4.879  18.230  0.00  0.00    +0.000 C 
BRANCH  16  17
ATOM     17  C   UNL     1       2.959   3.893  18.601  0.00  0.00    +0.000 A 
ATOM     18  C   UNL     1       1.683   3.808  18.043  0.00  0.00    +0.000 A 
ATOM     19  C   UNL     1       1.011   2.698  18.591  0.00  0.00    +0.000 A 
ATOM     20  C   UNL     1       1.875   2.106  19.477  0.00  0.00    +0.000 A 
ATOM     21  N   UNL     1       3.059   2.813  19.471  0.00  0.00    +0.000 N 
ATOM     22  C   UNL     1       4.184   2.377  20.266  0.00  0.00    +0.000 C 
ENDBRANCH  16  17
BRANCH  16  23
ATOM     23  N   UNL     1       5.174   4.212  17.461  0.00  0.00    +0.000 NA
ATOM     24  C   UNL     1       6.531   4.624  17.848  0.00  0.00    +0.000 C 
ATOM     25  C   UNL     1       6.982   5.612  16.788  0.00  0.00    +0.000 C 
ATOM     26  C   UNL     1       6.328   5.097  15.525  0.00  0.00    +0.000 C 
ATOM     27  C   UNL     1       5.130   4.279  15.999  0.00  0.00    +0.000 C 
ENDBRANCH  16  23
ENDBRANCH  15  16
ENDBRANCH   3  15
TORSDOF 7
ENDMDL
MODEL 5
REMARK VINA RESULT:      -7.3      1.047      2.540
REMARK  Name = 
REMARK  10 active torsions:
REMARK  status: ('A' for Active; 'I' for Inactive)
REMARK    1  A    between atoms: C_1  and  O_2
REMARK    2  A    between atoms: O_2  and  C_3
REMARK    3  A    between atoms: C_5  and  O_6
REMARK    4  A    between atoms: O_6  and  C_7
REMARK    5  A    between atoms: C_9  and  C_10
REMARK    6  A    between atoms: N_12  and  C_13
REMARK    7  A    between atoms: C_13  and  C_14
REMARK    8  A    between atoms: C_14  and  C_15
REMARK    9  A    between atoms: C_14  and  N_21
REMARK   10  A    between atoms: N_19  and  C_20
REMARK                            x       y       z     vdW  Elec       q    Type
REMARK                         _______ _______ _______ _____ _____    ______ ____
ROOT
ATOM      1  C   UNL     1       2.273   8.283  18.289  0.00  0.00    +0.000 C 
ATOM      2  O   UNL     1       2.585   8.687  17.170  0.00  0.00    +0.000 OA
ATOM      3  N   UNL     1       2.779   7.110  18.816  0.00  0.00    +0.000 N 
ATOM      4  H   UNL     1       2.669   6.869  19.787  0.00  0.00    +0.000 HD
ENDROOT
BRANCH   1   9
ATOM      5  C   UNL     1       0.071   9.517  21.152  0.00  0.00    +0.000 A 
ATOM      6  C   UNL     1      -0.593  10.563  20.508  0.00  0.00    +0.000 A 
ATOM      7  C   UNL     1      -0.329  10.863  19.172  0.00  0.00    +0.000 A 
ATOM      8  C   UNL     1       0.637  10.132  18.484  0.00  0.00    +0.000 A 
ATOM      9  C   UNL     1       1.311   9.073  19.116  0.00  0.00    +0.000 A 
ATOM     10  C   UNL     1       1.025   8.774  20.456  0.00  0.00    +0.000 A 
BRANCH   5  12
ATOM     11  C   UNL     1      -0.887  10.407  23.147  0.00  0.00    +0.000 C 
ATOM     12  O   UNL     1      -0.317   9.305  22.449  0.00  0.00    +0.000 OA
ENDBRANCH   5  12
BRANCH   7  13
ATOM     13  O   UNL     1      -1.056  11.894  18.643  0.00  0.00    +0.000 OA
ATOM     14  C   UNL     1      -1.191  13.038  19.482  0.00  0.00    +0.000 C 
ENDBRANCH   7  13
ENDBRANCH   1   9
BRANCH   3  15
ATOM     15  C   UNL     1       3.750   6.350  18.056  0.00  0.00    +0.000 C 
BRANCH  15  16
ATOM     16  C   UNL     1       4.382   5.133  18.783  0.00  0.00    +0.000 C 
BRANCH  16  17
ATOM     17  C   UNL     1       3.459   3.904  18.914  0.00  0.00    +0.000 A 
ATOM     18  C   UNL     1       3.432   2.769  18.104  0.00  0.00    +0.000 A 
ATOM     19  C   UNL     1       2.518   1.840  18.638  0.00  0.00    +0.000 A 
ATOM     20  C   UNL     1       1.992   2.406  19.773  0.00  0.00    +0.000 A 
ATOM     21  N   UNL     1       2.572   3.643  19.952  0.00  0.00    +0.000 N 
ATOM     22  C   UNL     1       2.256   4.447  21.110  0.00  0.00    +0.000 C 
ENDBRANCH  16  17
BRANCH  16  23
ATOM     23  N   UNL     1       5.755   4.751  18.348  0.00  0.00    +0.000 NA
ATOM     24  C   UNL     1       6.835   5.415  19.090  0.00  0.00    +0.000 C 
ATOM     25  C   UNL     1       7.332   6.531  18.190  0.00  0.00    +0.000 C 
ATOM     26  C   UNL     1       7.171   5.958  16.798  0.00  0.00    +0.000 C 
ATOM     27  C   UNL     1       6.095   4.884  16.929  0.00  0.00    +0.000 C 
ENDBRANCH  16  23
ENDBRANCH  15  16
ENDBRANCH   3  15
TORSDOF 7
ENDMDL
MODEL 6
REMARK VINA RESULT:      -7.2      1.477      3.837
REMARK  Name = 
REMARK  10 active torsions:
REMARK  status: ('A' for Active; 'I' for Inactive)
REMARK    1  A    between atoms: C_1  and  O_2
REMARK    2  A    between atoms: O_2  and  C_3
REMARK    3  A    between atoms: C_5  and  O_6
REMARK    4  A    between atoms: O_6  and  C_7
REMARK    5  A    between atoms: C_9  and  C_10
REMARK    6  A    between atoms: N_12  and  C_13
REMARK    7  A    between atoms: C_13  and  C_14
REMARK    8  A    between atoms: C_14  and  C_15
REMARK    9  A    between atoms: C_14  and  N_21
REMARK   10  A    between atoms: N_19  and  C_20
REMARK                            x       y       z     vdW  Elec       q    Type
REMARK                         _______ _______ _______ _____ _____    ______ ____
ROOT
ATOM      1  C   UNL     1       2.874   7.392  18.810  0.00  0.00    +0.000 C 
ATOM      2  O   UNL     1       3.392   7.630  17.722  0.00  0.00    +0.000 OA
ATOM      3  N   UNL     1       3.283   6.339  19.606  0.00  0.00    +0.000 N 
ATOM      4  H   UNL     1       2.988   6.246  20.564  0.00  0.00    +0.000 HD
ENDROOT
BRANCH   1   9
ATOM      5  C   UNL     1       0.074   9.978  19.016  0.00  0.00    +0.000 A 
ATOM      6  C   UNL     1      -0.232   9.889  20.375  0.00  0.00    +0.000 A 
ATOM      7  C   UNL     1       0.455   9.006  21.208  0.00  0.00    +0.000 A 
ATOM      8  C   UNL     1       1.433   8.176  20.666  0.00  0.00    +0.000 A 
ATOM      9  C   UNL     1       1.758   8.256  19.301  0.00  0.00    +0.000 A 
ATOM     10  C   UNL     1       1.067   9.159  18.479  0.00  0.00    +0.000 A 
BRANCH   5  12
ATOM     11  C   UNL     1      -1.689  10.446  17.479  0.00  0.00    +0.000 C 
ATOM     12  O   UNL     1      -0.647  10.917  18.327  0.00  0.00    +0.000 OA
ENDBRANCH   5  12
BRANCH   7  13
ATOM     13  O   UNL     1       0.082   9.023  22.524  0.00  0.00    +0.000 OA
ATOM     14  C   UNL     1      -0.681  10.157  22.927  0.00  0.00    +0.000 C 
ENDBRANCH   7  13
ENDBRANCH   1   9
BRANCH   3  15
ATOM     15  C   UNL     1       4.394   5.514  19.178  0.00  0.00    +0.000 C 
BRANCH  15  16
ATOM     16  C   UNL     1       4.074   4.448  18.096  0.00  0.00    +0.000 C 
BRANCH  16  17
ATOM     17  C   UNL     1       5.042   4.435  16.894  0.00  0.00    +0.000 A 
ATOM     18  C   UNL     1       4.716   4.452  15.538  0.00  0.00    +0.000 A 
ATOM     19  C   UNL     1       5.899   4.545  14.778  0.00  0.00    +0.000 A 
ATOM     20  C   UNL     1       6.942   4.588  15.669  0.00  0.00    +0.000 A 
ATOM     21  N   UNL     1       6.427   4.541  16.947  0.00  0.00    +0.000 N 
ATOM     22  C   UNL     1       7.295   4.637  18.098  0.00  0.00    +0.000 C 
ENDBRANCH  16  17
BRANCH  16  23
ATOM     23  N   UNL     1       3.789   3.074  18.593  0.00  0.00    +0.000 NA
ATOM     24  C   UNL     1       2.807   2.330  17.793  0.00  0.00    +0.000 C 
ATOM     25  C   UNL     1       1.500   2.408  18.563  0.00  0.00    +0.000 C 
ATOM     26  C   UNL     1       1.944   2.401  20.010  0.00  0.00    +0.000 C 
ATOM     27  C   UNL     1       3.381   2.913  19.991  0.00  0.00    +0.000 C 
ENDBRANCH  16  23
ENDBRANCH  15  16
ENDBRANCH   3  15
TORSDOF 7
ENDMDL
MODEL 7
REMARK VINA RESULT:      -7.2      0.721      2.668
REMARK  Name = 
REMARK  10 active torsions:
REMARK  status: ('A' for Active; 'I' for Inactive)
REMARK    1  A    between atoms: C_1  and  O_2
REMARK    2  A    between atoms: O_2  and  C_3
REMARK    3  A    between atoms: C_5  and  O_6
REMARK    4  A    between atoms: O_6  and  C_7
REMARK    5  A    between atoms: C_9  and  C_10
REMARK    6  A    between atoms: N_12  and  C_13
REMARK    7  A    between atoms: C_13  and  C_14
REMARK    8  A    between atoms: C_14  and  C_15
REMARK    9  A    between atoms: C_14  and  N_21
REMARK   10  A    between atoms: N_19  and  C_20
REMARK                            x       y       z     vdW  Elec       q    Type
REMARK                         _______ _______ _______ _____ _____    ______ ____
ROOT
ATOM      1  C   UNL     1       1.905   9.236  18.214  0.00  0.00    +0.000 C 
ATOM      2  O   UNL     1       2.398   9.812  17.246  0.00  0.00    +0.000 OA
ATOM      3  N   UNL     1       2.292   7.964  18.591  0.00  0.00    +0.000 N 
ATOM      4  H   UNL     1       2.025   7.563  19.474  0.00  0.00    +0.000 HD
ENDROOT
BRANCH   1   9
ATOM      5  C   UNL     1      -0.066  10.808  21.079  0.00  0.00    +0.000 A 
ATOM      6  C   UNL     1      -1.263  11.092  20.417  0.00  0.00    +0.000 A 
ATOM      7  C   UNL     1      -1.425  10.781  19.068  0.00  0.00    +0.000 A 
ATOM      8  C   UNL     1      -0.365  10.215  18.364  0.00  0.00    +0.000 A 
ATOM      9  C   UNL     1       0.844   9.918  19.016  0.00  0.00    +0.000 A 
ATOM     10  C   UNL     1       0.987  10.224  20.377  0.00  0.00    +0.000 A 
BRANCH   5  12
ATOM     11  C   UNL     1      -1.293  11.007  23.115  0.00  0.00    +0.000 C 
ATOM     12  O   UNL     1      -0.061  11.125  22.412  0.00  0.00    +0.000 OA
ENDBRANCH   5  12
BRANCH   7  13
ATOM     13  O   UNL     1      -2.647  11.086  18.534  0.00  0.00    +0.000 OA
ATOM     14  C   UNL     1      -2.630  11.505  17.171  0.00  0.00    +0.000 C 
ENDBRANCH   7  13
ENDBRANCH   1   9
BRANCH   3  15
ATOM     15  C   UNL     1       3.352   7.298  17.860  0.00  0.00    +0.000 C 
BRANCH  15  16
ATOM     16  C   UNL     1       3.807   5.925  18.421  0.00  0.00    +0.000 C 
BRANCH  16  17
ATOM     17  C   UNL     1       2.681   4.882  18.575  0.00  0.00    +0.000 A 
ATOM     18  C   UNL     1       2.182   4.017  17.601  0.00  0.00    +0.000 A 
ATOM     19  C   UNL     1       1.238   3.153  18.189  0.00  0.00    +0.000 A 
ATOM     20  C   UNL     1       1.165   3.486  19.518  0.00  0.00    +0.000 A 
ATOM     21  N   UNL     1       2.049   4.516  19.758  0.00  0.00    +0.000 N 
ATOM     22  C   UNL     1       2.236   5.033  21.094  0.00  0.00    +0.000 C 
ENDBRANCH  16  17
BRANCH  16  23
ATOM     23  N   UNL     1       5.027   5.336  17.802  0.00  0.00    +0.000 NA
ATOM     24  C   UNL     1       5.991   4.784  18.763  0.00  0.00    +0.000 C 
ATOM     25  C   UNL     1       7.090   5.823  18.893  0.00  0.00    +0.000 C 
ATOM     26  C   UNL     1       7.170   6.425  17.507  0.00  0.00    +0.000 C 
ATOM     27  C   UNL     1       5.805   6.165  16.877  0.00  0.00    +0.000 C 
ENDBRANCH  16  23
ENDBRANCH  15  16
ENDBRANCH   3  15
TORSDOF 7
ENDMDL
MODEL 8
REMARK VINA RESULT:      -7.2      0.825      1.078
REMARK  Name = 
REMARK  10 active torsions:
REMARK  status: ('A' for Active; 'I' for Inactive)
REMARK    1  A    between atoms: C_1  and  O_2
REMARK    2  A    between atoms: O_2  and  C_3
REMARK    3  A    between atoms: C_5  and  O_6
REMARK    4  A    between atoms: O_6  and  C_7
REMARK    5  A    between atoms: C_9  and  C_10
REMARK    6  A    between atoms: N_12  and  C_13
REMARK    7  A    between atoms: C_13  and  C_14
REMARK    8  A    between atoms: C_14  and  C_15
REMARK    9  A    between atoms: C_14  and  N_21
REMARK   10  A    between atoms: N_19  and  C_20
REMARK                            x       y       z     vdW  Elec       q    Type
REMARK                         _______ _______ _______ _____ _____    ______ ____
ROOT
ATOM      1  C   UNL     1       1.556   9.061  18.438  0.00  0.00    +0.000 C 
ATOM      2  O   UNL     1       2.068   9.459  17.394  0.00  0.00    +0.000 OA
ATOM      3  N   UNL     1       1.898   7.850  19.011  0.00  0.00    +0.000 N 
ATOM      4  H   UNL     1       1.619   7.602  19.945  0.00  0.00    +0.000 HD
ENDROOT
BRANCH   1   9
ATOM      5  C   UNL     1      -1.418  11.351  19.130  0.00  0.00    +0.000 A 
ATOM      6  C   UNL     1      -1.270  11.523  20.507  0.00  0.00    +0.000 A 
ATOM      7  C   UNL     1      -0.227  10.907  21.198  0.00  0.00    +0.000 A 
ATOM      8  C   UNL     1       0.655  10.078  20.508  0.00  0.00    +0.000 A 
ATOM      9  C   UNL     1       0.524   9.898  19.121  0.00  0.00    +0.000 A 
ATOM     10  C   UNL     1      -0.522  10.536  18.437  0.00  0.00    +0.000 A 
BRANCH   5  12
ATOM     11  C   UNL     1      -3.615  11.310  18.204  0.00  0.00    +0.000 C 
ATOM     12  O   UNL     1      -2.457  12.049  18.574  0.00  0.00    +0.000 OA
ENDBRANCH   5  12
BRANCH   7  13
ATOM     13  O   UNL     1      -0.172  11.167  22.540  0.00  0.00    +0.000 OA
ATOM     14  C   UNL     1      -1.396  11.599  23.128  0.00  0.00    +0.000 C 
ENDBRANCH   7  13
ENDBRANCH   1   9
BRANCH   3  15
ATOM     15  C   UNL     1       2.930   7.040  18.396  0.00  0.00    +0.000 C 
BRANCH  15  16
ATOM     16  C   UNL     1       3.569   5.951  19.299  0.00  0.00    +0.000 C 
BRANCH  16  17
ATOM     17  C   UNL     1       2.598   4.849  19.772  0.00  0.00    +0.000 A 
ATOM     18  C   UNL     1       2.344   4.442  21.082  0.00  0.00    +0.000 A 
ATOM     19  C   UNL     1       1.308   3.488  21.078  0.00  0.00    +0.000 A 
ATOM     20  C   UNL     1       0.929   3.317  19.770  0.00  0.00    +0.000 A 
ATOM     21  N   UNL     1       1.692   4.151  18.982  0.00  0.00    +0.000 N 
ATOM     22  C   UNL     1       1.466   4.233  17.557  0.00  0.00    +0.000 C 
ENDBRANCH  16  17
BRANCH  16  23
ATOM     23  N   UNL     1       4.862   5.384  18.826  0.00  0.00    +0.000 NA
ATOM     24  C   UNL     1       5.446   6.081  17.672  0.00  0.00    +0.000 C 
ATOM     25  C   UNL     1       5.127   5.221  16.462  0.00  0.00    +0.000 C 
ATOM     26  C   UNL     1       5.175   3.812  17.011  0.00  0.00    +0.000 C 
ATOM     27  C   UNL     1       4.918   3.955  18.508  0.00  0.00    +0.000 C 
ENDBRANCH  16  23
ENDBRANCH  15  16
ENDBRANCH   3  15
TORSDOF 7
ENDMDL
MODEL 9
REMARK VINA RESULT:      -7.1      0.882      1.536
REMARK  Name = 
REMARK  10 active torsions:
REMARK  status: ('A' for Active; 'I' for Inactive)
REMARK    1  A    between atoms: C_1  and  O_2
REMARK    2  A    between atoms: O_2  and  C_3
REMARK    3  A    between atoms: C_5  and  O_6
REMARK    4  A    between atoms: O_6  and  C_7
REMARK    5  A    between atoms: C_9  and  C_10
REMARK    6  A    between atoms: N_12  and  C_13
REMARK    7  A    between atoms: C_13  and  C_14
REMARK    8  A    between atoms: C_14  and  C_15
REMARK    9  A    between atoms: C_14  and  N_21
REMARK   10  A    between atoms: N_19  and  C_20
REMARK                            x       y       z     vdW  Elec       q    Type
REMARK                         _______ _______ _______ _____ _____    ______ ____
ROOT
ATOM      1  C   UNL     1       1.587   9.159  18.388  0.00  0.00    +0.000 C 
ATOM      2  O   UNL     1       2.013   9.580  17.314  0.00  0.00    +0.000 OA
ATOM      3  N   UNL     1       2.037   7.978  18.948  0.00  0.00    +0.000 N 
ATOM      4  H   UNL     1       1.827   7.722  19.898  0.00  0.00    +0.000 HD
ENDROOT
BRANCH   1   9
ATOM      5  C   UNL     1      -1.429  11.343  19.225  0.00  0.00    +0.000 A 
ATOM      6  C   UNL     1      -1.274  11.443  20.609  0.00  0.00    +0.000 A 
ATOM      7  C   UNL     1      -0.213  10.812  21.257  0.00  0.00    +0.000 A 
ATOM      8  C   UNL     1       0.681  10.042  20.517  0.00  0.00    +0.000 A 
ATOM      9  C   UNL     1       0.542   9.935  19.123  0.00  0.00    +0.000 A 
ATOM     10  C   UNL     1      -0.523  10.587  18.483  0.00  0.00    +0.000 A 
BRANCH   5  12
ATOM     11  C   UNL     1      -3.335  11.374  17.791  0.00  0.00    +0.000 C 
ATOM     12  O   UNL     1      -2.488  12.047  18.715  0.00  0.00    +0.000 OA
ENDBRANCH   5  12
BRANCH   7  13
ATOM     13  O   UNL     1      -0.153  10.999  22.611  0.00  0.00    +0.000 OA
ATOM     14  C   UNL     1      -1.337  11.522  23.208  0.00  0.00    +0.000 C 
ENDBRANCH   7  13
ENDBRANCH   1   9
BRANCH   3  15
ATOM     15  C   UNL     1       3.083   7.230  18.281  0.00  0.00    +0.000 C 
BRANCH  15  16
ATOM     16  C   UNL     1       3.494   5.890  18.949  0.00  0.00    +0.000 C 
BRANCH  16  17
ATOM     17  C   UNL     1       2.393   4.810  18.965  0.00  0.00    +0.000 A 
ATOM     18  C   UNL     1       1.734   4.249  17.871  0.00  0.00    +0.000 A 
ATOM     19  C   UNL     1       0.883   3.220  18.320  0.00  0.00    +0.000 A 
ATOM     20  C   UNL     1       1.027   3.151  19.683  0.00  0.00    +0.000 A 
ATOM     21  N   UNL     1       1.952   4.096  20.073  0.00  0.00    +0.000 N 
ATOM     22  C   UNL     1       2.355   4.209  21.456  0.00  0.00    +0.000 C 
ENDBRANCH  16  17
BRANCH  16  23
ATOM     23  N   UNL     1       4.813   5.331  18.539  0.00  0.00    +0.000 NA
ATOM     24  C   UNL     1       5.540   6.146  17.556  0.00  0.00    +0.000 C 
ATOM     25  C   UNL     1       5.327   5.466  16.216  0.00  0.00    +0.000 C 
ATOM     26  C   UNL     1       5.271   3.997  16.572  0.00  0.00    +0.000 C 
ATOM     27  C   UNL     1       4.858   3.955  18.040  0.00  0.00    +0.000 C 
ENDBRANCH  16  23
ENDBRANCH  15  16
ENDBRANCH   3  15
TORSDOF 7
ENDMDL
