MODEL 1
REMARK VINA RESULT:      -8.4      0.000      0.000
REMARK  Name = 
REMARK  7 active torsions:
REMARK  status: ('A' for Active; 'I' for Inactive)
REMARK    1  A    between atoms: S_2  and  C_4
REMARK    2  A    between atoms: S_2  and  N_10
REMARK    3  A    between atoms: C_13  and  N_14
REMARK    4  A    between atoms: N_14  and  C_15
REMARK    5  A    between atoms: C_15  and  C_16
REMARK    6  A    between atoms: C_15  and  C_26
REMARK    7  A    between atoms: C_19  and  C_20
REMARK                            x       y       z     vdW  Elec       q    Type
REMARK                         _______ _______ _______ _____ _____    ______ ____
ROOT
ATOM      1  N   UNL     1       4.678   5.663  18.575  0.00  0.00    +0.000 NA
ATOM      2  H   UNL     1       4.347   5.982  17.664  0.00  0.00    +0.000 HD
ENDROOT
BRANCH   1   6
ATOM      3  N   UNL     1       6.511   4.431  15.694  0.00  0.00    +0.000 NA
ATOM      4  C   UNL     1       7.167   5.171  16.817  0.00  0.00    +0.000 C 
ATOM      5  C   UNL     1       6.862   4.549  18.177  0.00  0.00    +0.000 C 
ATOM      6  C   UNL     1       5.357   4.355  18.426  0.00  0.00    +0.000 C 
ATOM      7  C   UNL     1       4.834   3.480  17.284  0.00  0.00    +0.000 C 
ATOM      8  C   UNL     1       5.068   4.120  15.924  0.00  0.00    +0.000 C 
BRANCH   3  10
ATOM      9  O   UNL     1       8.148   5.498  14.029  0.00  0.00    +0.000 OA
ATOM     10  S   UNL     1       6.732   5.202  14.155  0.00  0.00    +0.000 S 
ATOM     11  O   UNL     1       5.731   6.243  14.037  0.00  0.00    +0.000 OA
BRANCH  10  12
ATOM     12  C   UNL     1       6.303   3.938  12.992  0.00  0.00    +0.000 A 
ATOM     13  C   UNL     1       4.960   3.774  12.641  0.00  0.00    +0.000 A 
ATOM     14  C   UNL     1       4.609   2.798  11.708  0.00  0.00    +0.000 A 
ATOM     15  C   UNL     1       5.596   2.001  11.127  0.00  0.00    +0.000 A 
ATOM     16  C   UNL     1       6.939   2.183  11.467  0.00  0.00    +0.000 A 
ATOM     17  C   UNL     1       7.299   3.156  12.400  0.00  0.00    +0.000 A 
ENDBRANCH  10  12
ENDBRANCH   3  10
ENDBRANCH   1   6
BRANCH   1  18
ATOM     18  C   UNL     1       3.506   5.665  19.499  0.00  0.00    +0.000 C 
BRANCH  18  19
ATOM     19  C   UNL     1       2.696   6.956  19.398  0.00  0.00    +0.000 A 
ATOM     20  C   UNL     1       1.932   7.407  20.487  0.00  0.00    +0.000 A 
ATOM     21  C   UNL     1       1.116   8.530  20.368  0.00  0.00    +0.000 A 
ATOM     22  C   UNL     1       1.045   9.230  19.157  0.00  0.00    +0.000 A 
ATOM     23  C   UNL     1       1.874   8.836  18.095  0.00  0.00    +0.000 A 
ATOM     24  C   UNL     1       2.694   7.710  18.216  0.00  0.00    +0.000 A 
BRANCH  22  25
ATOM     25  C   UNL     1       0.055  10.353  18.975  0.00  0.00    +0.000 C 
ATOM     26  F   UNL     1      -0.993  10.028  18.166  0.00  0.00    +0.000 F 
ATOM     27  F   UNL     1      -0.493  10.775  20.147  0.00  0.00    +0.000 F 
ATOM     28  F   UNL     1       0.626  11.453  18.410  0.00  0.00    +0.000 F 
ENDBRANCH  22  25
ENDBRANCH  18  19
BRANCH  18  29
ATOM     29  C   UNL     1       2.578   4.460  19.317  0.00  0.00    +0.000 A 
ATOM     30  C   UNL     1       1.763   4.326  18.194  0.00  0.00    +0.000 A 
ATOM     31  N   UNL     1       0.843   3.340  18.054  0.00  0.00    +0.000 NA
ATOM     32  C   UNL     1       0.753   2.487  19.097  0.00  0.00    +0.000 A 
ATOM     33  C   UNL     1       1.561   2.596  20.214  0.00  0.00    +0.000 A 
ATOM     34  N   UNL     1       2.493   3.569  20.346  0.00  0.00    +0.000 NA
ENDBRANCH  18  29
ENDBRANCH   1  18
TORSDOF 7
ENDMDL
MODEL 2
REMARK VINA RESULT:      -8.4      0.793      1.591
REMARK  Name = 
REMARK  7 active torsions:
REMARK  status: ('A' for Active; 'I' for Inactive)
REMARK    1  A    between atoms: S_2  and  C_4
REMARK    2  A    between atoms: S_2  and  N_10
REMARK    3  A    between atoms: C_13  and  N_14
REMARK    4  A    between atoms: N_14  and  C_15
REMARK    5  A    between atoms: C_15  and  C_16
REMARK    6  A    between atoms: C_15  and  C_26
REMARK    7  A    between atoms: C_19  and  C_20
REMARK                            x       y       z     vdW  Elec       q    Type
REMARK                         _______ _______ _______ _____ _____    ______ ____
ROOT
ATOM      1  N   UNL     1       3.879   5.563  18.309  0.00  0.00    +0.000 NA
ATOM      2  H   UNL     1       3.136   5.490  17.614  0.00  0.00    +0.000 HD
ENDROOT
BRANCH   1   6
ATOM      3  N   UNL     1       6.233   4.421  15.793  0.00  0.00    +0.000 NA
ATOM      4  C   UNL     1       6.644   5.242  16.976  0.00  0.00    +0.000 C 
ATOM      5  C   UNL     1       6.181   4.630  18.295  0.00  0.00    +0.000 C 
ATOM      6  C   UNL     1       4.676   4.315  18.316  0.00  0.00    +0.000 C 
ATOM      7  C   UNL     1       4.410   3.370  17.141  0.00  0.00    +0.000 C 
ATOM      8  C   UNL     1       4.802   3.995  15.810  0.00  0.00    +0.000 C 
BRANCH   3  10
ATOM      9  O   UNL     1       8.071   5.348  14.258  0.00  0.00    +0.000 OA
ATOM     10  S   UNL     1       6.630   5.171  14.278  0.00  0.00    +0.000 S 
ATOM     11  O   UNL     1       5.729   6.292  14.094  0.00  0.00    +0.000 OA
BRANCH  10  12
ATOM     12  C   UNL     1       6.183   3.947  13.080  0.00  0.00    +0.000 A 
ATOM     13  C   UNL     1       4.852   3.871  12.659  0.00  0.00    +0.000 A 
ATOM     14  C   UNL     1       4.489   2.927  11.699  0.00  0.00    +0.000 A 
ATOM     15  C   UNL     1       5.453   2.075  11.159  0.00  0.00    +0.000 A 
ATOM     16  C   UNL     1       6.785   2.168  11.569  0.00  0.00    +0.000 A 
ATOM     17  C   UNL     1       7.157   3.109  12.531  0.00  0.00    +0.000 A 
ENDBRANCH  10  12
ENDBRANCH   3  10
ENDBRANCH   1   6
BRANCH   1  18
ATOM     18  C   UNL     1       3.237   5.910  19.611  0.00  0.00    +0.000 C 
BRANCH  18  19
ATOM     19  C   UNL     1       2.383   7.172  19.514  0.00  0.00    +0.000 A 
ATOM     20  C   UNL     1       2.278   7.873  18.301  0.00  0.00    +0.000 A 
ATOM     21  C   UNL     1       1.580   9.076  18.232  0.00  0.00    +0.000 A 
ATOM     22  C   UNL     1       0.969   9.609  19.374  0.00  0.00    +0.000 A 
ATOM     23  C   UNL     1       0.995   8.868  20.566  0.00  0.00    +0.000 A 
ATOM     24  C   UNL     1       1.694   7.659  20.634  0.00  0.00    +0.000 A 
BRANCH  22  25
ATOM     25  C   UNL     1       0.341  10.980  19.341  0.00  0.00    +0.000 C 
ATOM     26  F   UNL     1       0.279  11.578  20.565  0.00  0.00    +0.000 F 
ATOM     27  F   UNL     1       1.003  11.850  18.531  0.00  0.00    +0.000 F 
ATOM     28  F   UNL     1      -0.943  10.944  18.886  0.00  0.00    +0.000 F 
ENDBRANCH  22  25
ENDBRANCH  18  19
BRANCH  18  29
ATOM     29  C   UNL     1       2.405   4.771  20.209  0.00  0.00    +0.000 A 
ATOM     30  C   UNL     1       2.711   4.215  21.451  0.00  0.00    +0.000 A 
ATOM     31  N   UNL     1       2.075   3.130  21.958  0.00  0.00    +0.000 NA
ATOM     32  C   UNL     1       1.118   2.602  21.165  0.00  0.00    +0.000 A 
ATOM     33  C   UNL     1       0.792   3.147  19.936  0.00  0.00    +0.000 A 
ATOM     34  N   UNL     1       1.413   4.241  19.438  0.00  0.00    +0.000 NA
ENDBRANCH  18  29
ENDBRANCH   1  18
TORSDOF 7
ENDMDL
MODEL 3
REMARK VINA RESULT:      -8.2      0.506      1.402
REMARK  Name = 
REMARK  7 active torsions:
REMARK  status: ('A' for Active; 'I' for Inactive)
REMARK    1  A    between atoms: S_2  and  C_4
REMARK    2  A    between atoms: S_2  and  N_10
REMARK    3  A    between atoms: C_13  and  N_14
REMARK    4  A    between atoms: N_14  and  C_15
REMARK    5  A    between atoms: C_15  and  C_16
REMARK    6  A    between atoms: C_15  and  C_26
REMARK    7  A    between atoms: C_19  and  C_20
REMARK                            x       y       z     vdW  Elec       q    Type
REMARK                         _______ _______ _______ _____ _____    ______ ____
ROOT
ATOM      1  N   UNL     1       4.395   5.639  18.314  0.00  0.00    +0.000 NA
ATOM      2  H   UNL     1       3.865   5.792  17.456  0.00  0.00    +0.000 HD
ENDROOT
BRANCH   1   6
ATOM      3  N   UNL     1       6.433   4.402  15.577  0.00  0.00    +0.000 NA
ATOM      4  C   UNL     1       7.001   5.175  16.726  0.00  0.00    +0.000 C 
ATOM      5  C   UNL     1       6.624   4.569  18.075  0.00  0.00    +0.000 C 
ATOM      6  C   UNL     1       5.111   4.345  18.231  0.00  0.00    +0.000 C 
ATOM      7  C   UNL     1       4.680   3.439  17.074  0.00  0.00    +0.000 C 
ATOM      8  C   UNL     1       4.987   4.063  15.721  0.00  0.00    +0.000 C 
BRANCH   3  10
ATOM      9  O   UNL     1       8.161   5.420  13.973  0.00  0.00    +0.000 OA
ATOM     10  S   UNL     1       6.736   5.153  14.041  0.00  0.00    +0.000 S 
ATOM     11  O   UNL     1       5.761   6.212  13.871  0.00  0.00    +0.000 OA
BRANCH  10  12
ATOM     12  C   UNL     1       6.331   3.887  12.873  0.00  0.00    +0.000 A 
ATOM     13  C   UNL     1       7.365   3.126  12.319  0.00  0.00    +0.000 A 
ATOM     14  C   UNL     1       7.059   2.109  11.414  0.00  0.00    +0.000 A 
ATOM     15  C   UNL     1       5.730   1.851  11.076  0.00  0.00    +0.000 A 
ATOM     16  C   UNL     1       4.699   2.602  11.647  0.00  0.00    +0.000 A 
ATOM     17  C   UNL     1       4.996   3.623  12.552  0.00  0.00    +0.000 A 
ENDBRANCH  10  12
ENDBRANCH   3  10
ENDBRANCH   1   6
BRANCH   1  18
ATOM     18  C   UNL     1       3.440   5.762  19.454  0.00  0.00    +0.000 C 
BRANCH  18  19
ATOM     19  C   UNL     1       2.638   7.060  19.396  0.00  0.00    +0.000 A 
ATOM     20  C   UNL     1       1.903   7.497  20.510  0.00  0.00    +0.000 A 
ATOM     21  C   UNL     1       1.094   8.628  20.431  0.00  0.00    +0.000 A 
ATOM     22  C   UNL     1       0.999   9.350  19.234  0.00  0.00    +0.000 A 
ATOM     23  C   UNL     1       1.799   8.969  18.146  0.00  0.00    +0.000 A 
ATOM     24  C   UNL     1       2.613   7.835  18.227  0.00  0.00    +0.000 A 
BRANCH  22  25
ATOM     25  C   UNL     1       0.013  10.483  19.097  0.00  0.00    +0.000 C 
ATOM     26  F   UNL     1       0.601  11.684  18.827  0.00  0.00    +0.000 F 
ATOM     27  F   UNL     1      -0.897  10.281  18.107  0.00  0.00    +0.000 F 
ATOM     28  F   UNL     1      -0.707  10.677  20.237  0.00  0.00    +0.000 F 
ENDBRANCH  22  25
ENDBRANCH  18  19
BRANCH  18  29
ATOM     29  C   UNL     1       2.484   4.572  19.586  0.00  0.00    +0.000 A 
ATOM     30  C   UNL     1       2.503   3.738  20.702  0.00  0.00    +0.000 A 
ATOM     31  N   UNL     1       1.758   2.609  20.801  0.00  0.00    +0.000 NA
ATOM     32  C   UNL     1       0.993   2.329  19.725  0.00  0.00    +0.000 A 
ATOM     33  C   UNL     1       0.951   3.151  18.613  0.00  0.00    +0.000 A 
ATOM     34  N   UNL     1       1.679   4.288  18.522  0.00  0.00    +0.000 NA
ENDBRANCH  18  29
ENDBRANCH   1  18
TORSDOF 7
ENDMDL
MODEL 4
REMARK VINA RESULT:      -8.2      0.310      1.382
REMARK  Name = 
REMARK  7 active torsions:
REMARK  status: ('A' for Active; 'I' for Inactive)
REMARK    1  A    between atoms: S_2  and  C_4
REMARK    2  A    between atoms: S_2  and  N_10
REMARK    3  A    between atoms: C_13  and  N_14
REMARK    4  A    between atoms: N_14  and  C_15
REMARK    5  A    between atoms: C_15  and  C_16
REMARK    6  A    between atoms: C_15  and  C_26
REMARK    7  A    between atoms: C_19  and  C_20
REMARK                            x       y       z     vdW  Elec       q    Type
REMARK                         _______ _______ _______ _____ _____    ______ ____
ROOT
ATOM      1  N   UNL     1       4.576   5.652  18.532  0.00  0.00    +0.000 NA
ATOM      2  H   UNL     1       4.223   5.955  17.624  0.00  0.00    +0.000 HD
ENDROOT
BRANCH   1   6
ATOM      3  N   UNL     1       6.459   4.434  15.678  0.00  0.00    +0.000 NA
ATOM      4  C   UNL     1       7.096   5.170  16.815  0.00  0.00    +0.000 C 
ATOM      5  C   UNL     1       6.768   4.541  18.167  0.00  0.00    +0.000 C 
ATOM      6  C   UNL     1       5.259   4.346  18.388  0.00  0.00    +0.000 C 
ATOM      7  C   UNL     1       4.756   3.475  17.234  0.00  0.00    +0.000 C 
ATOM      8  C   UNL     1       5.013   4.122  15.881  0.00  0.00    +0.000 C 
BRANCH   3  10
ATOM      9  O   UNL     1       8.127   5.493  14.037  0.00  0.00    +0.000 OA
ATOM     10  S   UNL     1       6.707   5.213  14.145  0.00  0.00    +0.000 S 
ATOM     11  O   UNL     1       5.719   6.268  14.024  0.00  0.00    +0.000 OA
BRANCH  10  12
ATOM     12  C   UNL     1       6.274   3.963  12.969  0.00  0.00    +0.000 A 
ATOM     13  C   UNL     1       7.288   3.171  12.424  0.00  0.00    +0.000 A 
ATOM     14  C   UNL     1       6.960   2.167  11.514  0.00  0.00    +0.000 A 
ATOM     15  C   UNL     1       5.627   1.952  11.161  0.00  0.00    +0.000 A 
ATOM     16  C   UNL     1       4.615   2.735  11.724  0.00  0.00    +0.000 A 
ATOM     17  C   UNL     1       4.935   3.743  12.634  0.00  0.00    +0.000 A 
ENDBRANCH  10  12
ENDBRANCH   3  10
ENDBRANCH   1   6
BRANCH   1  18
ATOM     18  C   UNL     1       3.426   5.664  19.482  0.00  0.00    +0.000 C 
BRANCH  18  19
ATOM     19  C   UNL     1       2.589   6.935  19.358  0.00  0.00    +0.000 A 
ATOM     20  C   UNL     1       2.569   7.664  18.157  0.00  0.00    +0.000 A 
ATOM     21  C   UNL     1       1.885   8.875  18.071  0.00  0.00    +0.000 A 
ATOM     22  C   UNL     1       1.206   9.387  19.183  0.00  0.00    +0.000 A 
ATOM     23  C   UNL     1       1.149   8.620  20.356  0.00  0.00    +0.000 A 
ATOM     24  C   UNL     1       1.833   7.404  20.442  0.00  0.00    +0.000 A 
BRANCH  22  25
ATOM     25  C   UNL     1       0.592  10.764  19.140  0.00  0.00    +0.000 C 
ATOM     26  F   UNL     1       0.075  11.165  20.336  0.00  0.00    +0.000 F 
ATOM     27  F   UNL     1       1.474  11.730  18.769  0.00  0.00    +0.000 F 
ATOM     28  F   UNL     1      -0.441  10.837  18.253  0.00  0.00    +0.000 F 
ENDBRANCH  22  25
ENDBRANCH  18  19
BRANCH  18  29
ATOM     29  C   UNL     1       2.517   4.436  19.362  0.00  0.00    +0.000 A 
ATOM     30  C   UNL     1       1.695   4.239  18.253  0.00  0.00    +0.000 A 
ATOM     31  N   UNL     1       0.791   3.232  18.165  0.00  0.00    +0.000 NA
ATOM     32  C   UNL     1       0.725   2.425  19.245  0.00  0.00    +0.000 A 
ATOM     33  C   UNL     1       1.539   2.597  20.350  0.00  0.00    +0.000 A 
ATOM     34  N   UNL     1       2.455   3.590  20.430  0.00  0.00    +0.000 NA
ENDBRANCH  18  29
ENDBRANCH   1  18
TORSDOF 7
ENDMDL
MODEL 5
REMARK VINA RESULT:      -8.1      0.780      1.800
REMARK  Name = 
REMARK  7 active torsions:
REMARK  status: ('A' for Active; 'I' for Inactive)
REMARK    1  A    between atoms: S_2  and  C_4
REMARK    2  A    between atoms: S_2  and  N_10
REMARK    3  A    between atoms: C_13  and  N_14
REMARK    4  A    between atoms: N_14  and  C_15
REMARK    5  A    between atoms: C_15  and  C_16
REMARK    6  A    between atoms: C_15  and  C_26
REMARK    7  A    between atoms: C_19  and  C_20
REMARK                            x       y       z     vdW  Elec       q    Type
REMARK                         _______ _______ _______ _____ _____    ______ ____
ROOT
ATOM      1  N   UNL     1       3.808   5.414  18.172  0.00  0.00    +0.000 NA
ATOM      2  H   UNL     1       3.024   5.246  17.541  0.00  0.00    +0.000 HD
ENDROOT
BRANCH   1   6
ATOM      3  N   UNL     1       6.308   4.407  15.741  0.00  0.00    +0.000 NA
ATOM      4  C   UNL     1       6.630   5.256  16.931  0.00  0.00    +0.000 C 
ATOM      5  C   UNL     1       6.162   4.622  18.237  0.00  0.00    +0.000 C 
ATOM      6  C   UNL     1       4.679   4.216  18.212  0.00  0.00    +0.000 C 
ATOM      7  C   UNL     1       4.509   3.252  17.034  0.00  0.00    +0.000 C 
ATOM      8  C   UNL     1       4.906   3.895  15.713  0.00  0.00    +0.000 C 
BRANCH   3  10
ATOM      9  O   UNL     1       8.151   5.336  14.212  0.00  0.00    +0.000 OA
ATOM     10  S   UNL     1       6.708   5.174  14.235  0.00  0.00    +0.000 S 
ATOM     11  O   UNL     1       5.819   6.306  14.068  0.00  0.00    +0.000 OA
BRANCH  10  12
ATOM     12  C   UNL     1       6.246   3.971  13.021  0.00  0.00    +0.000 A 
ATOM     13  C   UNL     1       7.239   3.163  12.460  0.00  0.00    +0.000 A 
ATOM     14  C   UNL     1       6.886   2.195  11.520  0.00  0.00    +0.000 A 
ATOM     15  C   UNL     1       5.550   2.033  11.152  0.00  0.00    +0.000 A 
ATOM     16  C   UNL     1       4.559   2.831  11.730  0.00  0.00    +0.000 A 
ATOM     17  C   UNL     1       4.903   3.803  12.671  0.00  0.00    +0.000 A 
ENDBRANCH  10  12
ENDBRANCH   3  10
ENDBRANCH   1   6
BRANCH   1  18
ATOM     18  C   UNL     1       3.238   5.824  19.488  0.00  0.00    +0.000 C 
BRANCH  18  19
ATOM     19  C   UNL     1       2.411   7.104  19.384  0.00  0.00    +0.000 A 
ATOM     20  C   UNL     1       2.310   7.793  18.163  0.00  0.00    +0.000 A 
ATOM     21  C   UNL     1       1.638   9.010  18.086  0.00  0.00    +0.000 A 
ATOM     22  C   UNL     1       1.050   9.570  19.228  0.00  0.00    +0.000 A 
ATOM     23  C   UNL     1       1.070   8.842  20.428  0.00  0.00    +0.000 A 
ATOM     24  C   UNL     1       1.743   7.619  20.504  0.00  0.00    +0.000 A 
BRANCH  22  25
ATOM     25  C   UNL     1       0.452  10.953  19.184  0.00  0.00    +0.000 C 
ATOM     26  F   UNL     1       1.372  11.936  18.973  0.00  0.00    +0.000 F 
ATOM     27  F   UNL     1      -0.484  11.099  18.207  0.00  0.00    +0.000 F 
ATOM     28  F   UNL     1      -0.171  11.279  20.352  0.00  0.00    +0.000 F 
ENDBRANCH  22  25
ENDBRANCH  18  19
BRANCH  18  29
ATOM     29  C   UNL     1       2.408   4.730  20.168  0.00  0.00    +0.000 A 
ATOM     30  C   UNL     1       2.705   4.277  21.452  0.00  0.00    +0.000 A 
ATOM     31  N   UNL     1       2.072   3.231  22.039  0.00  0.00    +0.000 NA
ATOM     32  C   UNL     1       1.128   2.634  21.281  0.00  0.00    +0.000 A 
ATOM     33  C   UNL     1       0.811   3.075  20.009  0.00  0.00    +0.000 A 
ATOM     34  N   UNL     1       1.429   4.132  19.431  0.00  0.00    +0.000 NA
ENDBRANCH  18  29
ENDBRANCH   1  18
TORSDOF 7
ENDMDL
MODEL 6
REMARK VINA RESULT:      -8.1      0.605      1.180
REMARK  Name = 
REMARK  7 active torsions:
REMARK  status: ('A' for Active; 'I' for Inactive)
REMARK    1  A    between atoms: S_2  and  C_4
REMARK    2  A    between atoms: S_2  and  N_10
REMARK    3  A    between atoms: C_13  and  N_14
REMARK    4  A    between atoms: N_14  and  C_15
REMARK    5  A    between atoms: C_15  and  C_16
REMARK    6  A    between atoms: C_15  and  C_26
REMARK    7  A    between atoms: C_19  and  C_20
REMARK                            x       y       z     vdW  Elec       q    Type
REMARK                         _______ _______ _______ _____ _____    ______ ____
ROOT
ATOM      1  N   UNL     1       4.240   5.622  18.170  0.00  0.00    +0.000 NA
ATOM      2  H   UNL     1       3.570   5.647  17.401  0.00  0.00    +0.000 HD
ENDROOT
BRANCH   1   6
ATOM      3  N   UNL     1       6.439   4.356  15.574  0.00  0.00    +0.000 NA
ATOM      4  C   UNL     1       6.935   5.153  16.739  0.00  0.00    +0.000 C 
ATOM      5  C   UNL     1       6.487   4.567  18.075  0.00  0.00    +0.000 C 
ATOM      6  C   UNL     1       4.970   4.333  18.150  0.00  0.00    +0.000 C 
ATOM      7  C   UNL     1       4.612   3.403  16.988  0.00  0.00    +0.000 C 
ATOM      8  C   UNL     1       4.989   4.006  15.642  0.00  0.00    +0.000 C 
BRANCH   3  10
ATOM      9  O   UNL     1       8.264   5.246  14.001  0.00  0.00    +0.000 OA
ATOM     10  S   UNL     1       6.822   5.083  14.044  0.00  0.00    +0.000 S 
ATOM     11  O   UNL     1       5.929   6.210  13.859  0.00  0.00    +0.000 OA
BRANCH  10  12
ATOM     12  C   UNL     1       6.346   3.849  12.868  0.00  0.00    +0.000 A 
ATOM     13  C   UNL     1       7.331   3.015  12.331  0.00  0.00    +0.000 A 
ATOM     14  C   UNL     1       6.969   2.023  11.420  0.00  0.00    +0.000 A 
ATOM     15  C   UNL     1       5.631   1.862  11.059  0.00  0.00    +0.000 A 
ATOM     16  C   UNL     1       4.647   2.686  11.613  0.00  0.00    +0.000 A 
ATOM     17  C   UNL     1       5.002   3.682  12.524  0.00  0.00    +0.000 A 
ENDBRANCH  10  12
ENDBRANCH   3  10
ENDBRANCH   1   6
BRANCH   1  18
ATOM     18  C   UNL     1       3.485   5.902  19.426  0.00  0.00    +0.000 C 
BRANCH  18  19
ATOM     19  C   UNL     1       2.618   7.154  19.309  0.00  0.00    +0.000 A 
ATOM     20  C   UNL     1       1.924   7.649  20.425  0.00  0.00    +0.000 A 
ATOM     21  C   UNL     1       1.057   8.733  20.301  0.00  0.00    +0.000 A 
ATOM     22  C   UNL     1       0.862   9.347  19.058  0.00  0.00    +0.000 A 
ATOM     23  C   UNL     1       1.621   8.912  17.960  0.00  0.00    +0.000 A 
ATOM     24  C   UNL     1       2.493   7.827  18.085  0.00  0.00    +0.000 A 
BRANCH  22  25
ATOM     25  C   UNL     1      -0.184  10.420  18.886  0.00  0.00    +0.000 C 
ATOM     26  F   UNL     1      -1.162  10.381  19.834  0.00  0.00    +0.000 F 
ATOM     27  F   UNL     1       0.332  11.678  18.929  0.00  0.00    +0.000 F 
ATOM     28  F   UNL     1      -0.830  10.319  17.690  0.00  0.00    +0.000 F 
ENDBRANCH  22  25
ENDBRANCH  18  19
BRANCH  18  29
ATOM     29  C   UNL     1       2.628   4.725  19.903  0.00  0.00    +0.000 A 
ATOM     30  C   UNL     1       1.631   4.173  19.101  0.00  0.00    +0.000 A 
ATOM     31  N   UNL     1       0.774   3.214  19.532  0.00  0.00    +0.000 NA
ATOM     32  C   UNL     1       0.940   2.830  20.816  0.00  0.00    +0.000 A 
ATOM     33  C   UNL     1       1.930   3.358  21.624  0.00  0.00    +0.000 A 
ATOM     34  N   UNL     1       2.798   4.301  21.188  0.00  0.00    +0.000 NA
ENDBRANCH  18  29
ENDBRANCH   1  18
TORSDOF 7
ENDMDL
MODEL 7
REMARK VINA RESULT:      -8.0      0.540      1.247
REMARK  Name = 
REMARK  7 active torsions:
REMARK  status: ('A' for Active; 'I' for Inactive)
REMARK    1  A    between atoms: S_2  and  C_4
REMARK    2  A    between atoms: S_2  and  N_10
REMARK    3  A    between atoms: C_13  and  N_14
REMARK    4  A    between atoms: N_14  and  C_15
REMARK    5  A    between atoms: C_15  and  C_16
REMARK    6  A    between atoms: C_15  and  C_26
REMARK    7  A    between atoms: C_19  and  C_20
REMARK                            x       y       z     vdW  Elec       q    Type
REMARK                         _______ _______ _______ _____ _____    ______ ____
ROOT
ATOM      1  N   UNL     1       4.579   5.536  19.080  0.00  0.00    +0.000 NA
ATOM      2  H   UNL     1       4.359   5.983  18.190  0.00  0.00    +0.000 HD
ENDROOT
BRANCH   1   6
ATOM      3  N   UNL     1       6.330   4.453  16.091  0.00  0.00    +0.000 NA
ATOM      4  C   UNL     1       7.025   5.100  17.249  0.00  0.00    +0.000 C 
ATOM      5  C   UNL     1       6.726   4.396  18.569  0.00  0.00    +0.000 C 
ATOM      6  C   UNL     1       5.221   4.224  18.832  0.00  0.00    +0.000 C 
ATOM      7  C   UNL     1       4.656   3.441  17.645  0.00  0.00    +0.000 C 
ATOM      8  C   UNL     1       4.884   4.165  16.326  0.00  0.00    +0.000 C 
BRANCH   3  10
ATOM      9  O   UNL     1       7.955   5.664  14.513  0.00  0.00    +0.000 OA
ATOM     10  S   UNL     1       6.547   5.320  14.602  0.00  0.00    +0.000 S 
ATOM     11  O   UNL     1       5.516   6.337  14.533  0.00  0.00    +0.000 OA
BRANCH  10  12
ATOM     12  C   UNL     1       6.167   4.116  13.362  0.00  0.00    +0.000 A 
ATOM     13  C   UNL     1       4.828   3.881  13.038  0.00  0.00    +0.000 A 
ATOM     14  C   UNL     1       4.515   2.952  12.047  0.00  0.00    +0.000 A 
ATOM     15  C   UNL     1       5.534   2.272  11.379  0.00  0.00    +0.000 A 
ATOM     16  C   UNL     1       6.872   2.525  11.693  0.00  0.00    +0.000 A 
ATOM     17  C   UNL     1       7.195   3.452  12.685  0.00  0.00    +0.000 A 
ENDBRANCH  10  12
ENDBRANCH   3  10
ENDBRANCH   1   6
BRANCH   1  18
ATOM     18  C   UNL     1       3.316   5.482  19.873  0.00  0.00    +0.000 C 
BRANCH  18  19
ATOM     19  C   UNL     1       2.517   6.779  19.772  0.00  0.00    +0.000 A 
ATOM     20  C   UNL     1       2.548   7.549  18.597  0.00  0.00    +0.000 A 
ATOM     21  C   UNL     1       1.899   8.780  18.535  0.00  0.00    +0.000 A 
ATOM     22  C   UNL     1       1.203   9.272  19.646  0.00  0.00    +0.000 A 
ATOM     23  C   UNL     1       1.094   8.467  20.791  0.00  0.00    +0.000 A 
ATOM     24  C   UNL     1       1.744   7.231  20.852  0.00  0.00    +0.000 A 
BRANCH  22  25
ATOM     25  C   UNL     1       0.627  10.666  19.636  0.00  0.00    +0.000 C 
ATOM     26  F   UNL     1       1.149  11.477  20.599  0.00  0.00    +0.000 F 
ATOM     27  F   UNL     1       0.819  11.314  18.456  0.00  0.00    +0.000 F 
ATOM     28  F   UNL     1      -0.720  10.665  19.850  0.00  0.00    +0.000 F 
ENDBRANCH  22  25
ENDBRANCH  18  19
BRANCH  18  29
ATOM     29  C   UNL     1       2.416   4.294  19.517  0.00  0.00    +0.000 A 
ATOM     30  C   UNL     1       1.642   4.284  18.358  0.00  0.00    +0.000 A 
ATOM     31  N   UNL     1       0.745   3.309  18.069  0.00  0.00    +0.000 NA
ATOM     32  C   UNL     1       0.636   2.336  18.999  0.00  0.00    +0.000 A 
ATOM     33  C   UNL     1       1.404   2.322  20.150  0.00  0.00    +0.000 A 
ATOM     34  N   UNL     1       2.313   3.285  20.428  0.00  0.00    +0.000 NA
ENDBRANCH  18  29
ENDBRANCH   1  18
TORSDOF 7
ENDMDL
MODEL 8
REMARK VINA RESULT:      -7.8      7.299     11.310
REMARK  Name = 
REMARK  7 active torsions:
REMARK  status: ('A' for Active; 'I' for Inactive)
REMARK    1  A    between atoms: S_2  and  C_4
REMARK    2  A    between atoms: S_2  and  N_10
REMARK    3  A    between atoms: C_13  and  N_14
REMARK    4  A    between atoms: N_14  and  C_15
REMARK    5  A    between atoms: C_15  and  C_16
REMARK    6  A    between atoms: C_15  and  C_26
REMARK    7  A    between atoms: C_19  and  C_20
REMARK                            x       y       z     vdW  Elec       q    Type
REMARK                         _______ _______ _______ _____ _____    ______ ____
ROOT
ATOM      1  N   UNL     1       0.515  12.221  19.690  0.00  0.00    +0.000 NA
ATOM      2  H   UNL     1      -0.389  12.393  20.129  0.00  0.00    +0.000 HD
ENDROOT
BRANCH   1   6
ATOM      3  N   UNL     1       0.265  15.476  21.275  0.00  0.00    +0.000 NA
ATOM      4  C   UNL     1       1.394  14.530  21.540  0.00  0.00    +0.000 C 
ATOM      5  C   UNL     1       2.076  14.068  20.256  0.00  0.00    +0.000 C 
ATOM      6  C   UNL     1       1.090  13.503  19.220  0.00  0.00    +0.000 C 
ATOM      7  C   UNL     1       0.068  14.607  18.940  0.00  0.00    +0.000 C 
ATOM      8  C   UNL     1      -0.672  15.029  20.202  0.00  0.00    +0.000 C 
BRANCH   3  10
ATOM      9  O   UNL     1      -1.327  17.134  22.421  0.00  0.00    +0.000 OA
ATOM     10  S   UNL     1      -0.611  15.904  22.712  0.00  0.00    +0.000 S 
ATOM     11  O   UNL     1       0.307  15.812  23.830  0.00  0.00    +0.000 OA
BRANCH  10  12
ATOM     12  C   UNL     1      -1.780  14.587  22.893  0.00  0.00    +0.000 A 
ATOM     13  C   UNL     1      -3.138  14.861  22.709  0.00  0.00    +0.000 A 
ATOM     14  C   UNL     1      -4.068  13.829  22.826  0.00  0.00    +0.000 A 
ATOM     15  C   UNL     1      -3.640  12.533  23.116  0.00  0.00    +0.000 A 
ATOM     16  C   UNL     1      -2.279  12.260  23.280  0.00  0.00    +0.000 A 
ATOM     17  C   UNL     1      -1.342  13.288  23.166  0.00  0.00    +0.000 A 
ENDBRANCH  10  12
ENDBRANCH   3  10
ENDBRANCH   1   6
BRANCH   1  18
ATOM     18  C   UNL     1       0.304  11.196  18.626  0.00  0.00    +0.000 C 
BRANCH  18  19
ATOM     19  C   UNL     1       1.013   9.881  18.944  0.00  0.00    +0.000 A 
ATOM     20  C   UNL     1       1.774   9.223  17.963  0.00  0.00    +0.000 A 
ATOM     21  C   UNL     1       2.341   7.977  18.220  0.00  0.00    +0.000 A 
ATOM     22  C   UNL     1       2.162   7.358  19.463  0.00  0.00    +0.000 A 
ATOM     23  C   UNL     1       1.479   8.051  20.475  0.00  0.00    +0.000 A 
ATOM     24  C   UNL     1       0.912   9.303  20.218  0.00  0.00    +0.000 A 
BRANCH  22  25
ATOM     25  C   UNL     1       2.645   5.949  19.697  0.00  0.00    +0.000 C 
ATOM     26  F   UNL     1       2.233   5.068  18.741  0.00  0.00    +0.000 F 
ATOM     27  F   UNL     1       4.002   5.850  19.737  0.00  0.00    +0.000 F 
ATOM     28  F   UNL     1       2.196   5.442  20.879  0.00  0.00    +0.000 F 
ENDBRANCH  22  25
ENDBRANCH  18  19
BRANCH  18  29
ATOM     29  C   UNL     1      -1.172  10.923  18.319  0.00  0.00    +0.000 A 
ATOM     30  C   UNL     1      -1.560   9.976  17.372  0.00  0.00    +0.000 A 
ATOM     31  N   UNL     1      -2.847   9.791  16.987  0.00  0.00    +0.000 NA
ATOM     32  C   UNL     1      -3.745  10.607  17.578  0.00  0.00    +0.000 A 
ATOM     33  C   UNL     1      -3.382  11.545  18.527  0.00  0.00    +0.000 A 
ATOM     34  N   UNL     1      -2.100  11.716  18.926  0.00  0.00    +0.000 NA
ENDBRANCH  18  29
ENDBRANCH   1  18
TORSDOF 7
ENDMDL
MODEL 9
REMARK VINA RESULT:      -7.8      7.218     11.309
REMARK  Name = 
REMARK  7 active torsions:
REMARK  status: ('A' for Active; 'I' for Inactive)
REMARK    1  A    between atoms: S_2  and  C_4
REMARK    2  A    between atoms: S_2  and  N_10
REMARK    3  A    between atoms: C_13  and  N_14
REMARK    4  A    between atoms: N_14  and  C_15
REMARK    5  A    between atoms: C_15  and  C_16
REMARK    6  A    between atoms: C_15  and  C_26
REMARK    7  A    between atoms: C_19  and  C_20
REMARK                            x       y       z     vdW  Elec       q    Type
REMARK                         _______ _______ _______ _____ _____    ______ ____
ROOT
ATOM      1  N   UNL     1       0.730  12.222  19.775  0.00  0.00    +0.000 NA
ATOM      2  H   UNL     1      -0.184  12.423  20.182  0.00  0.00    +0.000 HD
ENDROOT
BRANCH   1   6
ATOM      3  N   UNL     1       0.399  15.496  21.307  0.00  0.00    +0.000 NA
ATOM      4  C   UNL     1       1.478  14.530  21.684  0.00  0.00    +0.000 C 
ATOM      5  C   UNL     1       2.269  14.043  20.472  0.00  0.00    +0.000 C 
ATOM      6  C   UNL     1       1.372  13.488  19.353  0.00  0.00    +0.000 C 
ATOM      7  C   UNL     1       0.404  14.611  18.970  0.00  0.00    +0.000 C 
ATOM      8  C   UNL     1      -0.442  15.058  20.153  0.00  0.00    +0.000 C 
BRANCH   3  10
ATOM      9  O   UNL     1      -1.247  17.203  22.292  0.00  0.00    +0.000 OA
ATOM     10  S   UNL     1      -0.599  15.955  22.652  0.00  0.00    +0.000 S 
ATOM     11  O   UNL     1       0.204  15.840  23.853  0.00  0.00    +0.000 OA
BRANCH  10  12
ATOM     12  C   UNL     1      -1.817  14.672  22.721  0.00  0.00    +0.000 A 
ATOM     13  C   UNL     1      -1.432  13.401  23.156  0.00  0.00    +0.000 A 
ATOM     14  C   UNL     1      -2.386  12.386  23.237  0.00  0.00    +0.000 A 
ATOM     15  C   UNL     1      -3.713  12.647  22.895  0.00  0.00    +0.000 A 
ATOM     16  C   UNL     1      -4.096  13.925  22.480  0.00  0.00    +0.000 A 
ATOM     17  C   UNL     1      -3.148  14.945  22.394  0.00  0.00    +0.000 A 
ENDBRANCH  10  12
ENDBRANCH   3  10
ENDBRANCH   1   6
BRANCH   1  18
ATOM     18  C   UNL     1       0.521  11.225  18.685  0.00  0.00    +0.000 C 
BRANCH  18  19
ATOM     19  C   UNL     1       1.153   9.874  19.011  0.00  0.00    +0.000 A 
ATOM     20  C   UNL     1       1.933   9.200  18.057  0.00  0.00    +0.000 A 
ATOM     21  C   UNL     1       2.430   7.924  18.317  0.00  0.00    +0.000 A 
ATOM     22  C   UNL     1       2.159   7.291  19.536  0.00  0.00    +0.000 A 
ATOM     23  C   UNL     1       1.457   7.997  20.526  0.00  0.00    +0.000 A 
ATOM     24  C   UNL     1       0.960   9.277  20.266  0.00  0.00    +0.000 A 
BRANCH  22  25
ATOM     25  C   UNL     1       2.566   5.858  19.765  0.00  0.00    +0.000 C 
ATOM     26  F   UNL     1       3.915   5.666  19.746  0.00  0.00    +0.000 F 
ATOM     27  F   UNL     1       2.133   5.364  20.956  0.00  0.00    +0.000 F 
ATOM     28  F   UNL     1       2.066   5.025  18.809  0.00  0.00    +0.000 F 
ENDBRANCH  22  25
ENDBRANCH  18  19
BRANCH  18  29
ATOM     29  C   UNL     1      -0.950  11.027  18.306  0.00  0.00    +0.000 A 
ATOM     30  C   UNL     1      -1.970  11.748  18.926  0.00  0.00    +0.000 A 
ATOM     31  N   UNL     1      -3.287  11.516  18.705  0.00  0.00    +0.000 NA
ATOM     32  C   UNL     1      -3.557  10.513  17.841  0.00  0.00    +0.000 A 
ATOM     33  C   UNL     1      -2.560   9.795  17.207  0.00  0.00    +0.000 A 
ATOM     34  N   UNL     1      -1.244  10.039  17.413  0.00  0.00    +0.000 NA
ENDBRANCH  18  29
ENDBRANCH   1  18
TORSDOF 7
ENDMDL
