MODEL 1
REMARK VINA RESULT:      -8.1      0.000      0.000
REMARK  Name = 
REMARK  7 active torsions:
REMARK  status: ('A' for Active; 'I' for Inactive)
REMARK    1  A    between atoms: C_1  and  C_2
REMARK    2  A    between atoms: C_2  and  C_3
REMARK    3  A    between atoms: C_3  and  N_4
REMARK    4  A    between atoms: C_5  and  S_6
REMARK    5  A    between atoms: S_6  and  C_7
REMARK    6  A    between atoms: C_7  and  C_8
REMARK    7  A    between atoms: C_12  and  O_13
REMARK                            x       y       z     vdW  Elec       q    Type
REMARK                         _______ _______ _______ _____ _____    ______ ____
ROOT
ATOM      1  N   UNL     1       3.007   4.260  19.281  0.00  0.00    +0.000 N 
ATOM      2  C   UNL     1       3.436   4.750  18.050  0.00  0.00    +0.000 A 
ATOM      3  N   UNL     1       3.285   5.979  17.673  0.00  0.00    +0.000 NA
ATOM      4  C   UNL     1       2.619   6.869  18.523  0.00  0.00    +0.000 A 
ATOM      5  C   UNL     1       2.310   8.150  18.068  0.00  0.00    +0.000 A 
ATOM      6  C   UNL     1       1.610   9.048  18.881  0.00  0.00    +0.000 A 
ATOM      7  C   UNL     1       1.220   8.672  20.167  0.00  0.00    +0.000 A 
ATOM      8  C   UNL     1       1.536   7.401  20.637  0.00  0.00    +0.000 A 
ATOM      9  C   UNL     1       2.231   6.511  19.810  0.00  0.00    +0.000 A 
ATOM     10  C   UNL     1       2.525   5.145  20.250  0.00  0.00    +0.000 A 
ATOM     11  O   UNL     1       2.319   4.845  21.425  0.00  0.00    +0.000 OA
ENDROOT
BRANCH   1  12
ATOM     12  C   UNL     1       3.033   2.847  19.696  0.00  0.00    +0.000 C 
BRANCH  12  14
ATOM     13  C   UNL     1       0.588   2.624  18.977  0.00  0.00    +0.000 C 
ATOM     14  C   UNL     1       1.973   1.995  18.974  0.00  0.00    +0.000 C 
ENDBRANCH  12  14
ENDBRANCH   1  12
BRANCH   2  15
ATOM     15  S   UNL     1       4.223   3.647  16.928  0.00  0.00    +0.000 S 
BRANCH  15  16
ATOM     16  C   UNL     1       5.278   4.783  15.967  0.00  0.00    +0.000 C 
BRANCH  16  17
ATOM     17  C   UNL     1       6.245   5.509  16.875  0.00  0.00    +0.000 A 
ATOM     18  C   UNL     1       6.851   4.920  17.924  0.00  0.00    +0.000 A 
ATOM     19  C   UNL     1       7.775   5.707  18.761  0.00  0.00    +0.000 A 
ATOM     20  O   UNL     1       8.350   5.231  19.734  0.00  0.00    +0.000 OA
ATOM     21  C   UNL     1       7.983   7.127  18.387  0.00  0.00    +0.000 A 
ATOM     22  C   UNL     1       7.352   7.578  17.301  0.00  0.00    +0.000 A 
ATOM     23  O   UNL     1       6.509   6.828  16.510  0.00  0.00    +0.000 OA
BRANCH  21  24
ATOM     24  O   UNL     1       8.800   7.923  19.158  0.00  0.00    +0.000 OA
ATOM     25  H   UNL     1       8.922   7.429  19.996  0.00  0.00    +0.000 HD
ENDBRANCH  21  24
ENDBRANCH  16  17
ENDBRANCH  15  16
ENDBRANCH   2  15
TORSDOF 6
ENDMDL
MODEL 2
REMARK VINA RESULT:      -7.7      3.162      6.471
REMARK  Name = 
REMARK  7 active torsions:
REMARK  status: ('A' for Active; 'I' for Inactive)
REMARK    1  A    between atoms: C_1  and  C_2
REMARK    2  A    between atoms: C_2  and  C_3
REMARK    3  A    between atoms: C_3  and  N_4
REMARK    4  A    between atoms: C_5  and  S_6
REMARK    5  A    between atoms: S_6  and  C_7
REMARK    6  A    between atoms: C_7  and  C_8
REMARK    7  A    between atoms: C_12  and  O_13
REMARK                            x       y       z     vdW  Elec       q    Type
REMARK                         _______ _______ _______ _____ _____    ______ ____
ROOT
ATOM      1  N   UNL     1       2.372   4.546  18.627  0.00  0.00    +0.000 N 
ATOM      2  C   UNL     1       2.874   5.754  19.103  0.00  0.00    +0.000 A 
ATOM      3  N   UNL     1       3.943   6.320  18.643  0.00  0.00    +0.000 NA
ATOM      4  C   UNL     1       4.670   5.672  17.639  0.00  0.00    +0.000 A 
ATOM      5  C   UNL     1       5.905   6.188  17.245  0.00  0.00    +0.000 A 
ATOM      6  C   UNL     1       6.673   5.540  16.271  0.00  0.00    +0.000 A 
ATOM      7  C   UNL     1       6.205   4.370  15.674  0.00  0.00    +0.000 A 
ATOM      8  C   UNL     1       4.968   3.853  16.048  0.00  0.00    +0.000 A 
ATOM      9  C   UNL     1       4.213   4.509  17.028  0.00  0.00    +0.000 A 
ATOM     10  C   UNL     1       2.936   3.959  17.490  0.00  0.00    +0.000 A 
ATOM     11  O   UNL     1       2.442   3.015  16.877  0.00  0.00    +0.000 OA
ENDROOT
BRANCH   1  12
ATOM     12  C   UNL     1       1.243   3.800  19.208  0.00  0.00    +0.000 C 
BRANCH  12  14
ATOM     13  C   UNL     1       1.753   2.980  21.577  0.00  0.00    +0.000 C 
ATOM     14  C   UNL     1       1.697   2.628  20.098  0.00  0.00    +0.000 C 
ENDBRANCH  12  14
ENDBRANCH   1  12
BRANCH   2  15
ATOM     15  S   UNL     1       2.020   6.570  20.407  0.00  0.00    +0.000 S 
BRANCH  15  16
ATOM     16  C   UNL     1       1.661   8.194  19.660  0.00  0.00    +0.000 C 
BRANCH  16  17
ATOM     17  C   UNL     1       0.949   9.091  20.649  0.00  0.00    +0.000 A 
ATOM     18  C   UNL     1       0.968   8.877  21.979  0.00  0.00    +0.000 A 
ATOM     19  C   UNL     1       0.239   9.798  22.870  0.00  0.00    +0.000 A 
ATOM     20  O   UNL     1       0.211   9.652  24.088  0.00  0.00    +0.000 OA
ATOM     21  C   UNL     1      -0.482  10.926  22.232  0.00  0.00    +0.000 A 
ATOM     22  C   UNL     1      -0.388  11.048  20.907  0.00  0.00    +0.000 A 
ATOM     23  O   UNL     1       0.315  10.195  20.084  0.00  0.00    +0.000 OA
BRANCH  21  24
ATOM     24  O   UNL     1      -1.216  11.793  23.010  0.00  0.00    +0.000 OA
ATOM     25  H   UNL     1      -0.660  12.597  23.093  0.00  0.00    +0.000 HD
ENDBRANCH  21  24
ENDBRANCH  16  17
ENDBRANCH  15  16
ENDBRANCH   2  15
TORSDOF 6
ENDMDL
MODEL 3
REMARK VINA RESULT:      -7.6      3.042      6.047
REMARK  Name = 
REMARK  7 active torsions:
REMARK  status: ('A' for Active; 'I' for Inactive)
REMARK    1  A    between atoms: C_1  and  C_2
REMARK    2  A    between atoms: C_2  and  C_3
REMARK    3  A    between atoms: C_3  and  N_4
REMARK    4  A    between atoms: C_5  and  S_6
REMARK    5  A    between atoms: S_6  and  C_7
REMARK    6  A    between atoms: C_7  and  C_8
REMARK    7  A    between atoms: C_12  and  O_13
REMARK                            x       y       z     vdW  Elec       q    Type
REMARK                         _______ _______ _______ _____ _____    ______ ____
ROOT
ATOM      1  N   UNL     1       4.468   5.817  18.289  0.00  0.00    +0.000 N 
ATOM      2  C   UNL     1       3.309   6.568  18.473  0.00  0.00    +0.000 A 
ATOM      3  N   UNL     1       2.315   6.187  19.208  0.00  0.00    +0.000 NA
ATOM      4  C   UNL     1       2.373   4.932  19.825  0.00  0.00    +0.000 A 
ATOM      5  C   UNL     1       1.249   4.440  20.487  0.00  0.00    +0.000 A 
ATOM      6  C   UNL     1       1.266   3.173  21.080  0.00  0.00    +0.000 A 
ATOM      7  C   UNL     1       2.417   2.387  21.022  0.00  0.00    +0.000 A 
ATOM      8  C   UNL     1       3.550   2.873  20.376  0.00  0.00    +0.000 A 
ATOM      9  C   UNL     1       3.517   4.140  19.783  0.00  0.00    +0.000 A 
ATOM     10  C   UNL     1       4.670   4.657  19.042  0.00  0.00    +0.000 A 
ATOM     11  O   UNL     1       5.735   4.045  19.104  0.00  0.00    +0.000 OA
ENDROOT
BRANCH   1  12
ATOM     12  C   UNL     1       5.561   6.147  17.359  0.00  0.00    +0.000 C 
BRANCH  12  14
ATOM     13  C   UNL     1       5.788   4.329  15.572  0.00  0.00    +0.000 C 
ATOM     14  C   UNL     1       5.262   5.716  15.910  0.00  0.00    +0.000 C 
ENDBRANCH  12  14
ENDBRANCH   1  12
BRANCH   2  15
ATOM     15  S   UNL     1       3.172   8.124  17.665  0.00  0.00    +0.000 S 
BRANCH  15  16
ATOM     16  C   UNL     1       1.410   8.521  17.916  0.00  0.00    +0.000 C 
BRANCH  16  17
ATOM     17  C   UNL     1       1.248   9.576  18.989  0.00  0.00    +0.000 A 
ATOM     18  C   UNL     1       0.982   9.279  20.276  0.00  0.00    +0.000 A 
ATOM     19  C   UNL     1       0.833  10.372  21.254  0.00  0.00    +0.000 A 
ATOM     20  O   UNL     1       0.582  10.166  22.438  0.00  0.00    +0.000 OA
ATOM     21  C   UNL     1       0.989  11.757  20.748  0.00  0.00    +0.000 A 
ATOM     22  C   UNL     1       1.291  11.913  19.458  0.00  0.00    +0.000 A 
ATOM     23  O   UNL     1       1.452  10.884  18.556  0.00  0.00    +0.000 OA
BRANCH  21  24
ATOM     24  O   UNL     1       0.817  12.819  21.608  0.00  0.00    +0.000 OA
ATOM     25  H   UNL     1       1.553  12.749  22.253  0.00  0.00    +0.000 HD
ENDBRANCH  21  24
ENDBRANCH  16  17
ENDBRANCH  15  16
ENDBRANCH   2  15
TORSDOF 6
ENDMDL
MODEL 4
REMARK VINA RESULT:      -7.4      3.217      6.619
REMARK  Name = 
REMARK  7 active torsions:
REMARK  status: ('A' for Active; 'I' for Inactive)
REMARK    1  A    between atoms: C_1  and  C_2
REMARK    2  A    between atoms: C_2  and  C_3
REMARK    3  A    between atoms: C_3  and  N_4
REMARK    4  A    between atoms: C_5  and  S_6
REMARK    5  A    between atoms: S_6  and  C_7
REMARK    6  A    between atoms: C_7  and  C_8
REMARK    7  A    between atoms: C_12  and  O_13
REMARK                            x       y       z     vdW  Elec       q    Type
REMARK                         _______ _______ _______ _____ _____    ______ ____
ROOT
ATOM      1  N   UNL     1       2.247   4.494  18.694  0.00  0.00    +0.000 N 
ATOM      2  C   UNL     1       2.684   5.754  19.095  0.00  0.00    +0.000 A 
ATOM      3  N   UNL     1       3.716   6.351  18.593  0.00  0.00    +0.000 NA
ATOM      4  C   UNL     1       4.472   5.687  17.620  0.00  0.00    +0.000 A 
ATOM      5  C   UNL     1       5.673   6.247  17.185  0.00  0.00    +0.000 A 
ATOM      6  C   UNL     1       6.470   5.587  16.243  0.00  0.00    +0.000 A 
ATOM      7  C   UNL     1       6.064   4.360  15.718  0.00  0.00    +0.000 A 
ATOM      8  C   UNL     1       4.860   3.798  16.134  0.00  0.00    +0.000 A 
ATOM      9  C   UNL     1       4.077   4.467  17.082  0.00  0.00    +0.000 A 
ATOM     10  C   UNL     1       2.836   3.875  17.587  0.00  0.00    +0.000 A 
ATOM     11  O   UNL     1       2.391   2.871  17.034  0.00  0.00    +0.000 OA
ENDROOT
BRANCH   1  12
ATOM     12  C   UNL     1       1.165   3.722  19.328  0.00  0.00    +0.000 C 
BRANCH  12  14
ATOM     13  C   UNL     1       1.855   2.968  21.673  0.00  0.00    +0.000 C 
ATOM     14  C   UNL     1       1.690   2.576  20.213  0.00  0.00    +0.000 C 
ENDBRANCH  12  14
ENDBRANCH   1  12
BRANCH   2  15
ATOM     15  S   UNL     1       1.795   6.595  20.359  0.00  0.00    +0.000 S 
BRANCH  15  16
ATOM     16  C   UNL     1       1.729   8.295  19.701  0.00  0.00    +0.000 C 
BRANCH  16  17
ATOM     17  C   UNL     1       0.948   9.197  20.631  0.00  0.00    +0.000 A 
ATOM     18  C   UNL     1       0.755  10.508  20.391  0.00  0.00    +0.000 A 
ATOM     19  C   UNL     1      -0.013  11.315  21.357  0.00  0.00    +0.000 A 
ATOM     20  O   UNL     1      -0.215  12.515  21.199  0.00  0.00    +0.000 OA
ATOM     21  C   UNL     1      -0.536  10.616  22.556  0.00  0.00    +0.000 A 
ATOM     22  C   UNL     1      -0.309   9.305  22.654  0.00  0.00    +0.000 A 
ATOM     23  O   UNL     1       0.390   8.554  21.735  0.00  0.00    +0.000 OA
BRANCH  21  24
ATOM     24  O   UNL     1      -1.224  11.327  23.514  0.00  0.00    +0.000 OA
ATOM     25  H   UNL     1      -1.383  12.208  23.113  0.00  0.00    +0.000 HD
ENDBRANCH  21  24
ENDBRANCH  16  17
ENDBRANCH  15  16
ENDBRANCH   2  15
TORSDOF 6
ENDMDL
MODEL 5
REMARK VINA RESULT:      -7.4      3.509      6.714
REMARK  Name = 
REMARK  7 active torsions:
REMARK  status: ('A' for Active; 'I' for Inactive)
REMARK    1  A    between atoms: C_1  and  C_2
REMARK    2  A    between atoms: C_2  and  C_3
REMARK    3  A    between atoms: C_3  and  N_4
REMARK    4  A    between atoms: C_5  and  S_6
REMARK    5  A    between atoms: S_6  and  C_7
REMARK    6  A    between atoms: C_7  and  C_8
REMARK    7  A    between atoms: C_12  and  O_13
REMARK                            x       y       z     vdW  Elec       q    Type
REMARK                         _______ _______ _______ _____ _____    ______ ____
ROOT
ATOM      1  N   UNL     1       2.256   5.061  19.088  0.00  0.00    +0.000 N 
ATOM      2  C   UNL     1       2.620   6.405  19.076  0.00  0.00    +0.000 A 
ATOM      3  N   UNL     1       3.498   6.905  18.268  0.00  0.00    +0.000 NA
ATOM      4  C   UNL     1       4.159   6.052  17.378  0.00  0.00    +0.000 A 
ATOM      5  C   UNL     1       5.216   6.544  16.613  0.00  0.00    +0.000 A 
ATOM      6  C   UNL     1       5.921   5.704  15.744  0.00  0.00    +0.000 A 
ATOM      7  C   UNL     1       5.565   4.361  15.624  0.00  0.00    +0.000 A 
ATOM      8  C   UNL     1       4.502   3.862  16.371  0.00  0.00    +0.000 A 
ATOM      9  C   UNL     1       3.810   4.712  17.242  0.00  0.00    +0.000 A 
ATOM     10  C   UNL     1       2.727   4.205  18.088  0.00  0.00    +0.000 A 
ATOM     11  O   UNL     1       2.306   3.067  17.892  0.00  0.00    +0.000 OA
ENDROOT
BRANCH   1  12
ATOM     12  C   UNL     1       1.367   4.424  20.075  0.00  0.00    +0.000 C 
BRANCH  12  14
ATOM     13  C   UNL     1       1.702   2.533  21.765  0.00  0.00    +0.000 C 
ATOM     14  C   UNL     1       2.121   3.927  21.323  0.00  0.00    +0.000 C 
ENDBRANCH  12  14
ENDBRANCH   1  12
BRANCH   2  15
ATOM     15  S   UNL     1       1.855   7.499  20.222  0.00  0.00    +0.000 S 
BRANCH  15  16
ATOM     16  C   UNL     1       1.523   8.959  19.181  0.00  0.00    +0.000 C 
BRANCH  16  17
ATOM     17  C   UNL     1       0.575   9.908  19.879  0.00  0.00    +0.000 A 
ATOM     18  C   UNL     1       0.592  10.116  21.210  0.00  0.00    +0.000 A 
ATOM     19  C   UNL     1      -0.374  11.055  21.808  0.00  0.00    +0.000 A 
ATOM     20  O   UNL     1      -0.414  11.280  23.014  0.00  0.00    +0.000 OA
ATOM     21  C   UNL     1      -1.324  11.725  20.887  0.00  0.00    +0.000 A 
ATOM     22  C   UNL     1      -1.210  11.462  19.584  0.00  0.00    +0.000 A 
ATOM     23  O   UNL     1      -0.287  10.601  19.031  0.00  0.00    +0.000 OA
BRANCH  21  24
ATOM     24  O   UNL     1      -2.278  12.579  21.394  0.00  0.00    +0.000 OA
ATOM     25  H   UNL     1      -2.499  13.185  20.655  0.00  0.00    +0.000 HD
ENDBRANCH  21  24
ENDBRANCH  16  17
ENDBRANCH  15  16
ENDBRANCH   2  15
TORSDOF 6
ENDMDL
MODEL 6
REMARK VINA RESULT:      -7.4      0.767      1.355
REMARK  Name = 
REMARK  7 active torsions:
REMARK  status: ('A' for Active; 'I' for Inactive)
REMARK    1  A    between atoms: C_1  and  C_2
REMARK    2  A    between atoms: C_2  and  C_3
REMARK    3  A    between atoms: C_3  and  N_4
REMARK    4  A    between atoms: C_5  and  S_6
REMARK    5  A    between atoms: S_6  and  C_7
REMARK    6  A    between atoms: C_7  and  C_8
REMARK    7  A    between atoms: C_12  and  O_13
REMARK                            x       y       z     vdW  Elec       q    Type
REMARK                         _______ _______ _______ _____ _____    ______ ____
ROOT
ATOM      1  N   UNL     1       2.923   4.133  19.433  0.00  0.00    +0.000 N 
ATOM      2  C   UNL     1       3.341   4.523  18.163  0.00  0.00    +0.000 A 
ATOM      3  N   UNL     1       3.225   5.729  17.707  0.00  0.00    +0.000 NA
ATOM      4  C   UNL     1       2.609   6.697  18.508  0.00  0.00    +0.000 A 
ATOM      5  C   UNL     1       2.334   7.955  17.974  0.00  0.00    +0.000 A 
ATOM      6  C   UNL     1       1.683   8.930  18.738  0.00  0.00    +0.000 A 
ATOM      7  C   UNL     1       1.309   8.655  20.053  0.00  0.00    +0.000 A 
ATOM      8  C   UNL     1       1.591   7.407  20.602  0.00  0.00    +0.000 A 
ATOM      9  C   UNL     1       2.236   6.440  19.824  0.00  0.00    +0.000 A 
ATOM     10  C   UNL     1       2.492   5.097  20.349  0.00  0.00    +0.000 A 
ATOM     11  O   UNL     1       2.302   4.883  21.545  0.00  0.00    +0.000 OA
ENDROOT
BRANCH   1  12
ATOM     12  C   UNL     1       2.909   2.751  19.941  0.00  0.00    +0.000 C 
BRANCH  12  14
ATOM     13  C   UNL     1       0.502   2.588  19.090  0.00  0.00    +0.000 C 
ATOM     14  C   UNL     1       1.835   1.877  19.265  0.00  0.00    +0.000 C 
ENDBRANCH  12  14
ENDBRANCH   1  12
BRANCH   2  15
ATOM     15  S   UNL     1       4.065   3.321  17.103  0.00  0.00    +0.000 S 
BRANCH  15  16
ATOM     16  C   UNL     1       5.070   4.360  15.991  0.00  0.00    +0.000 C 
BRANCH  16  17
ATOM     17  C   UNL     1       6.005   5.243  16.787  0.00  0.00    +0.000 A 
ATOM     18  C   UNL     1       6.154   6.560  16.546  0.00  0.00    +0.000 A 
ATOM     19  C   UNL     1       7.095   7.344  17.367  0.00  0.00    +0.000 A 
ATOM     20  O   UNL     1       7.281   8.544  17.191  0.00  0.00    +0.000 OA
ATOM     21  C   UNL     1       7.833   6.617  18.428  0.00  0.00    +0.000 A 
ATOM     22  C   UNL     1       7.565   5.320  18.589  0.00  0.00    +0.000 A 
ATOM     23  O   UNL     1       6.665   4.601  17.833  0.00  0.00    +0.000 OA
BRANCH  21  24
ATOM     24  O   UNL     1       8.758   7.288  19.197  0.00  0.00    +0.000 OA
ATOM     25  H   UNL     1       8.419   7.229  20.115  0.00  0.00    +0.000 HD
ENDBRANCH  21  24
ENDBRANCH  16  17
ENDBRANCH  15  16
ENDBRANCH   2  15
TORSDOF 6
ENDMDL
MODEL 7
REMARK VINA RESULT:      -7.3      3.650      6.904
REMARK  Name = 
REMARK  7 active torsions:
REMARK  status: ('A' for Active; 'I' for Inactive)
REMARK    1  A    between atoms: C_1  and  C_2
REMARK    2  A    between atoms: C_2  and  C_3
REMARK    3  A    between atoms: C_3  and  N_4
REMARK    4  A    between atoms: C_5  and  S_6
REMARK    5  A    between atoms: S_6  and  C_7
REMARK    6  A    between atoms: C_7  and  C_8
REMARK    7  A    between atoms: C_12  and  O_13
REMARK                            x       y       z     vdW  Elec       q    Type
REMARK                         _______ _______ _______ _____ _____    ______ ____
ROOT
ATOM      1  N   UNL     1       4.166   6.129  18.349  0.00  0.00    +0.000 N 
ATOM      2  C   UNL     1       2.935   6.743  18.573  0.00  0.00    +0.000 A 
ATOM      3  N   UNL     1       1.995   6.225  19.295  0.00  0.00    +0.000 NA
ATOM      4  C   UNL     1       2.193   4.958  19.855  0.00  0.00    +0.000 A 
ATOM      5  C   UNL     1       1.135   4.319  20.500  0.00  0.00    +0.000 A 
ATOM      6  C   UNL     1       1.293   3.036  21.035  0.00  0.00    +0.000 A 
ATOM      7  C   UNL     1       2.521   2.382  20.936  0.00  0.00    +0.000 A 
ATOM      8  C   UNL     1       3.589   3.015  20.307  0.00  0.00    +0.000 A 
ATOM      9  C   UNL     1       3.414   4.296  19.771  0.00  0.00    +0.000 A 
ATOM     10  C   UNL     1       4.498   4.965  19.048  0.00  0.00    +0.000 A 
ATOM     11  O   UNL     1       5.623   4.469  19.077  0.00  0.00    +0.000 OA
ENDROOT
BRANCH   1  12
ATOM     12  C   UNL     1       5.208   6.615  17.429  0.00  0.00    +0.000 C 
BRANCH  12  14
ATOM     13  C   UNL     1       6.086   5.031  15.622  0.00  0.00    +0.000 C 
ATOM     14  C   UNL     1       5.041   6.070  15.998  0.00  0.00    +0.000 C 
ENDBRANCH  12  14
ENDBRANCH   1  12
BRANCH   2  15
ATOM     15  S   UNL     1       2.624   8.309  17.836  0.00  0.00    +0.000 S 
BRANCH  15  16
ATOM     16  C   UNL     1       1.817   9.210  19.201  0.00  0.00    +0.000 C 
BRANCH  16  17
ATOM     17  C   UNL     1       0.559   9.897  18.716  0.00  0.00    +0.000 A 
ATOM     18  C   UNL     1      -0.251   9.369  17.778  0.00  0.00    +0.000 A 
ATOM     19  C   UNL     1      -1.453  10.112  17.359  0.00  0.00    +0.000 A 
ATOM     20  O   UNL     1      -2.225   9.689  16.504  0.00  0.00    +0.000 OA
ATOM     21  C   UNL     1      -1.700  11.421  18.012  0.00  0.00    +0.000 A 
ATOM     22  C   UNL     1      -0.841  11.812  18.955  0.00  0.00    +0.000 A 
ATOM     23  O   UNL     1       0.267  11.099  19.357  0.00  0.00    +0.000 OA
BRANCH  21  24
ATOM     24  O   UNL     1      -2.784  12.180  17.629  0.00  0.00    +0.000 OA
ATOM     25  H   UNL     1      -3.342  12.253  18.432  0.00  0.00    +0.000 HD
ENDBRANCH  21  24
ENDBRANCH  16  17
ENDBRANCH  15  16
ENDBRANCH   2  15
TORSDOF 6
ENDMDL
MODEL 8
REMARK VINA RESULT:      -7.3      3.693      6.733
REMARK  Name = 
REMARK  7 active torsions:
REMARK  status: ('A' for Active; 'I' for Inactive)
REMARK    1  A    between atoms: C_1  and  C_2
REMARK    2  A    between atoms: C_2  and  C_3
REMARK    3  A    between atoms: C_3  and  N_4
REMARK    4  A    between atoms: C_5  and  S_6
REMARK    5  A    between atoms: S_6  and  C_7
REMARK    6  A    between atoms: C_7  and  C_8
REMARK    7  A    between atoms: C_12  and  O_13
REMARK                            x       y       z     vdW  Elec       q    Type
REMARK                         _______ _______ _______ _____ _____    ______ ____
ROOT
ATOM      1  N   UNL     1       2.502   5.219  18.731  0.00  0.00    +0.000 N 
ATOM      2  C   UNL     1       2.847   6.542  18.466  0.00  0.00    +0.000 A 
ATOM      3  N   UNL     1       3.763   6.891  17.622  0.00  0.00    +0.000 NA
ATOM      4  C   UNL     1       4.487   5.892  16.961  0.00  0.00    +0.000 A 
ATOM      5  C   UNL     1       5.580   6.246  16.171  0.00  0.00    +0.000 A 
ATOM      6  C   UNL     1       6.346   5.266  15.530  0.00  0.00    +0.000 A 
ATOM      7  C   UNL     1       6.016   3.918  15.667  0.00  0.00    +0.000 A 
ATOM      8  C   UNL     1       4.918   3.553  16.441  0.00  0.00    +0.000 A 
ATOM      9  C   UNL     1       4.165   4.544  17.081  0.00  0.00    +0.000 A 
ATOM     10  C   UNL     1       3.042   4.192  17.953  0.00  0.00    +0.000 A 
ATOM     11  O   UNL     1       2.649   3.026  17.970  0.00  0.00    +0.000 OA
ENDROOT
BRANCH   1  12
ATOM     12  C   UNL     1       1.566   4.773  19.777  0.00  0.00    +0.000 C 
BRANCH  12  14
ATOM     13  C   UNL     1       1.906   3.021  21.610  0.00  0.00    +0.000 C 
ATOM     14  C   UNL     1       2.275   4.403  21.094  0.00  0.00    +0.000 C 
ENDBRANCH  12  14
ENDBRANCH   1  12
BRANCH   2  15
ATOM     15  S   UNL     1       2.002   7.826  19.323  0.00  0.00    +0.000 S 
BRANCH  15  16
ATOM     16  C   UNL     1       2.050   9.182  18.105  0.00  0.00    +0.000 C 
BRANCH  16  17
ATOM     17  C   UNL     1       0.872  10.112  18.295  0.00  0.00    +0.000 A 
ATOM     18  C   UNL     1       0.972  11.307  18.908  0.00  0.00    +0.000 A 
ATOM     19  C   UNL     1      -0.232  12.147  19.056  0.00  0.00    +0.000 A 
ATOM     20  O   UNL     1      -0.207  13.240  19.612  0.00  0.00    +0.000 OA
ATOM     21  C   UNL     1      -1.501  11.610  18.510  0.00  0.00    +0.000 A 
ATOM     22  C   UNL     1      -1.456  10.429  17.891  0.00  0.00    +0.000 A 
ATOM     23  O   UNL     1      -0.322   9.662  17.735  0.00  0.00    +0.000 OA
BRANCH  21  24
ATOM     24  O   UNL     1      -2.665  12.330  18.658  0.00  0.00    +0.000 OA
ATOM     25  H   UNL     1      -2.474  12.984  19.364  0.00  0.00    +0.000 HD
ENDBRANCH  21  24
ENDBRANCH  16  17
ENDBRANCH  15  16
ENDBRANCH   2  15
TORSDOF 6
ENDMDL
MODEL 9
REMARK VINA RESULT:      -7.3      3.624      6.682
REMARK  Name = 
REMARK  7 active torsions:
REMARK  status: ('A' for Active; 'I' for Inactive)
REMARK    1  A    between atoms: C_1  and  C_2
REMARK    2  A    between atoms: C_2  and  C_3
REMARK    3  A    between atoms: C_3  and  N_4
REMARK    4  A    between atoms: C_5  and  S_6
REMARK    5  A    between atoms: S_6  and  C_7
REMARK    6  A    between atoms: C_7  and  C_8
REMARK    7  A    between atoms: C_12  and  O_13
REMARK                            x       y       z     vdW  Elec       q    Type
REMARK                         _______ _______ _______ _____ _____    ______ ____
ROOT
ATOM      1  N   UNL     1       2.638   5.086  18.374  0.00  0.00    +0.000 N 
ATOM      2  C   UNL     1       3.030   6.416  18.242  0.00  0.00    +0.000 A 
ATOM      3  N   UNL     1       4.021   6.803  17.505  0.00  0.00    +0.000 NA
ATOM      4  C   UNL     1       4.777   5.839  16.830  0.00  0.00    +0.000 A 
ATOM      5  C   UNL     1       5.940   6.222  16.162  0.00  0.00    +0.000 A 
ATOM      6  C   UNL     1       6.737   5.274  15.512  0.00  0.00    +0.000 A 
ATOM      7  C   UNL     1       6.370   3.929  15.516  0.00  0.00    +0.000 A 
ATOM      8  C   UNL     1       5.205   3.536  16.167  0.00  0.00    +0.000 A 
ATOM      9  C   UNL     1       4.420   4.494  16.819  0.00  0.00    +0.000 A 
ATOM     10  C   UNL     1       3.221   4.107  17.566  0.00  0.00    +0.000 A 
ATOM     11  O   UNL     1       2.805   2.954  17.460  0.00  0.00    +0.000 OA
ENDROOT
BRANCH   1  12
ATOM     12  C   UNL     1       1.609   4.587  19.302  0.00  0.00    +0.000 C 
BRANCH  12  14
ATOM     13  C   UNL     1       1.419   3.047  21.336  0.00  0.00    +0.000 C 
ATOM     14  C   UNL     1       2.189   4.176  20.669  0.00  0.00    +0.000 C 
ENDBRANCH  12  14
ENDBRANCH   1  12
BRANCH   2  15
ATOM     15  S   UNL     1       2.142   7.653  19.123  0.00  0.00    +0.000 S 
BRANCH  15  16
ATOM     16  C   UNL     1       2.133   9.029  17.928  0.00  0.00    +0.000 C 
BRANCH  16  17
ATOM     17  C   UNL     1       0.995   9.982  18.220  0.00  0.00    +0.000 A 
ATOM     18  C   UNL     1      -0.293   9.688  17.959  0.00  0.00    +0.000 A 
ATOM     19  C   UNL     1      -1.339  10.680  18.269  0.00  0.00    +0.000 A 
ATOM     20  O   UNL     1      -2.528  10.475  18.046  0.00  0.00    +0.000 OA
ATOM     21  C   UNL     1      -0.896  11.966  18.861  0.00  0.00    +0.000 A 
ATOM     22  C   UNL     1       0.407  12.116  19.106  0.00  0.00    +0.000 A 
ATOM     23  O   UNL     1       1.374  11.173  18.836  0.00  0.00    +0.000 OA
BRANCH  21  24
ATOM     24  O   UNL     1      -1.824  12.947  19.131  0.00  0.00    +0.000 OA
ATOM     25  H   UNL     1      -1.328  13.791  19.072  0.00  0.00    +0.000 HD
ENDBRANCH  21  24
ENDBRANCH  16  17
ENDBRANCH  15  16
ENDBRANCH   2  15
TORSDOF 6
ENDMDL
