MODEL 1
REMARK VINA RESULT:      -8.0      0.000      0.000
REMARK  Name = 
REMARK  6 active torsions:
REMARK  status: ('A' for Active; 'I' for Inactive)
REMARK    1  A    between atoms: C_2  and  C_3
REMARK    2  A    between atoms: C_3  and  C_4
REMARK    3  A    between atoms: C_4  and  C_5
REMARK    4  A    between atoms: N_9  and  C_10
REMARK    5  A    between atoms: N_17  and  C_18
REMARK    6  A    between atoms: C_18  and  C_19
REMARK                            x       y       z     vdW  Elec       q    Type
REMARK                         _______ _______ _______ _____ _____    ______ ____
ROOT
ATOM      1  C   UNL     1       8.408   8.496  18.602  0.00  0.00    +0.000 C 
ENDROOT
BRANCH   1   3
ATOM      2  O   UNL     1       7.464   7.343  16.727  0.00  0.00    +0.000 OA
ATOM      3  C   UNL     1       7.883   7.262  17.879  0.00  0.00    +0.000 C 
ATOM      4  N   UNL     1       7.825   6.104  18.609  0.00  0.00    +0.000 N 
ATOM      5  H   UNL     1       8.194   6.066  19.547  0.00  0.00    +0.000 HD
BRANCH   4   6
ATOM      6  C   UNL     1       7.280   4.874  18.072  0.00  0.00    +0.000 C 
BRANCH   6   7
ATOM      7  C   UNL     1       5.776   4.856  18.182  0.00  0.00    +0.000 A 
ATOM      8  C   UNL     1       5.184   5.230  19.402  0.00  0.00    +0.000 A 
ATOM      9  C   UNL     1       3.795   5.270  19.543  0.00  0.00    +0.000 A 
ATOM     10  C   UNL     1       2.976   4.944  18.466  0.00  0.00    +0.000 A 
ATOM     11  C   UNL     1       3.546   4.571  17.249  0.00  0.00    +0.000 A 
ATOM     12  C   UNL     1       4.936   4.530  17.105  0.00  0.00    +0.000 A 
ATOM     13 CL   UNL     1       5.567   4.087  15.559  0.00  0.00    +0.000 Cl
ENDBRANCH   6   7
ENDBRANCH   4   6
ENDBRANCH   1   3
BRANCH   1  14
ATOM     14  C   UNL     1       8.459   9.784  17.778  0.00  0.00    +0.000 C 
BRANCH  14  15
ATOM     15  C   UNL     1       9.054  10.998  18.535  0.00  0.00    +0.000 C 
ATOM     16  C   UNL     1       9.487  10.543  19.946  0.00  0.00    +0.000 C 
ATOM     17  C   UNL     1      10.226  11.641  20.714  0.00  0.00    +0.000 C 
ATOM     18  C   UNL     1      11.396  12.154  19.891  0.00  0.00    +0.000 C 
ATOM     19  N   UNL     1      10.896  12.656  18.614  0.00  0.00    +0.000 N 
ATOM     20  C   UNL     1      10.217  11.669  17.766  0.00  0.00    +0.000 C 
BRANCH  19  21
ATOM     21  C   UNL     1      10.879  14.010  18.322  0.00  0.00    +0.000 A 
ATOM     22  C   UNL     1      10.322  14.942  19.200  0.00  0.00    +0.000 A 
ATOM     23  C   UNL     1      10.284  16.291  18.855  0.00  0.00    +0.000 A 
ATOM     24  N   UNL     1      10.777  16.785  17.701  0.00  0.00    +0.000 NA
ATOM     25  C   UNL     1      11.318  15.886  16.862  0.00  0.00    +0.000 A 
ATOM     26  C   UNL     1      11.389  14.522  17.124  0.00  0.00    +0.000 A 
ENDBRANCH  19  21
ENDBRANCH  14  15
ENDBRANCH   1  14
TORSDOF 6
ENDMDL
MODEL 2
REMARK VINA RESULT:      -7.9      7.472     10.128
REMARK  Name = 
REMARK  6 active torsions:
REMARK  status: ('A' for Active; 'I' for Inactive)
REMARK    1  A    between atoms: C_2  and  C_3
REMARK    2  A    between atoms: C_3  and  C_4
REMARK    3  A    between atoms: C_4  and  C_5
REMARK    4  A    between atoms: N_9  and  C_10
REMARK    5  A    between atoms: N_17  and  C_18
REMARK    6  A    between atoms: C_18  and  C_19
REMARK                            x       y       z     vdW  Elec       q    Type
REMARK                         _______ _______ _______ _____ _____    ______ ____
ROOT
ATOM      1  C   UNL     1       2.053   8.732  18.499  0.00  0.00    +0.000 C 
ENDROOT
BRANCH   1   3
ATOM      2  O   UNL     1       1.681  11.098  18.503  0.00  0.00    +0.000 OA
ATOM      3  C   UNL     1       1.187   9.980  18.621  0.00  0.00    +0.000 C 
ATOM      4  N   UNL     1      -0.128   9.781  18.952  0.00  0.00    +0.000 N 
ATOM      5  H   UNL     1      -0.508   8.850  19.024  0.00  0.00    +0.000 HD
BRANCH   4   6
ATOM      6  C   UNL     1      -1.048  10.880  19.172  0.00  0.00    +0.000 C 
BRANCH   6   7
ATOM      7  C   UNL     1      -2.127  10.898  18.120  0.00  0.00    +0.000 A 
ATOM      8  C   UNL     1      -1.930  10.163  16.937  0.00  0.00    +0.000 A 
ATOM      9  C   UNL     1      -2.916  10.114  15.949  0.00  0.00    +0.000 A 
ATOM     10  C   UNL     1      -4.117  10.793  16.130  0.00  0.00    +0.000 A 
ATOM     11  C   UNL     1      -4.330  11.527  17.297  0.00  0.00    +0.000 A 
ATOM     12  C   UNL     1      -3.345  11.577  18.288  0.00  0.00    +0.000 A 
ATOM     13 CL   UNL     1      -3.693  12.484  19.717  0.00  0.00    +0.000 Cl
ENDBRANCH   6   7
ENDBRANCH   4   6
ENDBRANCH   1   3
BRANCH   1  14
ATOM     14  C   UNL     1       1.967   7.743  19.663  0.00  0.00    +0.000 C 
BRANCH  14  15
ATOM     15  C   UNL     1       2.855   6.484  19.491  0.00  0.00    +0.000 C 
ATOM     16  C   UNL     1       2.189   5.300  20.226  0.00  0.00    +0.000 C 
ATOM     17  C   UNL     1       2.917   3.976  19.983  0.00  0.00    +0.000 C 
ATOM     18  C   UNL     1       3.055   3.723  18.491  0.00  0.00    +0.000 C 
ATOM     19  N   UNL     1       3.780   4.837  17.885  0.00  0.00    +0.000 N 
ATOM     20  C   UNL     1       3.140   6.152  18.007  0.00  0.00    +0.000 C 
BRANCH  19  21
ATOM     21  C   UNL     1       5.075   4.692  17.416  0.00  0.00    +0.000 A 
ATOM     22  C   UNL     1       6.179   4.825  18.260  0.00  0.00    +0.000 A 
ATOM     23  C   UNL     1       7.469   4.713  17.745  0.00  0.00    +0.000 A 
ATOM     24  N   UNL     1       7.741   4.463  16.449  0.00  0.00    +0.000 NA
ATOM     25  C   UNL     1       6.676   4.330  15.641  0.00  0.00    +0.000 A 
ATOM     26  C   UNL     1       5.357   4.434  16.070  0.00  0.00    +0.000 A 
ENDBRANCH  19  21
ENDBRANCH  14  15
ENDBRANCH   1  14
TORSDOF 6
ENDMDL
MODEL 3
REMARK VINA RESULT:      -7.9      7.586     10.297
REMARK  Name = 
REMARK  6 active torsions:
REMARK  status: ('A' for Active; 'I' for Inactive)
REMARK    1  A    between atoms: C_2  and  C_3
REMARK    2  A    between atoms: C_3  and  C_4
REMARK    3  A    between atoms: C_4  and  C_5
REMARK    4  A    between atoms: N_9  and  C_10
REMARK    5  A    between atoms: N_17  and  C_18
REMARK    6  A    between atoms: C_18  and  C_19
REMARK                            x       y       z     vdW  Elec       q    Type
REMARK                         _______ _______ _______ _____ _____    ______ ____
ROOT
ATOM      1  C   UNL     1       1.835   7.721  20.346  0.00  0.00    +0.000 C 
ENDROOT
BRANCH   1   3
ATOM      2  O   UNL     1       0.067   8.602  21.700  0.00  0.00    +0.000 OA
ATOM      3  C   UNL     1       0.817   8.782  20.744  0.00  0.00    +0.000 C 
ATOM      4  N   UNL     1       0.732   9.883  19.932  0.00  0.00    +0.000 N 
ATOM      5  H   UNL     1       1.375  10.010  19.165  0.00  0.00    +0.000 HD
BRANCH   4   6
ATOM      6  C   UNL     1      -0.240  10.935  20.149  0.00  0.00    +0.000 C 
BRANCH   6   7
ATOM      7  C   UNL     1      -1.305  10.915  19.082  0.00  0.00    +0.000 A 
ATOM      8  C   UNL     1      -1.149  10.041  17.990  0.00  0.00    +0.000 A 
ATOM      9  C   UNL     1      -2.126   9.955  16.996  0.00  0.00    +0.000 A 
ATOM     10  C   UNL     1      -3.276  10.734  17.079  0.00  0.00    +0.000 A 
ATOM     11  C   UNL     1      -3.447  11.605  18.154  0.00  0.00    +0.000 A 
ATOM     12  C   UNL     1      -2.471  11.694  19.152  0.00  0.00    +0.000 A 
ATOM     13 CL   UNL     1      -2.767  12.775  20.467  0.00  0.00    +0.000 Cl
ENDBRANCH   6   7
ENDBRANCH   4   6
ENDBRANCH   1   3
BRANCH   1  14
ATOM     14  C   UNL     1       1.444   6.273  20.646  0.00  0.00    +0.000 C 
BRANCH  14  15
ATOM     15  C   UNL     1       2.280   5.218  19.877  0.00  0.00    +0.000 C 
ATOM     16  C   UNL     1       1.435   3.937  19.709  0.00  0.00    +0.000 C 
ATOM     17  C   UNL     1       2.124   2.892  18.828  0.00  0.00    +0.000 C 
ATOM     18  C   UNL     1       2.506   3.508  17.493  0.00  0.00    +0.000 C 
ATOM     19  N   UNL     1       3.384   4.652  17.730  0.00  0.00    +0.000 N 
ATOM     20  C   UNL     1       2.803   5.744  18.519  0.00  0.00    +0.000 C 
BRANCH  19  21
ATOM     21  C   UNL     1       4.731   4.612  17.413  0.00  0.00    +0.000 A 
ATOM     22  C   UNL     1       5.718   4.811  18.380  0.00  0.00    +0.000 A 
ATOM     23  C   UNL     1       7.063   4.806  18.017  0.00  0.00    +0.000 A 
ATOM     24  N   UNL     1       7.501   4.601  16.759  0.00  0.00    +0.000 NA
ATOM     25  C   UNL     1       6.548   4.404  15.831  0.00  0.00    +0.000 A 
ATOM     26  C   UNL     1       5.185   4.401  16.106  0.00  0.00    +0.000 A 
ENDBRANCH  19  21
ENDBRANCH  14  15
ENDBRANCH   1  14
TORSDOF 6
ENDMDL
MODEL 4
REMARK VINA RESULT:      -7.9      1.292      1.599
REMARK  Name = 
REMARK  6 active torsions:
REMARK  status: ('A' for Active; 'I' for Inactive)
REMARK    1  A    between atoms: C_2  and  C_3
REMARK    2  A    between atoms: C_3  and  C_4
REMARK    3  A    between atoms: C_4  and  C_5
REMARK    4  A    between atoms: N_9  and  C_10
REMARK    5  A    between atoms: N_17  and  C_18
REMARK    6  A    between atoms: C_18  and  C_19
REMARK                            x       y       z     vdW  Elec       q    Type
REMARK                         _______ _______ _______ _____ _____    ______ ____
ROOT
ATOM      1  C   UNL     1       8.512   8.289  18.551  0.00  0.00    +0.000 C 
ENDROOT
BRANCH   1   3
ATOM      2  O   UNL     1       7.836   5.991  18.516  0.00  0.00    +0.000 OA
ATOM      3  C   UNL     1       7.680   7.116  18.048  0.00  0.00    +0.000 C 
ATOM      4  N   UNL     1       6.833   7.373  17.001  0.00  0.00    +0.000 N 
ATOM      5  H   UNL     1       6.715   8.311  16.650  0.00  0.00    +0.000 HD
BRANCH   4   6
ATOM      6  C   UNL     1       6.037   6.337  16.374  0.00  0.00    +0.000 C 
BRANCH   6   7
ATOM      7  C   UNL     1       4.715   6.172  17.080  0.00  0.00    +0.000 A 
ATOM      8  C   UNL     1       4.042   7.322  17.532  0.00  0.00    +0.000 A 
ATOM      9  C   UNL     1       2.796   7.226  18.155  0.00  0.00    +0.000 A 
ATOM     10  C   UNL     1       2.199   5.982  18.330  0.00  0.00    +0.000 A 
ATOM     11  C   UNL     1       2.851   4.831  17.888  0.00  0.00    +0.000 A 
ATOM     12  C   UNL     1       4.099   4.924  17.264  0.00  0.00    +0.000 A 
ATOM     13 CL   UNL     1       4.831   3.456  16.719  0.00  0.00    +0.000 Cl
ENDBRANCH   6   7
ENDBRANCH   4   6
ENDBRANCH   1   3
BRANCH   1  14
ATOM     14  C   UNL     1       8.366   9.597  17.772  0.00  0.00    +0.000 C 
BRANCH  14  15
ATOM     15  C   UNL     1       9.011  10.823  18.466  0.00  0.00    +0.000 C 
ATOM     16  C   UNL     1       9.330  10.457  19.932  0.00  0.00    +0.000 C 
ATOM     17  C   UNL     1      10.109  11.559  20.654  0.00  0.00    +0.000 C 
ATOM     18  C   UNL     1      11.358  11.915  19.865  0.00  0.00    +0.000 C 
ATOM     19  N   UNL     1      10.968  12.345  18.524  0.00  0.00    +0.000 N 
ATOM     20  C   UNL     1      10.261  11.343  17.718  0.00  0.00    +0.000 C 
BRANCH  19  21
ATOM     21  C   UNL     1      11.071  13.667  18.126  0.00  0.00    +0.000 A 
ATOM     22  C   UNL     1      12.251  14.179  17.583  0.00  0.00    +0.000 A 
ATOM     23  C   UNL     1      12.332  15.525  17.233  0.00  0.00    +0.000 A 
ATOM     24  N   UNL     1      11.316  16.400  17.370  0.00  0.00    +0.000 NA
ATOM     25  C   UNL     1      10.180  15.902  17.887  0.00  0.00    +0.000 A 
ATOM     26  C   UNL     1      10.016  14.575  18.270  0.00  0.00    +0.000 A 
ENDBRANCH  19  21
ENDBRANCH  14  15
ENDBRANCH   1  14
TORSDOF 6
ENDMDL
MODEL 5
REMARK VINA RESULT:      -7.7      7.302     10.134
REMARK  Name = 
REMARK  6 active torsions:
REMARK  status: ('A' for Active; 'I' for Inactive)
REMARK    1  A    between atoms: C_2  and  C_3
REMARK    2  A    between atoms: C_3  and  C_4
REMARK    3  A    between atoms: C_4  and  C_5
REMARK    4  A    between atoms: N_9  and  C_10
REMARK    5  A    between atoms: N_17  and  C_18
REMARK    6  A    between atoms: C_18  and  C_19
REMARK                            x       y       z     vdW  Elec       q    Type
REMARK                         _______ _______ _______ _____ _____    ______ ____
ROOT
ATOM      1  C   UNL     1       1.733   7.847  20.676  0.00  0.00    +0.000 C 
ENDROOT
BRANCH   1   3
ATOM      2  O   UNL     1       2.168   8.673  18.470  0.00  0.00    +0.000 OA
ATOM      3  C   UNL     1       1.493   8.775  19.492  0.00  0.00    +0.000 C 
ATOM      4  N   UNL     1       0.563   9.765  19.670  0.00  0.00    +0.000 N 
ATOM      5  H   UNL     1       0.013   9.812  20.514  0.00  0.00    +0.000 HD
BRANCH   4   6
ATOM      6  C   UNL     1       0.286  10.762  18.655  0.00  0.00    +0.000 C 
BRANCH   6   7
ATOM      7  C   UNL     1      -1.177  10.770  18.292  0.00  0.00    +0.000 A 
ATOM      8  C   UNL     1      -1.635   9.870  17.313  0.00  0.00    +0.000 A 
ATOM      9  C   UNL     1      -2.988   9.809  16.970  0.00  0.00    +0.000 A 
ATOM     10  C   UNL     1      -3.905  10.643  17.603  0.00  0.00    +0.000 A 
ATOM     11  C   UNL     1      -3.469  11.542  18.576  0.00  0.00    +0.000 A 
ATOM     12  C   UNL     1      -2.115  11.604  18.922  0.00  0.00    +0.000 A 
ATOM     13 CL   UNL     1      -1.656  12.724  20.155  0.00  0.00    +0.000 Cl
ENDBRANCH   6   7
ENDBRANCH   4   6
ENDBRANCH   1   3
BRANCH   1  14
ATOM     14  C   UNL     1       1.270   6.400  20.497  0.00  0.00    +0.000 C 
BRANCH  14  15
ATOM     15  C   UNL     1       2.415   5.402  20.186  0.00  0.00    +0.000 C 
ATOM     16  C   UNL     1       2.092   4.049  20.856  0.00  0.00    +0.000 C 
ATOM     17  C   UNL     1       3.093   2.955  20.477  0.00  0.00    +0.000 C 
ATOM     18  C   UNL     1       3.190   2.840  18.965  0.00  0.00    +0.000 C 
ATOM     19  N   UNL     1       3.595   4.131  18.414  0.00  0.00    +0.000 N 
ATOM     20  C   UNL     1       2.675   5.245  18.669  0.00  0.00    +0.000 C 
BRANCH  19  21
ATOM     21  C   UNL     1       4.855   4.329  17.875  0.00  0.00    +0.000 A 
ATOM     22  C   UNL     1       5.128   4.061  16.532  0.00  0.00    +0.000 A 
ATOM     23  C   UNL     1       6.418   4.231  16.034  0.00  0.00    +0.000 A 
ATOM     24  N   UNL     1       7.458   4.665  16.775  0.00  0.00    +0.000 NA
ATOM     25  C   UNL     1       7.190   4.927  18.065  0.00  0.00    +0.000 A 
ATOM     26  C   UNL     1       5.934   4.777  18.645  0.00  0.00    +0.000 A 
ENDBRANCH  19  21
ENDBRANCH  14  15
ENDBRANCH   1  14
TORSDOF 6
ENDMDL
MODEL 6
REMARK VINA RESULT:      -7.7      7.389     10.212
REMARK  Name = 
REMARK  6 active torsions:
REMARK  status: ('A' for Active; 'I' for Inactive)
REMARK    1  A    between atoms: C_2  and  C_3
REMARK    2  A    between atoms: C_3  and  C_4
REMARK    3  A    between atoms: C_4  and  C_5
REMARK    4  A    between atoms: N_9  and  C_10
REMARK    5  A    between atoms: N_17  and  C_18
REMARK    6  A    between atoms: C_18  and  C_19
REMARK                            x       y       z     vdW  Elec       q    Type
REMARK                         _______ _______ _______ _____ _____    ______ ____
ROOT
ATOM      1  C   UNL     1       1.253   8.307  20.974  0.00  0.00    +0.000 C 
ENDROOT
BRANCH   1   3
ATOM      2  O   UNL     1      -0.602   9.304  22.114  0.00  0.00    +0.000 OA
ATOM      3  C   UNL     1       0.131   9.326  21.129  0.00  0.00    +0.000 C 
ATOM      4  N   UNL     1      -0.060  10.188  20.081  0.00  0.00    +0.000 N 
ATOM      5  H   UNL     1       0.570  10.193  19.293  0.00  0.00    +0.000 HD
BRANCH   4   6
ATOM      6  C   UNL     1      -1.135  11.160  20.061  0.00  0.00    +0.000 C 
BRANCH   6   7
ATOM      7  C   UNL     1      -1.967  11.018  18.812  0.00  0.00    +0.000 A 
ATOM      8  C   UNL     1      -1.489  10.201  17.771  0.00  0.00    +0.000 A 
ATOM      9  C   UNL     1      -2.241  10.004  16.611  0.00  0.00    +0.000 A 
ATOM     10  C   UNL     1      -3.484  10.615  16.474  0.00  0.00    +0.000 A 
ATOM     11  C   UNL     1      -3.973  11.428  17.495  0.00  0.00    +0.000 A 
ATOM     12  C   UNL     1      -3.223  11.627  18.659  0.00  0.00    +0.000 A 
ATOM     13 CL   UNL     1      -3.909  12.625  19.891  0.00  0.00    +0.000 Cl
ENDBRANCH   6   7
ENDBRANCH   4   6
ENDBRANCH   1   3
BRANCH   1  14
ATOM     14  C   UNL     1       1.846   8.173  19.571  0.00  0.00    +0.000 C 
BRANCH  14  15
ATOM     15  C   UNL     1       2.721   6.910  19.370  0.00  0.00    +0.000 C 
ATOM     16  C   UNL     1       2.111   5.746  20.181  0.00  0.00    +0.000 C 
ATOM     17  C   UNL     1       2.823   4.416  19.923  0.00  0.00    +0.000 C 
ATOM     18  C   UNL     1       2.856   4.124  18.432  0.00  0.00    +0.000 C 
ATOM     19  N   UNL     1       3.535   5.221  17.747  0.00  0.00    +0.000 N 
ATOM     20  C   UNL     1       2.903   6.539  17.879  0.00  0.00    +0.000 C 
BRANCH  19  21
ATOM     21  C   UNL     1       4.794   5.064  17.192  0.00  0.00    +0.000 A 
ATOM     22  C   UNL     1       5.039   4.129  16.184  0.00  0.00    +0.000 A 
ATOM     23  C   UNL     1       6.327   3.968  15.678  0.00  0.00    +0.000 A 
ATOM     24  N   UNL     1       7.392   4.683  16.094  0.00  0.00    +0.000 NA
ATOM     25  C   UNL     1       7.151   5.585  17.061  0.00  0.00    +0.000 A 
ATOM     26  C   UNL     1       5.899   5.804  17.625  0.00  0.00    +0.000 A 
ENDBRANCH  19  21
ENDBRANCH  14  15
ENDBRANCH   1  14
TORSDOF 6
ENDMDL
MODEL 7
REMARK VINA RESULT:      -7.6      7.407     10.379
REMARK  Name = 
REMARK  6 active torsions:
REMARK  status: ('A' for Active; 'I' for Inactive)
REMARK    1  A    between atoms: C_2  and  C_3
REMARK    2  A    between atoms: C_3  and  C_4
REMARK    3  A    between atoms: C_4  and  C_5
REMARK    4  A    between atoms: N_9  and  C_10
REMARK    5  A    between atoms: N_17  and  C_18
REMARK    6  A    between atoms: C_18  and  C_19
REMARK                            x       y       z     vdW  Elec       q    Type
REMARK                         _______ _______ _______ _____ _____    ______ ____
ROOT
ATOM      1  C   UNL     1       1.219   7.938  21.099  0.00  0.00    +0.000 C 
ENDROOT
BRANCH   1   3
ATOM      2  O   UNL     1       1.689   9.582  22.777  0.00  0.00    +0.000 OA
ATOM      3  C   UNL     1       1.199   9.349  21.674  0.00  0.00    +0.000 C 
ATOM      4  N   UNL     1       0.533  10.298  20.943  0.00  0.00    +0.000 N 
ATOM      5  H   UNL     1       0.156  10.079  20.033  0.00  0.00    +0.000 HD
BRANCH   4   6
ATOM      6  C   UNL     1       0.372  11.662  21.405  0.00  0.00    +0.000 C 
BRANCH   6   7
ATOM      7  C   UNL     1      -1.079  11.976  21.664  0.00  0.00    +0.000 A 
ATOM      8  C   UNL     1      -1.582  11.817  22.968  0.00  0.00    +0.000 A 
ATOM      9  C   UNL     1      -2.909  12.133  23.270  0.00  0.00    +0.000 A 
ATOM     10  C   UNL     1      -3.752  12.618  22.275  0.00  0.00    +0.000 A 
ATOM     11  C   UNL     1      -3.271  12.783  20.977  0.00  0.00    +0.000 A 
ATOM     12  C   UNL     1      -1.943  12.467  20.672  0.00  0.00    +0.000 A 
ATOM     13 CL   UNL     1      -1.413  12.724  19.047  0.00  0.00    +0.000 Cl
ENDBRANCH   6   7
ENDBRANCH   4   6
ENDBRANCH   1   3
BRANCH   1  14
ATOM     14  C   UNL     1       1.847   7.791  19.712  0.00  0.00    +0.000 C 
BRANCH  14  15
ATOM     15  C   UNL     1       2.756   6.546  19.557  0.00  0.00    +0.000 C 
ATOM     16  C   UNL     1       2.095   5.352  20.278  0.00  0.00    +0.000 C 
ATOM     17  C   UNL     1       2.847   4.039  20.050  0.00  0.00    +0.000 C 
ATOM     18  C   UNL     1       3.018   3.789  18.560  0.00  0.00    +0.000 C 
ATOM     19  N   UNL     1       3.738   4.914  17.968  0.00  0.00    +0.000 N 
ATOM     20  C   UNL     1       3.076   6.219  18.079  0.00  0.00    +0.000 C 
BRANCH  19  21
ATOM     21  C   UNL     1       5.043   4.789  17.525  0.00  0.00    +0.000 A 
ATOM     22  C   UNL     1       5.339   4.439  16.206  0.00  0.00    +0.000 A 
ATOM     23  C   UNL     1       6.664   4.280  15.805  0.00  0.00    +0.000 A 
ATOM     24  N   UNL     1       7.721   4.460  16.620  0.00  0.00    +0.000 NA
ATOM     25  C   UNL     1       7.433   4.803  17.888  0.00  0.00    +0.000 A 
ATOM     26  C   UNL     1       6.141   4.974  18.372  0.00  0.00    +0.000 A 
ENDBRANCH  19  21
ENDBRANCH  14  15
ENDBRANCH   1  14
TORSDOF 6
ENDMDL
MODEL 8
REMARK VINA RESULT:      -7.5      7.316     10.041
REMARK  Name = 
REMARK  6 active torsions:
REMARK  status: ('A' for Active; 'I' for Inactive)
REMARK    1  A    between atoms: C_2  and  C_3
REMARK    2  A    between atoms: C_3  and  C_4
REMARK    3  A    between atoms: C_4  and  C_5
REMARK    4  A    between atoms: N_9  and  C_10
REMARK    5  A    between atoms: N_17  and  C_18
REMARK    6  A    between atoms: C_18  and  C_19
REMARK                            x       y       z     vdW  Elec       q    Type
REMARK                         _______ _______ _______ _____ _____    ______ ____
ROOT
ATOM      1  C   UNL     1       1.847   7.021  20.695  0.00  0.00    +0.000 C 
ENDROOT
BRANCH   1   3
ATOM      2  O   UNL     1       2.410   8.172  18.672  0.00  0.00    +0.000 OA
ATOM      3  C   UNL     1       1.764   8.185  19.717  0.00  0.00    +0.000 C 
ATOM      4  N   UNL     1       1.012   9.262  20.110  0.00  0.00    +0.000 N 
ATOM      5  H   UNL     1       0.479   9.235  20.966  0.00  0.00    +0.000 HD
BRANCH   4   6
ATOM      6  C   UNL     1       0.904  10.467  19.312  0.00  0.00    +0.000 C 
BRANCH   6   7
ATOM      7  C   UNL     1      -0.493  10.632  18.771  0.00  0.00    +0.000 A 
ATOM      8  C   UNL     1      -0.891   9.842  17.677  0.00  0.00    +0.000 A 
ATOM      9  C   UNL     1      -2.187   9.928  17.164  0.00  0.00    +0.000 A 
ATOM     10  C   UNL     1      -3.108  10.799  17.739  0.00  0.00    +0.000 A 
ATOM     11  C   UNL     1      -2.730  11.590  18.823  0.00  0.00    +0.000 A 
ATOM     12  C   UNL     1      -1.433  11.506  19.339  0.00  0.00    +0.000 A 
ATOM     13 CL   UNL     1      -1.049  12.498  20.701  0.00  0.00    +0.000 Cl
ENDBRANCH   6   7
ENDBRANCH   4   6
ENDBRANCH   1   3
BRANCH   1  14
ATOM     14  C   UNL     1       1.340   5.674  20.178  0.00  0.00    +0.000 C 
BRANCH  14  15
ATOM     15  C   UNL     1       2.458   4.724  19.680  0.00  0.00    +0.000 C 
ATOM     16  C   UNL     1       2.051   3.268  19.991  0.00  0.00    +0.000 C 
ATOM     17  C   UNL     1       3.026   2.247  19.399  0.00  0.00    +0.000 C 
ATOM     18  C   UNL     1       3.194   2.492  17.909  0.00  0.00    +0.000 C 
ATOM     19  N   UNL     1       3.675   3.856  17.701  0.00  0.00    +0.000 N 
ATOM     20  C   UNL     1       2.787   4.921  18.181  0.00  0.00    +0.000 C 
BRANCH  19  21
ATOM     21  C   UNL     1       4.967   4.114  17.275  0.00  0.00    +0.000 A 
ATOM     22  C   UNL     1       5.976   4.472  18.171  0.00  0.00    +0.000 A 
ATOM     23  C   UNL     1       7.255   4.765  17.702  0.00  0.00    +0.000 A 
ATOM     24  N   UNL     1       7.608   4.713  16.403  0.00  0.00    +0.000 NA
ATOM     25  C   UNL     1       6.636   4.362  15.544  0.00  0.00    +0.000 A 
ATOM     26  C   UNL     1       5.333   4.062  15.926  0.00  0.00    +0.000 A 
ENDBRANCH  19  21
ENDBRANCH  14  15
ENDBRANCH   1  14
TORSDOF 6
ENDMDL
MODEL 9
REMARK VINA RESULT:      -7.5      1.888      2.347
REMARK  Name = 
REMARK  6 active torsions:
REMARK  status: ('A' for Active; 'I' for Inactive)
REMARK    1  A    between atoms: C_2  and  C_3
REMARK    2  A    between atoms: C_3  and  C_4
REMARK    3  A    between atoms: C_4  and  C_5
REMARK    4  A    between atoms: N_9  and  C_10
REMARK    5  A    between atoms: N_17  and  C_18
REMARK    6  A    between atoms: C_18  and  C_19
REMARK                            x       y       z     vdW  Elec       q    Type
REMARK                         _______ _______ _______ _____ _____    ______ ____
ROOT
ATOM      1  C   UNL     1       8.401   9.440  17.797  0.00  0.00    +0.000 C 
ENDROOT
BRANCH   1   3
ATOM      2  O   UNL     1       8.268   7.195  18.620  0.00  0.00    +0.000 OA
ATOM      3  C   UNL     1       7.794   8.045  17.870  0.00  0.00    +0.000 C 
ATOM      4  N   UNL     1       6.770   7.778  16.999  0.00  0.00    +0.000 N 
ATOM      5  H   UNL     1       6.392   8.503  16.408  0.00  0.00    +0.000 HD
BRANCH   4   6
ATOM      6  C   UNL     1       6.149   6.472  16.908  0.00  0.00    +0.000 C 
BRANCH   6   7
ATOM      7  C   UNL     1       4.898   6.410  17.746  0.00  0.00    +0.000 A 
ATOM      8  C   UNL     1       3.833   7.276  17.436  0.00  0.00    +0.000 A 
ATOM      9  C   UNL     1       2.638   7.230  18.156  0.00  0.00    +0.000 A 
ATOM     10  C   UNL     1       2.484   6.315  19.193  0.00  0.00    +0.000 A 
ATOM     11  C   UNL     1       3.528   5.449  19.514  0.00  0.00    +0.000 A 
ATOM     12  C   UNL     1       4.726   5.492  18.795  0.00  0.00    +0.000 A 
ATOM     13 CL   UNL     1       5.963   4.369  19.234  0.00  0.00    +0.000 Cl
ENDBRANCH   6   7
ENDBRANCH   4   6
ENDBRANCH   1   3
BRANCH   1  14
ATOM     14  C   UNL     1       9.141   9.914  19.049  0.00  0.00    +0.000 C 
BRANCH  14  15
ATOM     15  C   UNL     1       9.749  11.334  18.928  0.00  0.00    +0.000 C 
ATOM     16  C   UNL     1      11.167  11.221  18.326  0.00  0.00    +0.000 C 
ATOM     17  C   UNL     1      11.787  12.588  18.027  0.00  0.00    +0.000 C 
ATOM     18  C   UNL     1      10.853  13.402  17.149  0.00  0.00    +0.000 C 
ATOM     19  N   UNL     1       9.567  13.549  17.828  0.00  0.00    +0.000 N 
ATOM     20  C   UNL     1       8.854  12.299  18.113  0.00  0.00    +0.000 C 
BRANCH  19  21
ATOM     21  C   UNL     1       9.156  14.764  18.350  0.00  0.00    +0.000 A 
ATOM     22  C   UNL     1       8.494  14.848  19.576  0.00  0.00    +0.000 A 
ATOM     23  C   UNL     1       8.057  16.083  20.052  0.00  0.00    +0.000 A 
ATOM     24  N   UNL     1       8.246  17.248  19.400  0.00  0.00    +0.000 NA
ATOM     25  C   UNL     1       8.890  17.164  18.223  0.00  0.00    +0.000 A 
ATOM     26  C   UNL     1       9.351  15.973  17.673  0.00  0.00    +0.000 A 
ENDBRANCH  19  21
ENDBRANCH  14  15
ENDBRANCH   1  14
TORSDOF 6
ENDMDL
