MODEL 1
REMARK VINA RESULT:      -7.6      0.000      0.000
REMARK  Name = 
REMARK  8 active torsions:
REMARK  status: ('A' for Active; 'I' for Inactive)
REMARK    1  A    between atoms: C_1  and  O_2
REMARK    2  A    between atoms: O_2  and  C_3
REMARK    3  A    between atoms: C_7  and  C_8
REMARK    4  A    between atoms: N_18  and  C_19
REMARK    5  A    between atoms: C_25  and  O_26
REMARK    6  A    between atoms: O_26  and  C_27
REMARK    7  A    between atoms: C_27  and  C_28
REMARK    8  A    between atoms: C_27  and  C_29
REMARK                            x       y       z     vdW  Elec       q    Type
REMARK                         _______ _______ _______ _____ _____    ______ ____
ROOT
ATOM      1  C   UNL     1       0.643   9.101  20.580  0.00  0.00    +0.000 A 
ATOM      2  C   UNL     1      -0.045   8.536  21.682  0.00  0.00    +0.000 A 
ATOM      3  C   UNL     1      -0.673   9.333  22.657  0.00  0.00    +0.000 A 
ATOM      4  C   UNL     1      -0.660  10.704  22.489  0.00  0.00    +0.000 A 
ATOM      5  C   UNL     1      -0.124  11.245  21.324  0.00  0.00    +0.000 A 
ATOM      6  C   UNL     1       0.578  10.485  20.416  0.00  0.00    +0.000 A 
ATOM      7  C   UNL     1      -0.403  12.705  21.222  0.00  0.00    +0.000 C 
ATOM      8  N   UNL     1       0.801  13.486  21.670  0.00  0.00    +0.000 NA
ATOM      9  C   UNL     1       1.000  14.367  20.751  0.00  0.00    +0.000 C 
ATOM     10  N   UNL     1       1.983  15.293  20.871  0.00  0.00    +0.000 N 
ATOM     11  N   UNL     1       0.195  14.311  19.677  0.00  0.00    +0.000 N 
ATOM     12  C   UNL     1       0.015  15.297  18.629  0.00  0.00    +0.000 C 
ATOM     13  C   UNL     1      -0.609  13.219  19.799  0.00  0.00    +0.000 C 
ATOM     14  O   UNL     1      -1.303  12.740  18.904  0.00  0.00    +0.000 OA
ATOM     15  C   UNL     1      -1.584  12.872  22.272  0.00  0.00    +0.000 C 
ATOM     16  C   UNL     1      -1.699  14.341  22.744  0.00  0.00    +0.000 C 
ATOM     17  C   UNL     1      -2.318  15.222  21.642  0.00  0.00    +0.000 C 
ATOM     18  C   UNL     1      -3.720  14.766  21.237  0.00  0.00    +0.000 C 
ATOM     19  C   UNL     1      -3.735  13.289  20.847  0.00  0.00    +0.000 C 
ATOM     20  C   UNL     1      -3.031  12.426  21.875  0.00  0.00    +0.000 C 
ATOM     21  C   UNL     1      -1.183  11.819  23.367  0.00  0.00    +0.000 C 
ATOM     22  H   UNL     1       2.652  15.036  21.592  0.00  0.00    +0.000 HD
ATOM     23  H   UNL     1       2.430  15.581  20.012  0.00  0.00    +0.000 HD
ENDROOT
BRANCH   1  28
ATOM     24  C   UNL     1       3.012   6.458  19.278  0.00  0.00    +0.000 A 
ATOM     25  C   UNL     1       3.387   7.000  18.050  0.00  0.00    +0.000 A 
ATOM     26  C   UNL     1       2.808   8.183  17.598  0.00  0.00    +0.000 A 
ATOM     27  C   UNL     1       1.856   8.828  18.387  0.00  0.00    +0.000 A 
ATOM     28  C   UNL     1       1.484   8.322  19.649  0.00  0.00    +0.000 A 
ATOM     29  C   UNL     1       2.068   7.116  20.064  0.00  0.00    +0.000 A 
BRANCH  24  31
ATOM     30  C   UNL     1       5.028   5.220  19.256  0.00  0.00    +0.000 C 
ATOM     31  O   UNL     1       3.656   5.301  19.630  0.00  0.00    +0.000 OA
ENDBRANCH  24  31
ENDBRANCH   1  28
BRANCH  18  32
ATOM     32  O   UNL     1      -4.634  14.941  22.320  0.00  0.00    +0.000 OA
BRANCH  32  33
ATOM     33  C   UNL     1      -5.972  14.506  22.070  0.00  0.00    +0.000 C 
ATOM     34  C   UNL     1      -6.646  13.998  23.338  0.00  0.00    +0.000 C 
ATOM     35  C   UNL     1      -6.704  15.702  21.486  0.00  0.00    +0.000 C 
ENDBRANCH  32  33
ENDBRANCH  18  32
TORSDOF 4
ENDMDL
MODEL 2
REMARK VINA RESULT:      -7.4      0.830      1.021
REMARK  Name = 
REMARK  8 active torsions:
REMARK  status: ('A' for Active; 'I' for Inactive)
REMARK    1  A    between atoms: C_1  and  O_2
REMARK    2  A    between atoms: O_2  and  C_3
REMARK    3  A    between atoms: C_7  and  C_8
REMARK    4  A    between atoms: N_18  and  C_19
REMARK    5  A    between atoms: C_25  and  O_26
REMARK    6  A    between atoms: O_26  and  C_27
REMARK    7  A    between atoms: C_27  and  C_28
REMARK    8  A    between atoms: C_27  and  C_29
REMARK                            x       y       z     vdW  Elec       q    Type
REMARK                         _______ _______ _______ _____ _____    ______ ____
ROOT
ATOM      1  C   UNL     1       0.571   9.230  20.542  0.00  0.00    +0.000 A 
ATOM      2  C   UNL     1      -0.131   8.646  21.624  0.00  0.00    +0.000 A 
ATOM      3  C   UNL     1      -0.765   9.425  22.611  0.00  0.00    +0.000 A 
ATOM      4  C   UNL     1      -0.741  10.799  22.474  0.00  0.00    +0.000 A 
ATOM      5  C   UNL     1      -0.190  11.363  21.327  0.00  0.00    +0.000 A 
ATOM      6  C   UNL     1       0.516  10.618  20.409  0.00  0.00    +0.000 A 
ATOM      7  C   UNL     1      -0.459  12.826  21.255  0.00  0.00    +0.000 C 
ATOM      8  N   UNL     1       0.746  13.589  21.732  0.00  0.00    +0.000 NA
ATOM      9  C   UNL     1       0.960  14.490  20.836  0.00  0.00    +0.000 C 
ATOM     10  N   UNL     1       1.948  15.406  20.987  0.00  0.00    +0.000 N 
ATOM     11  N   UNL     1       0.166  14.462  19.753  0.00  0.00    +0.000 N 
ATOM     12  C   UNL     1       0.003  15.474  18.725  0.00  0.00    +0.000 C 
ATOM     13  C   UNL     1      -0.647  13.374  19.842  0.00  0.00    +0.000 C 
ATOM     14  O   UNL     1      -1.334  12.920  18.929  0.00  0.00    +0.000 OA
ATOM     15  C   UNL     1      -1.649  12.978  22.297  0.00  0.00    +0.000 C 
ATOM     16  C   UNL     1      -1.759  14.437  22.800  0.00  0.00    +0.000 C 
ATOM     17  C   UNL     1      -2.361  15.346  21.712  0.00  0.00    +0.000 C 
ATOM     18  C   UNL     1      -3.762  14.909  21.283  0.00  0.00    +0.000 C 
ATOM     19  C   UNL     1      -3.782  13.441  20.859  0.00  0.00    +0.000 C 
ATOM     20  C   UNL     1      -3.094  12.551  21.875  0.00  0.00    +0.000 C 
ATOM     21  C   UNL     1      -1.265  11.898  23.371  0.00  0.00    +0.000 C 
ATOM     22  H   UNL     1       2.608  15.129  21.708  0.00  0.00    +0.000 HD
ATOM     23  H   UNL     1       2.405  15.710  20.138  0.00  0.00    +0.000 HD
ENDROOT
BRANCH   1  28
ATOM     24  C   UNL     1       2.965   6.625  19.212  0.00  0.00    +0.000 A 
ATOM     25  C   UNL     1       3.327   7.178  17.986  0.00  0.00    +0.000 A 
ATOM     26  C   UNL     1       2.730   8.356  17.543  0.00  0.00    +0.000 A 
ATOM     27  C   UNL     1       1.775   8.985  18.341  0.00  0.00    +0.000 A 
ATOM     28  C   UNL     1       1.416   8.467  19.603  0.00  0.00    +0.000 A 
ATOM     29  C   UNL     1       2.018   7.267  20.008  0.00  0.00    +0.000 A 
BRANCH  24  31
ATOM     30  C   UNL     1       2.843   4.489  20.221  0.00  0.00    +0.000 C 
ATOM     31  O   UNL     1       3.626   5.474  19.555  0.00  0.00    +0.000 OA
ENDBRANCH  24  31
ENDBRANCH   1  28
BRANCH  18  32
ATOM     32  O   UNL     1      -4.685  15.065  22.361  0.00  0.00    +0.000 OA
BRANCH  32  33
ATOM     33  C   UNL     1      -4.902  16.410  22.792  0.00  0.00    +0.000 C 
ATOM     34  C   UNL     1      -5.825  17.165  21.843  0.00  0.00    +0.000 C 
ATOM     35  C   UNL     1      -5.489  16.319  24.190  0.00  0.00    +0.000 C 
ENDBRANCH  32  33
ENDBRANCH  18  32
TORSDOF 4
ENDMDL
MODEL 3
REMARK VINA RESULT:      -7.0      3.799      5.941
REMARK  Name = 
REMARK  8 active torsions:
REMARK  status: ('A' for Active; 'I' for Inactive)
REMARK    1  A    between atoms: C_1  and  O_2
REMARK    2  A    between atoms: O_2  and  C_3
REMARK    3  A    between atoms: C_7  and  C_8
REMARK    4  A    between atoms: N_18  and  C_19
REMARK    5  A    between atoms: C_25  and  O_26
REMARK    6  A    between atoms: O_26  and  C_27
REMARK    7  A    between atoms: C_27  and  C_28
REMARK    8  A    between atoms: C_27  and  C_29
REMARK                            x       y       z     vdW  Elec       q    Type
REMARK                         _______ _______ _______ _____ _____    ______ ____
ROOT
ATOM      1  C   UNL     1       3.448  15.797  18.817  0.00  0.00    +0.000 A 
ATOM      2  C   UNL     1       2.761  17.030  18.932  0.00  0.00    +0.000 A 
ATOM      3  C   UNL     1       1.367  17.093  19.117  0.00  0.00    +0.000 A 
ATOM      4  C   UNL     1       0.670  15.908  19.247  0.00  0.00    +0.000 A 
ATOM      5  C   UNL     1       1.369  14.705  19.295  0.00  0.00    +0.000 A 
ATOM      6  C   UNL     1       2.715  14.626  19.017  0.00  0.00    +0.000 A 
ATOM      7  C   UNL     1       0.478  13.570  19.664  0.00  0.00    +0.000 C 
ATOM      8  N   UNL     1       0.063  12.825  18.426  0.00  0.00    +0.000 NA
ATOM      9  C   UNL     1       0.270  11.581  18.688  0.00  0.00    +0.000 C 
ATOM     10  N   UNL     1      -0.062  10.614  17.797  0.00  0.00    +0.000 N 
ATOM     11  N   UNL     1       0.835  11.300  19.873  0.00  0.00    +0.000 N 
ATOM     12  C   UNL     1       0.954  10.016  20.538  0.00  0.00    +0.000 C 
ATOM     13  C   UNL     1       1.147  12.473  20.490  0.00  0.00    +0.000 C 
ATOM     14  O   UNL     1       1.871  12.590  21.477  0.00  0.00    +0.000 OA
ATOM     15  C   UNL     1      -0.768  14.338  20.282  0.00  0.00    +0.000 C 
ATOM     16  C   UNL     1      -2.033  13.448  20.256  0.00  0.00    +0.000 C 
ATOM     17  C   UNL     1      -1.952  12.351  21.334  0.00  0.00    +0.000 C 
ATOM     18  C   UNL     1      -1.827  12.917  22.748  0.00  0.00    +0.000 C 
ATOM     19  C   UNL     1      -0.657  13.894  22.856  0.00  0.00    +0.000 C 
ATOM     20  C   UNL     1      -0.669  14.914  21.734  0.00  0.00    +0.000 C 
ATOM     21  C   UNL     1      -0.810  15.634  19.395  0.00  0.00    +0.000 C 
ATOM     22  H   UNL     1      -0.224  10.999  16.870  0.00  0.00    +0.000 HD
ATOM     23  H   UNL     1       0.537   9.800  17.780  0.00  0.00    +0.000 HD
ENDROOT
BRANCH   1  28
ATOM     24  C   UNL     1       6.713  14.281  17.662  0.00  0.00    +0.000 A 
ATOM     25  C   UNL     1       7.622  15.279  18.007  0.00  0.00    +0.000 A 
ATOM     26  C   UNL     1       7.172  16.486  18.537  0.00  0.00    +0.000 A 
ATOM     27  C   UNL     1       5.805  16.686  18.729  0.00  0.00    +0.000 A 
ATOM     28  C   UNL     1       4.866  15.680  18.423  0.00  0.00    +0.000 A 
ATOM     29  C   UNL     1       5.349  14.485  17.869  0.00  0.00    +0.000 A 
BRANCH  24  31
ATOM     30  C   UNL     1       8.552  12.793  17.675  0.00  0.00    +0.000 C 
ATOM     31  O   UNL     1       7.266  13.129  17.165  0.00  0.00    +0.000 OA
ENDBRANCH  24  31
ENDBRANCH   1  28
BRANCH  18  32
ATOM     32  O   UNL     1      -3.017  13.618  23.112  0.00  0.00    +0.000 OA
BRANCH  32  33
ATOM     33  C   UNL     1      -4.185  12.808  23.257  0.00  0.00    +0.000 C 
ATOM     34  C   UNL     1      -4.445  12.449  24.715  0.00  0.00    +0.000 C 
ATOM     35  C   UNL     1      -5.331  13.606  22.662  0.00  0.00    +0.000 C 
ENDBRANCH  32  33
ENDBRANCH  18  32
TORSDOF 4
ENDMDL
MODEL 4
REMARK VINA RESULT:      -6.8      2.644      3.434
REMARK  Name = 
REMARK  8 active torsions:
REMARK  status: ('A' for Active; 'I' for Inactive)
REMARK    1  A    between atoms: C_1  and  O_2
REMARK    2  A    between atoms: O_2  and  C_3
REMARK    3  A    between atoms: C_7  and  C_8
REMARK    4  A    between atoms: N_18  and  C_19
REMARK    5  A    between atoms: C_25  and  O_26
REMARK    6  A    between atoms: O_26  and  C_27
REMARK    7  A    between atoms: C_27  and  C_28
REMARK    8  A    between atoms: C_27  and  C_29
REMARK                            x       y       z     vdW  Elec       q    Type
REMARK                         _______ _______ _______ _____ _____    ______ ____
ROOT
ATOM      1  C   UNL     1       1.045   9.734  19.746  0.00  0.00    +0.000 A 
ATOM      2  C   UNL     1      -0.248   9.686  20.323  0.00  0.00    +0.000 A 
ATOM      3  C   UNL     1      -0.796  10.780  21.019  0.00  0.00    +0.000 A 
ATOM      4  C   UNL     1      -0.063  11.948  21.083  0.00  0.00    +0.000 A 
ATOM      5  C   UNL     1       1.135  12.044  20.379  0.00  0.00    +0.000 A 
ATOM      6  C   UNL     1       1.724  10.953  19.780  0.00  0.00    +0.000 A 
ATOM      7  C   UNL     1       1.660  13.437  20.383  0.00  0.00    +0.000 C 
ATOM      8  N   UNL     1       2.725  13.577  21.436  0.00  0.00    +0.000 NA
ATOM      9  C   UNL     1       3.715  14.156  20.848  0.00  0.00    +0.000 C 
ATOM     10  N   UNL     1       4.834  14.496  21.535  0.00  0.00    +0.000 N 
ATOM     11  N   UNL     1       3.582  14.390  19.533  0.00  0.00    +0.000 N 
ATOM     12  C   UNL     1       4.398  15.231  18.677  0.00  0.00    +0.000 C 
ATOM     13  C   UNL     1       2.407  13.843  19.114  0.00  0.00    +0.000 C 
ATOM     14  O   UNL     1       2.076  13.675  17.942  0.00  0.00    +0.000 OA
ATOM     15  C   UNL     1       0.367  14.259  20.803  0.00  0.00    +0.000 C 
ATOM     16  C   UNL     1       0.754  15.638  21.387  0.00  0.00    +0.000 C 
ATOM     17  C   UNL     1       1.215  16.594  20.271  0.00  0.00    +0.000 C 
ATOM     18  C   UNL     1       0.135  16.838  19.216  0.00  0.00    +0.000 C 
ATOM     19  C   UNL     1      -0.391  15.523  18.644  0.00  0.00    +0.000 C 
ATOM     20  C   UNL     1      -0.745  14.533  19.736  0.00  0.00    +0.000 C 
ATOM     21  C   UNL     1      -0.335  13.257  21.789  0.00  0.00    +0.000 C 
ATOM     22  H   UNL     1       4.881  14.019  22.432  0.00  0.00    +0.000 HD
ATOM     23  H   UNL     1       5.703  14.444  21.022  0.00  0.00    +0.000 HD
ENDROOT
BRANCH   1  28
ATOM     24  C   UNL     1       2.701   6.343  19.530  0.00  0.00    +0.000 A 
ATOM     25  C   UNL     1       3.374   6.438  18.313  0.00  0.00    +0.000 A 
ATOM     26  C   UNL     1       3.224   7.569  17.514  0.00  0.00    +0.000 A 
ATOM     27  C   UNL     1       2.403   8.611  17.945  0.00  0.00    +0.000 A 
ATOM     28  C   UNL     1       1.740   8.558  19.187  0.00  0.00    +0.000 A 
ATOM     29  C   UNL     1       1.892   7.395  19.957  0.00  0.00    +0.000 A 
BRANCH  24  31
ATOM     30  C   UNL     1       3.819   4.261  19.632  0.00  0.00    +0.000 C 
ATOM     31  O   UNL     1       2.933   5.195  20.241  0.00  0.00    +0.000 OA
ENDBRANCH  24  31
ENDBRANCH   1  28
BRANCH  18  32
ATOM     32  O   UNL     1      -0.970  17.540  19.786  0.00  0.00    +0.000 OA
BRANCH  32  33
ATOM     33  C   UNL     1      -1.493  18.607  18.993  0.00  0.00    +0.000 C 
ATOM     34  C   UNL     1      -0.875  18.631  17.601  0.00  0.00    +0.000 C 
ATOM     35  C   UNL     1      -2.996  18.395  18.936  0.00  0.00    +0.000 C 
ENDBRANCH  32  33
ENDBRANCH  18  32
TORSDOF 4
ENDMDL
MODEL 5
REMARK VINA RESULT:      -6.6      3.575      5.300
REMARK  Name = 
REMARK  8 active torsions:
REMARK  status: ('A' for Active; 'I' for Inactive)
REMARK    1  A    between atoms: C_1  and  O_2
REMARK    2  A    between atoms: O_2  and  C_3
REMARK    3  A    between atoms: C_7  and  C_8
REMARK    4  A    between atoms: N_18  and  C_19
REMARK    5  A    between atoms: C_25  and  O_26
REMARK    6  A    between atoms: O_26  and  C_27
REMARK    7  A    between atoms: C_27  and  C_28
REMARK    8  A    between atoms: C_27  and  C_29
REMARK                            x       y       z     vdW  Elec       q    Type
REMARK                         _______ _______ _______ _____ _____    ______ ____
ROOT
ATOM      1  C   UNL     1       1.805  13.944  20.077  0.00  0.00    +0.000 A 
ATOM      2  C   UNL     1       1.739  12.586  19.682  0.00  0.00    +0.000 A 
ATOM      3  C   UNL     1       0.836  11.680  20.270  0.00  0.00    +0.000 A 
ATOM      4  C   UNL     1      -0.045  12.158  21.219  0.00  0.00    +0.000 A 
ATOM      5  C   UNL     1      -0.087  13.524  21.488  0.00  0.00    +0.000 A 
ATOM      6  C   UNL     1       0.855  14.398  20.993  0.00  0.00    +0.000 A 
ATOM      7  C   UNL     1      -1.242  13.873  22.360  0.00  0.00    +0.000 C 
ATOM      8  N   UNL     1      -0.782  14.007  23.785  0.00  0.00    +0.000 NA
ATOM      9  C   UNL     1      -1.277  15.122  24.202  0.00  0.00    +0.000 C 
ATOM     10  N   UNL     1      -1.108  15.525  25.486  0.00  0.00    +0.000 N 
ATOM     11  N   UNL     1      -1.951  15.856  23.302  0.00  0.00    +0.000 N 
ATOM     12  C   UNL     1      -2.813  17.001  23.532  0.00  0.00    +0.000 C 
ATOM     13  C   UNL     1      -1.856  15.245  22.090  0.00  0.00    +0.000 C 
ATOM     14  O   UNL     1      -2.159  15.751  21.010  0.00  0.00    +0.000 OA
ATOM     15  C   UNL     1      -2.157  12.584  22.200  0.00  0.00    +0.000 C 
ATOM     16  C   UNL     1      -3.142  12.456  23.386  0.00  0.00    +0.000 C 
ATOM     17  C   UNL     1      -4.277  13.491  23.268  0.00  0.00    +0.000 C 
ATOM     18  C   UNL     1      -5.092  13.333  21.984  0.00  0.00    +0.000 C 
ATOM     19  C   UNL     1      -4.193  13.345  20.749  0.00  0.00    +0.000 C 
ATOM     20  C   UNL     1      -3.012  12.408  20.901  0.00  0.00    +0.000 C 
ATOM     21  C   UNL     1      -1.079  11.449  22.065  0.00  0.00    +0.000 C 
ATOM     22  H   UNL     1      -0.368  15.002  25.947  0.00  0.00    +0.000 HD
ATOM     23  H   UNL     1      -1.027  16.522  25.632  0.00  0.00    +0.000 HD
ENDROOT
BRANCH   1  28
ATOM     24  C   UNL     1       4.954  15.250  18.444  0.00  0.00    +0.000 A 
ATOM     25  C   UNL     1       5.099  16.487  19.068  0.00  0.00    +0.000 A 
ATOM     26  C   UNL     1       4.130  16.944  19.958  0.00  0.00    +0.000 A 
ATOM     27  C   UNL     1       3.016  16.149  20.229  0.00  0.00    +0.000 A 
ATOM     28  C   UNL     1       2.861  14.878  19.640  0.00  0.00    +0.000 A 
ATOM     29  C   UNL     1       3.843  14.458  18.730  0.00  0.00    +0.000 A 
BRANCH  24  31
ATOM     30  C   UNL     1       7.289  15.155  18.079  0.00  0.00    +0.000 C 
ATOM     31  O   UNL     1       5.974  14.894  17.600  0.00  0.00    +0.000 OA
ENDBRANCH  24  31
ENDBRANCH   1  28
BRANCH  18  32
ATOM     32  O   UNL     1      -5.804  12.096  21.995  0.00  0.00    +0.000 OA
BRANCH  32  33
ATOM     33  C   UNL     1      -7.221  12.203  21.842  0.00  0.00    +0.000 C 
ATOM     34  C   UNL     1      -7.787  11.057  21.012  0.00  0.00    +0.000 C 
ATOM     35  C   UNL     1      -7.799  12.218  23.246  0.00  0.00    +0.000 C 
ENDBRANCH  32  33
ENDBRANCH  18  32
TORSDOF 4
ENDMDL
MODEL 6
REMARK VINA RESULT:      -6.6      0.958      1.327
REMARK  Name = 
REMARK  8 active torsions:
REMARK  status: ('A' for Active; 'I' for Inactive)
REMARK    1  A    between atoms: C_1  and  O_2
REMARK    2  A    between atoms: O_2  and  C_3
REMARK    3  A    between atoms: C_7  and  C_8
REMARK    4  A    between atoms: N_18  and  C_19
REMARK    5  A    between atoms: C_25  and  O_26
REMARK    6  A    between atoms: O_26  and  C_27
REMARK    7  A    between atoms: C_27  and  C_28
REMARK    8  A    between atoms: C_27  and  C_29
REMARK                            x       y       z     vdW  Elec       q    Type
REMARK                         _______ _______ _______ _____ _____    ______ ____
ROOT
ATOM      1  C   UNL     1       0.563   8.882  21.199  0.00  0.00    +0.000 A 
ATOM      2  C   UNL     1      -0.254   8.508  22.294  0.00  0.00    +0.000 A 
ATOM      3  C   UNL     1      -0.912   9.462  23.094  0.00  0.00    +0.000 A 
ATOM      4  C   UNL     1      -0.794  10.795  22.754  0.00  0.00    +0.000 A 
ATOM      5  C   UNL     1      -0.124  11.146  21.585  0.00  0.00    +0.000 A 
ATOM      6  C   UNL     1       0.603  10.234  20.853  0.00  0.00    +0.000 A 
ATOM      7  C   UNL     1      -0.297  12.591  21.270  0.00  0.00    +0.000 C 
ATOM      8  N   UNL     1       0.912  13.359  21.726  0.00  0.00    +0.000 NA
ATOM      9  C   UNL     1       1.248  14.098  20.725  0.00  0.00    +0.000 C 
ATOM     10  N   UNL     1       2.276  14.978  20.818  0.00  0.00    +0.000 N 
ATOM     11  N   UNL     1       0.538  13.941  19.596  0.00  0.00    +0.000 N 
ATOM     12  C   UNL     1       0.516  14.786  18.417  0.00  0.00    +0.000 C 
ATOM     13  C   UNL     1      -0.344  12.920  19.780  0.00  0.00    +0.000 C 
ATOM     14  O   UNL     1      -0.986  12.364  18.891  0.00  0.00    +0.000 OA
ATOM     15  C   UNL     1      -1.551  12.961  22.173  0.00  0.00    +0.000 C 
ATOM     16  C   UNL     1      -1.610  14.484  22.438  0.00  0.00    +0.000 C 
ATOM     17  C   UNL     1      -2.071  15.241  21.179  0.00  0.00    +0.000 C 
ATOM     18  C   UNL     1      -3.460  14.811  20.704  0.00  0.00    +0.000 C 
ATOM     19  C   UNL     1      -3.537  13.298  20.507  0.00  0.00    +0.000 C 
ATOM     20  C   UNL     1      -2.984  12.544  21.701  0.00  0.00    +0.000 C 
ATOM     21  C   UNL     1      -1.317  12.044  23.427  0.00  0.00    +0.000 C 
ATOM     22  H   UNL     1       2.861  14.784  21.627  0.00  0.00    +0.000 HD
ATOM     23  H   UNL     1       2.814  15.123  19.975  0.00  0.00    +0.000 HD
ENDROOT
BRANCH   1  28
ATOM     24  C   UNL     1       2.705   7.419  18.449  0.00  0.00    +0.000 A 
ATOM     25  C   UNL     1       2.772   6.081  18.831  0.00  0.00    +0.000 A 
ATOM     26  C   UNL     1       2.197   5.661  20.028  0.00  0.00    +0.000 A 
ATOM     27  C   UNL     1       1.543   6.589  20.839  0.00  0.00    +0.000 A 
ATOM     28  C   UNL     1       1.428   7.942  20.461  0.00  0.00    +0.000 A 
ATOM     29  C   UNL     1       2.039   8.336  19.261  0.00  0.00    +0.000 A 
BRANCH  24  31
ATOM     30  C   UNL     1       4.464   6.975  16.932  0.00  0.00    +0.000 C 
ATOM     31  O   UNL     1       3.290   7.717  17.247  0.00  0.00    +0.000 OA
ENDBRANCH  24  31
ENDBRANCH   1  28
BRANCH  18  32
ATOM     32  O   UNL     1      -4.451  15.178  21.664  0.00  0.00    +0.000 OA
BRANCH  32  33
ATOM     33  C   UNL     1      -5.794  14.834  21.321  0.00  0.00    +0.000 C 
ATOM     34  C   UNL     1      -6.636  14.542  22.557  0.00  0.00    +0.000 C 
ATOM     35  C   UNL     1      -6.345  16.008  20.531  0.00  0.00    +0.000 C 
ENDBRANCH  32  33
ENDBRANCH  18  32
TORSDOF 4
ENDMDL
MODEL 7
REMARK VINA RESULT:      -6.6      3.700      5.601
REMARK  Name = 
REMARK  8 active torsions:
REMARK  status: ('A' for Active; 'I' for Inactive)
REMARK    1  A    between atoms: C_1  and  O_2
REMARK    2  A    between atoms: O_2  and  C_3
REMARK    3  A    between atoms: C_7  and  C_8
REMARK    4  A    between atoms: N_18  and  C_19
REMARK    5  A    between atoms: C_25  and  O_26
REMARK    6  A    between atoms: O_26  and  C_27
REMARK    7  A    between atoms: C_27  and  C_28
REMARK    8  A    between atoms: C_27  and  C_29
REMARK                            x       y       z     vdW  Elec       q    Type
REMARK                         _______ _______ _______ _____ _____    ______ ____
ROOT
ATOM      1  C   UNL     1       1.700  13.733  19.927  0.00  0.00    +0.000 A 
ATOM      2  C   UNL     1       1.577  12.382  19.518  0.00  0.00    +0.000 A 
ATOM      3  C   UNL     1       0.646  11.506  20.108  0.00  0.00    +0.000 A 
ATOM      4  C   UNL     1      -0.206  12.009  21.071  0.00  0.00    +0.000 A 
ATOM      5  C   UNL     1      -0.191  13.372  21.354  0.00  0.00    +0.000 A 
ATOM      6  C   UNL     1       0.778  14.215  20.857  0.00  0.00    +0.000 A 
ATOM      7  C   UNL     1      -1.323  13.757  22.242  0.00  0.00    +0.000 C 
ATOM      8  N   UNL     1      -0.843  13.859  23.663  0.00  0.00    +0.000 NA
ATOM      9  C   UNL     1      -1.289  14.987  24.096  0.00  0.00    +0.000 C 
ATOM     10  N   UNL     1      -1.091  15.370  25.382  0.00  0.00    +0.000 N 
ATOM     11  N   UNL     1      -1.944  15.757  23.212  0.00  0.00    +0.000 N 
ATOM     12  C   UNL     1      -2.758  16.931  23.462  0.00  0.00    +0.000 C 
ATOM     13  C   UNL     1      -1.886  15.155  21.992  0.00  0.00    +0.000 C 
ATOM     14  O   UNL     1      -2.180  15.683  20.921  0.00  0.00    +0.000 OA
ATOM     15  C   UNL     1      -2.289  12.506  22.079  0.00  0.00    +0.000 C 
ATOM     16  C   UNL     1      -3.266  12.404  23.275  0.00  0.00    +0.000 C 
ATOM     17  C   UNL     1      -4.360  13.484  23.180  0.00  0.00    +0.000 C 
ATOM     18  C   UNL     1      -5.194  13.371  21.903  0.00  0.00    +0.000 C 
ATOM     19  C   UNL     1      -4.309  13.361  20.659  0.00  0.00    +0.000 C 
ATOM     20  C   UNL     1      -3.164  12.377  20.788  0.00  0.00    +0.000 C 
ATOM     21  C   UNL     1      -1.258  11.332  21.921  0.00  0.00    +0.000 C 
ATOM     22  H   UNL     1      -0.367  14.815  25.830  0.00  0.00    +0.000 HD
ATOM     23  H   UNL     1      -0.971  16.362  25.537  0.00  0.00    +0.000 HD
ENDROOT
BRANCH   1  28
ATOM     24  C   UNL     1       3.850  16.823  19.575  0.00  0.00    +0.000 A 
ATOM     25  C   UNL     1       4.594  16.517  18.437  0.00  0.00    +0.000 A 
ATOM     26  C   UNL     1       4.466  15.271  17.828  0.00  0.00    +0.000 A 
ATOM     27  C   UNL     1       3.579  14.334  18.358  0.00  0.00    +0.000 A 
ATOM     28  C   UNL     1       2.787  14.629  19.487  0.00  0.00    +0.000 A 
ATOM     29  C   UNL     1       2.958  15.884  20.091  0.00  0.00    +0.000 A 
BRANCH  24  31
ATOM     30  C   UNL     1       3.148  18.472  21.118  0.00  0.00    +0.000 C 
ATOM     31  O   UNL     1       4.043  18.081  20.082  0.00  0.00    +0.000 OA
ENDBRANCH  24  31
ENDBRANCH   1  28
BRANCH  18  32
ATOM     32  O   UNL     1      -5.955  12.163  21.909  0.00  0.00    +0.000 OA
BRANCH  32  33
ATOM     33  C   UNL     1      -6.889  12.021  20.838  0.00  0.00    +0.000 C 
ATOM     34  C   UNL     1      -7.583  10.664  20.870  0.00  0.00    +0.000 C 
ATOM     35  C   UNL     1      -7.881  13.162  20.986  0.00  0.00    +0.000 C 
ENDBRANCH  32  33
ENDBRANCH  18  32
TORSDOF 4
ENDMDL
MODEL 8
REMARK VINA RESULT:      -6.5      1.511      1.905
REMARK  Name = 
REMARK  8 active torsions:
REMARK  status: ('A' for Active; 'I' for Inactive)
REMARK    1  A    between atoms: C_1  and  O_2
REMARK    2  A    between atoms: O_2  and  C_3
REMARK    3  A    between atoms: C_7  and  C_8
REMARK    4  A    between atoms: N_18  and  C_19
REMARK    5  A    between atoms: C_25  and  O_26
REMARK    6  A    between atoms: O_26  and  C_27
REMARK    7  A    between atoms: C_27  and  C_28
REMARK    8  A    between atoms: C_27  and  C_29
REMARK                            x       y       z     vdW  Elec       q    Type
REMARK                         _______ _______ _______ _____ _____    ______ ____
ROOT
ATOM      1  C   UNL     1       0.344  10.107  20.712  0.00  0.00    +0.000 A 
ATOM      2  C   UNL     1      -0.537   9.701  21.745  0.00  0.00    +0.000 A 
ATOM      3  C   UNL     1      -1.046  10.611  22.691  0.00  0.00    +0.000 A 
ATOM      4  C   UNL     1      -0.714  11.945  22.561  0.00  0.00    +0.000 A 
ATOM      5  C   UNL     1       0.020  12.362  21.453  0.00  0.00    +0.000 A 
ATOM      6  C   UNL     1       0.603  11.471  20.580  0.00  0.00    +0.000 A 
ATOM      7  C   UNL     1       0.082  13.848  21.369  0.00  0.00    +0.000 C 
ATOM      8  N   UNL     1       1.392  14.334  21.926  0.00  0.00    +0.000 NA
ATOM      9  C   UNL     1       1.854  15.157  21.048  0.00  0.00    +0.000 C 
ATOM     10  N   UNL     1       3.007  15.837  21.265  0.00  0.00    +0.000 N 
ATOM     11  N   UNL     1       1.144  15.292  19.916  0.00  0.00    +0.000 N 
ATOM     12  C   UNL     1       1.272  16.303  18.883  0.00  0.00    +0.000 C 
ATOM     13  C   UNL     1       0.109  14.408  19.949  0.00  0.00    +0.000 C 
ATOM     14  O   UNL     1      -0.601  14.105  18.992  0.00  0.00    +0.000 OA
ATOM     15  C   UNL     1      -1.110  14.267  22.332  0.00  0.00    +0.000 C 
ATOM     16  C   UNL     1      -0.930  15.721  22.832  0.00  0.00    +0.000 C 
ATOM     17  C   UNL     1      -1.248  16.727  21.711  0.00  0.00    +0.000 C 
ATOM     18  C   UNL     1      -2.680  16.602  21.191  0.00  0.00    +0.000 C 
ATOM     19  C   UNL     1      -2.994  15.170  20.762  0.00  0.00    +0.000 C 
ATOM     20  C   UNL     1      -2.584  14.162  21.817  0.00  0.00    +0.000 C 
ATOM     21  C   UNL     1      -1.041  13.141  23.426  0.00  0.00    +0.000 C 
ATOM     22  H   UNL     1       3.543  15.430  22.027  0.00  0.00    +0.000 HD
ATOM     23  H   UNL     1       3.573  16.025  20.449  0.00  0.00    +0.000 HD
ENDROOT
BRANCH   1  28
ATOM     24  C   UNL     1       2.364   7.122  19.570  0.00  0.00    +0.000 A 
ATOM     25  C   UNL     1       2.747   7.518  18.290  0.00  0.00    +0.000 A 
ATOM     26  C   UNL     1       2.281   8.717  17.756  0.00  0.00    +0.000 A 
ATOM     27  C   UNL     1       1.435   9.525  18.516  0.00  0.00    +0.000 A 
ATOM     28  C   UNL     1       1.060   9.167  19.827  0.00  0.00    +0.000 A 
ATOM     29  C   UNL     1       1.527   7.942  20.326  0.00  0.00    +0.000 A 
BRANCH  24  31
ATOM     30  C   UNL     1       2.004   5.087  20.719  0.00  0.00    +0.000 C 
ATOM     31  O   UNL     1       2.894   5.934  20.000  0.00  0.00    +0.000 OA
ENDBRANCH  24  31
ENDBRANCH   1  28
BRANCH  18  32
ATOM     32  O   UNL     1      -3.614  16.968  22.207  0.00  0.00    +0.000 OA
BRANCH  32  33
ATOM     33  C   UNL     1      -4.558  17.975  21.839  0.00  0.00    +0.000 C 
ATOM     34  C   UNL     1      -4.196  18.629  20.511  0.00  0.00    +0.000 C 
ATOM     35  C   UNL     1      -5.910  17.287  21.774  0.00  0.00    +0.000 C 
ENDBRANCH  32  33
ENDBRANCH  18  32
TORSDOF 4
ENDMDL
MODEL 9
REMARK VINA RESULT:      -6.5      4.094      6.538
REMARK  Name = 
REMARK  8 active torsions:
REMARK  status: ('A' for Active; 'I' for Inactive)
REMARK    1  A    between atoms: C_1  and  O_2
REMARK    2  A    between atoms: O_2  and  C_3
REMARK    3  A    between atoms: C_7  and  C_8
REMARK    4  A    between atoms: N_18  and  C_19
REMARK    5  A    between atoms: C_25  and  O_26
REMARK    6  A    between atoms: O_26  and  C_27
REMARK    7  A    between atoms: C_27  and  C_28
REMARK    8  A    between atoms: C_27  and  C_29
REMARK                            x       y       z     vdW  Elec       q    Type
REMARK                         _______ _______ _______ _____ _____    ______ ____
ROOT
ATOM      1  C   UNL     1       3.499  15.760  18.922  0.00  0.00    +0.000 A 
ATOM      2  C   UNL     1       2.764  16.971  18.934  0.00  0.00    +0.000 A 
ATOM      3  C   UNL     1       1.357  16.989  18.996  0.00  0.00    +0.000 A 
ATOM      4  C   UNL     1       0.692  15.785  19.108  0.00  0.00    +0.000 A 
ATOM      5  C   UNL     1       1.424  14.610  19.258  0.00  0.00    +0.000 A 
ATOM      6  C   UNL     1       2.791  14.571  19.099  0.00  0.00    +0.000 A 
ATOM      7  C   UNL     1       0.541  13.457  19.589  0.00  0.00    +0.000 C 
ATOM      8  N   UNL     1       0.261  12.658  18.347  0.00  0.00    +0.000 NA
ATOM      9  C   UNL     1       0.485  11.430  18.670  0.00  0.00    +0.000 C 
ATOM     10  N   UNL     1       0.264  10.423  17.789  0.00  0.00    +0.000 N 
ATOM     11  N   UNL     1       0.955  11.209  19.909  0.00  0.00    +0.000 N 
ATOM     12  C   UNL     1       1.057   9.952  20.626  0.00  0.00    +0.000 C 
ATOM     13  C   UNL     1       1.172  12.412  20.508  0.00  0.00    +0.000 C 
ATOM     14  O   UNL     1       1.803  12.587  21.549  0.00  0.00    +0.000 OA
ATOM     15  C   UNL     1      -0.778  14.199  20.071  0.00  0.00    +0.000 C 
ATOM     16  C   UNL     1      -2.006  13.264  19.968  0.00  0.00    +0.000 C 
ATOM     17  C   UNL     1      -1.982  12.205  21.087  0.00  0.00    +0.000 C 
ATOM     18  C   UNL     1      -1.999  12.822  22.486  0.00  0.00    +0.000 C 
ATOM     19  C   UNL     1      -0.877  13.843  22.658  0.00  0.00    +0.000 C 
ATOM     20  C   UNL     1      -0.824  14.825  21.505  0.00  0.00    +0.000 C 
ATOM     21  C   UNL     1      -0.785  15.463  19.138  0.00  0.00    +0.000 C 
ATOM     22  H   UNL     1       0.171  10.772  16.839  0.00  0.00    +0.000 HD
ATOM     23  H   UNL     1       0.889   9.632  17.853  0.00  0.00    +0.000 HD
ENDROOT
BRANCH   1  28
ATOM     24  C   UNL     1       7.098  16.815  18.449  0.00  0.00    +0.000 A 
ATOM     25  C   UNL     1       7.634  15.700  17.809  0.00  0.00    +0.000 A 
ATOM     26  C   UNL     1       6.854  14.564  17.606  0.00  0.00    +0.000 A 
ATOM     27  C   UNL     1       5.528  14.554  18.038  0.00  0.00    +0.000 A 
ATOM     28  C   UNL     1       4.949  15.682  18.655  0.00  0.00    +0.000 A 
ATOM     29  C   UNL     1       5.768  16.800  18.867  0.00  0.00    +0.000 A 
BRANCH  24  31
ATOM     30  C   UNL     1       9.324  17.554  18.755  0.00  0.00    +0.000 C 
ATOM     31  O   UNL     1       7.949  17.881  18.582  0.00  0.00    +0.000 OA
ENDBRANCH  24  31
ENDBRANCH   1  28
BRANCH  18  32
ATOM     32  O   UNL     1      -3.239  13.490  22.721  0.00  0.00    +0.000 OA
BRANCH  32  33
ATOM     33  C   UNL     1      -3.540  13.760  24.092  0.00  0.00    +0.000 C 
ATOM     34  C   UNL     1      -4.369  15.028  24.249  0.00  0.00    +0.000 C 
ATOM     35  C   UNL     1      -4.277  12.539  24.613  0.00  0.00    +0.000 C 
ENDBRANCH  32  33
ENDBRANCH  18  32
TORSDOF 4
ENDMDL
