MODEL 1
REMARK VINA RESULT:      -8.5      0.000      0.000
REMARK  Name = 
REMARK  10 active torsions:
REMARK  status: ('A' for Active; 'I' for Inactive)
REMARK    1  A    between atoms: C_1  and  O_2
REMARK    2  A    between atoms: O_2  and  C_3
REMARK    3  A    between atoms: C_6  and  C_7
REMARK    4  A    between atoms: C_7  and  C_8
REMARK    5  A    between atoms: C_8  and  C_9
REMARK    6  A    between atoms: N_11  and  C_12
REMARK    7  A    between atoms: C_12  and  C_13
REMARK    8  A    between atoms: C_13  and  C_14
REMARK    9  A    between atoms: C_17  and  C_18
REMARK   10  A    between atoms: C_21  and  C_22
REMARK                            x       y       z     vdW  Elec       q    Type
REMARK                         _______ _______ _______ _____ _____    ______ ____
ROOT
ATOM      1  C   UNL     1       5.885   4.572  16.463  0.00  0.00    +0.000 C 
ENDROOT
BRANCH   1   2
ATOM      2  C   UNL     1       4.932   4.945  17.551  0.00  0.00    +0.000 A 
ATOM      3  C   UNL     1       4.626   4.189  18.664  0.00  0.00    +0.000 A 
ATOM      4  S   UNL     1       3.502   5.006  19.648  0.00  0.00    +0.000 S 
ATOM      5  C   UNL     1       3.474   6.316  18.524  0.00  0.00    +0.000 A 
ATOM      6  N   UNL     1       4.250   6.152  17.469  0.00  0.00    +0.000 NA
BRANCH   5   7
ATOM      7  C   UNL     1       2.589   7.471  18.753  0.00  0.00    +0.000 A 
ATOM      8  C   UNL     1       1.970   7.697  19.991  0.00  0.00    +0.000 A 
ATOM      9  C   UNL     1       1.107   8.779  20.176  0.00  0.00    +0.000 A 
ATOM     10  C   UNL     1       0.865   9.683  19.135  0.00  0.00    +0.000 A 
ATOM     11  C   UNL     1       1.484   9.466  17.894  0.00  0.00    +0.000 A 
ATOM     12  C   UNL     1       2.341   8.375  17.708  0.00  0.00    +0.000 A 
BRANCH  10  13
ATOM     13  C   UNL     1      -0.010  10.891  19.364  0.00  0.00    +0.000 C 
ATOM     14  F   UNL     1      -1.343  10.611  19.300  0.00  0.00    +0.000 F 
ATOM     15  F   UNL     1       0.192  11.449  20.591  0.00  0.00    +0.000 F 
ATOM     16  F   UNL     1       0.206  11.883  18.457  0.00  0.00    +0.000 F 
ENDBRANCH  10  13
ENDBRANCH   5   7
ENDBRANCH   1   2
BRANCH   1  17
ATOM     17  C   UNL     1       7.289   5.103  16.728  0.00  0.00    +0.000 C 
BRANCH  17  20
ATOM     18  C   UNL     1       7.839   7.225  17.834  0.00  0.00    +0.000 C 
ATOM     19  O   UNL     1       8.128   6.654  18.880  0.00  0.00    +0.000 OA
ATOM     20  N   UNL     1       7.380   6.553  16.713  0.00  0.00    +0.000 N 
ATOM     21  H   UNL     1       7.120   7.070  15.884  0.00  0.00    +0.000 HD
BRANCH  18  22
ATOM     22  C   UNL     1       7.905   8.731  17.659  0.00  0.00    +0.000 C 
BRANCH  22  23
ATOM     23  C   UNL     1       8.758   9.372  18.755  0.00  0.00    +0.000 C 
BRANCH  23  27
ATOM     24  C   UNL     1      10.447  13.172  17.527  0.00  0.00    +0.000 A 
ATOM     25  C   UNL     1       9.064  12.997  17.606  0.00  0.00    +0.000 A 
ATOM     26  C   UNL     1       8.523  11.777  18.026  0.00  0.00    +0.000 A 
ATOM     27  C   UNL     1       9.357  10.696  18.339  0.00  0.00    +0.000 A 
ATOM     28  C   UNL     1      10.744  10.876  18.252  0.00  0.00    +0.000 A 
ATOM     29  C   UNL     1      11.286  12.104  17.853  0.00  0.00    +0.000 A 
BRANCH  24  31
ATOM     30  C   UNL     1      10.188  15.509  17.690  0.00  0.00    +0.000 C 
ATOM     31  O   UNL     1      10.871  14.402  17.107  0.00  0.00    +0.000 OA
ENDBRANCH  24  31
ENDBRANCH  23  27
ENDBRANCH  22  23
ENDBRANCH  18  22
ENDBRANCH  17  20
ENDBRANCH   1  17
TORSDOF 9
ENDMDL
MODEL 2
REMARK VINA RESULT:      -7.8      1.486      2.053
REMARK  Name = 
REMARK  10 active torsions:
REMARK  status: ('A' for Active; 'I' for Inactive)
REMARK    1  A    between atoms: C_1  and  O_2
REMARK    2  A    between atoms: O_2  and  C_3
REMARK    3  A    between atoms: C_6  and  C_7
REMARK    4  A    between atoms: C_7  and  C_8
REMARK    5  A    between atoms: C_8  and  C_9
REMARK    6  A    between atoms: N_11  and  C_12
REMARK    7  A    between atoms: C_12  and  C_13
REMARK    8  A    between atoms: C_13  and  C_14
REMARK    9  A    between atoms: C_17  and  C_18
REMARK   10  A    between atoms: C_21  and  C_22
REMARK                            x       y       z     vdW  Elec       q    Type
REMARK                         _______ _______ _______ _____ _____    ______ ____
ROOT
ATOM      1  C   UNL     1       5.709   4.133  19.080  0.00  0.00    +0.000 C 
ENDROOT
BRANCH   1   2
ATOM      2  C   UNL     1       4.355   4.667  18.745  0.00  0.00    +0.000 A 
ATOM      3  C   UNL     1       3.351   3.990  18.083  0.00  0.00    +0.000 A 
ATOM      4  S   UNL     1       1.971   4.975  17.927  0.00  0.00    +0.000 S 
ATOM      5  C   UNL     1       2.798   6.257  18.735  0.00  0.00    +0.000 A 
ATOM      6  N   UNL     1       4.037   5.973  19.094  0.00  0.00    +0.000 NA
BRANCH   5   7
ATOM      7  C   UNL     1       2.139   7.559  18.928  0.00  0.00    +0.000 A 
ATOM      8  C   UNL     1       1.980   8.473  17.876  0.00  0.00    +0.000 A 
ATOM      9  C   UNL     1       1.384   9.718  18.088  0.00  0.00    +0.000 A 
ATOM     10  C   UNL     1       0.900  10.069  19.354  0.00  0.00    +0.000 A 
ATOM     11  C   UNL     1       1.052   9.159  20.411  0.00  0.00    +0.000 A 
ATOM     12  C   UNL     1       1.660   7.916  20.198  0.00  0.00    +0.000 A 
BRANCH  10  13
ATOM     13  C   UNL     1       0.191  11.384  19.560  0.00  0.00    +0.000 C 
ATOM     14  F   UNL     1       0.938  12.299  20.241  0.00  0.00    +0.000 F 
ATOM     15  F   UNL     1      -0.140  11.982  18.381  0.00  0.00    +0.000 F 
ATOM     16  F   UNL     1      -0.970  11.258  20.259  0.00  0.00    +0.000 F 
ENDBRANCH  10  13
ENDBRANCH   5   7
ENDBRANCH   1   2
BRANCH   1  17
ATOM     17  C   UNL     1       6.791   4.720  18.182  0.00  0.00    +0.000 C 
BRANCH  17  20
ATOM     18  C   UNL     1       7.347   6.934  17.278  0.00  0.00    +0.000 C 
ATOM     19  O   UNL     1       7.556   6.473  16.161  0.00  0.00    +0.000 OA
ATOM     20  N   UNL     1       6.994   6.148  18.362  0.00  0.00    +0.000 N 
ATOM     21  H   UNL     1       6.868   6.568  19.273  0.00  0.00    +0.000 HD
BRANCH  18  22
ATOM     22  C   UNL     1       7.496   8.406  17.615  0.00  0.00    +0.000 C 
BRANCH  22  23
ATOM     23  C   UNL     1       8.694   8.638  18.538  0.00  0.00    +0.000 C 
BRANCH  23  27
ATOM     24  C   UNL     1       9.465  12.835  19.305  0.00  0.00    +0.000 A 
ATOM     25  C   UNL     1       9.734  11.870  20.278  0.00  0.00    +0.000 A 
ATOM     26  C   UNL     1       9.506  10.514  20.018  0.00  0.00    +0.000 A 
ATOM     27  C   UNL     1       8.970  10.103  18.792  0.00  0.00    +0.000 A 
ATOM     28  C   UNL     1       8.695  11.076  17.822  0.00  0.00    +0.000 A 
ATOM     29  C   UNL     1       8.945  12.431  18.074  0.00  0.00    +0.000 A 
BRANCH  24  31
ATOM     30  C   UNL     1      10.816  14.304  20.559  0.00  0.00    +0.000 C 
ATOM     31  O   UNL     1       9.724  14.130  19.660  0.00  0.00    +0.000 OA
ENDBRANCH  24  31
ENDBRANCH  23  27
ENDBRANCH  22  23
ENDBRANCH  18  22
ENDBRANCH  17  20
ENDBRANCH   1  17
TORSDOF 9
ENDMDL
MODEL 3
REMARK VINA RESULT:      -7.7      1.577      1.992
REMARK  Name = 
REMARK  10 active torsions:
REMARK  status: ('A' for Active; 'I' for Inactive)
REMARK    1  A    between atoms: C_1  and  O_2
REMARK    2  A    between atoms: O_2  and  C_3
REMARK    3  A    between atoms: C_6  and  C_7
REMARK    4  A    between atoms: C_7  and  C_8
REMARK    5  A    between atoms: C_8  and  C_9
REMARK    6  A    between atoms: N_11  and  C_12
REMARK    7  A    between atoms: C_12  and  C_13
REMARK    8  A    between atoms: C_13  and  C_14
REMARK    9  A    between atoms: C_17  and  C_18
REMARK   10  A    between atoms: C_21  and  C_22
REMARK                            x       y       z     vdW  Elec       q    Type
REMARK                         _______ _______ _______ _____ _____    ______ ____
ROOT
ATOM      1  C   UNL     1       5.293   4.060  18.933  0.00  0.00    +0.000 C 
ENDROOT
BRANCH   1   2
ATOM      2  C   UNL     1       3.992   4.631  19.394  0.00  0.00    +0.000 A 
ATOM      3  C   UNL     1       2.959   3.935  19.987  0.00  0.00    +0.000 A 
ATOM      4  S   UNL     1       1.673   4.985  20.364  0.00  0.00    +0.000 S 
ATOM      5  C   UNL     1       2.560   6.307  19.696  0.00  0.00    +0.000 A 
ATOM      6  N   UNL     1       3.745   5.985  19.211  0.00  0.00    +0.000 NA
BRANCH   5   7
ATOM      7  C   UNL     1       1.963   7.652  19.650  0.00  0.00    +0.000 A 
ATOM      8  C   UNL     1       1.930   8.409  18.469  0.00  0.00    +0.000 A 
ATOM      9  C   UNL     1       1.392   9.697  18.454  0.00  0.00    +0.000 A 
ATOM     10  C   UNL     1       0.841  10.251  19.617  0.00  0.00    +0.000 A 
ATOM     11  C   UNL     1       0.867   9.499  20.801  0.00  0.00    +0.000 A 
ATOM     12  C   UNL     1       1.417   8.212  20.815  0.00  0.00    +0.000 A 
BRANCH  10  13
ATOM     13  C   UNL     1       0.194  11.613  19.578  0.00  0.00    +0.000 C 
ATOM     14  F   UNL     1      -1.032  11.611  18.982  0.00  0.00    +0.000 F 
ATOM     15  F   UNL     1      -0.002  12.127  20.825  0.00  0.00    +0.000 F 
ATOM     16  F   UNL     1       0.934  12.534  18.902  0.00  0.00    +0.000 F 
ENDBRANCH  10  13
ENDBRANCH   5   7
ENDBRANCH   1   2
BRANCH   1  17
ATOM     17  C   UNL     1       5.963   4.942  17.886  0.00  0.00    +0.000 C 
BRANCH  17  20
ATOM     18  C   UNL     1       7.529   6.815  17.622  0.00  0.00    +0.000 C 
ATOM     19  O   UNL     1       7.664   6.589  16.424  0.00  0.00    +0.000 OA
ATOM     20  N   UNL     1       6.733   6.039  18.449  0.00  0.00    +0.000 N 
ATOM     21  H   UNL     1       6.682   6.241  19.438  0.00  0.00    +0.000 HD
BRANCH  18  22
ATOM     22  C   UNL     1       8.250   7.936  18.346  0.00  0.00    +0.000 C 
BRANCH  22  23
ATOM     23  C   UNL     1       8.320   9.193  17.477  0.00  0.00    +0.000 C 
BRANCH  23  27
ATOM     24  C   UNL     1       9.709  12.700  19.616  0.00  0.00    +0.000 A 
ATOM     25  C   UNL     1       9.104  12.820  18.363  0.00  0.00    +0.000 A 
ATOM     26  C   UNL     1       8.635  11.688  17.687  0.00  0.00    +0.000 A 
ATOM     27  C   UNL     1       8.797  10.411  18.236  0.00  0.00    +0.000 A 
ATOM     28  C   UNL     1       9.411  10.296  19.490  0.00  0.00    +0.000 A 
ATOM     29  C   UNL     1       9.860  11.430  20.178  0.00  0.00    +0.000 A 
BRANCH  24  31
ATOM     30  C   UNL     1      10.046  13.906  21.613  0.00  0.00    +0.000 C 
ATOM     31  O   UNL     1      10.130  13.867  20.191  0.00  0.00    +0.000 OA
ENDBRANCH  24  31
ENDBRANCH  23  27
ENDBRANCH  22  23
ENDBRANCH  18  22
ENDBRANCH  17  20
ENDBRANCH   1  17
TORSDOF 9
ENDMDL
MODEL 4
REMARK VINA RESULT:      -7.4      1.687      2.067
REMARK  Name = 
REMARK  10 active torsions:
REMARK  status: ('A' for Active; 'I' for Inactive)
REMARK    1  A    between atoms: C_1  and  O_2
REMARK    2  A    between atoms: O_2  and  C_3
REMARK    3  A    between atoms: C_6  and  C_7
REMARK    4  A    between atoms: C_7  and  C_8
REMARK    5  A    between atoms: C_8  and  C_9
REMARK    6  A    between atoms: N_11  and  C_12
REMARK    7  A    between atoms: C_12  and  C_13
REMARK    8  A    between atoms: C_13  and  C_14
REMARK    9  A    between atoms: C_17  and  C_18
REMARK   10  A    between atoms: C_21  and  C_22
REMARK                            x       y       z     vdW  Elec       q    Type
REMARK                         _______ _______ _______ _____ _____    ______ ____
ROOT
ATOM      1  C   UNL     1       4.753   5.471  17.457  0.00  0.00    +0.000 C 
ENDROOT
BRANCH   1   2
ATOM      2  C   UNL     1       3.732   5.681  18.527  0.00  0.00    +0.000 A 
ATOM      3  C   UNL     1       3.210   4.713  19.360  0.00  0.00    +0.000 A 
ATOM      4  S   UNL     1       2.086   5.400  20.439  0.00  0.00    +0.000 S 
ATOM      5  C   UNL     1       2.345   6.948  19.720  0.00  0.00    +0.000 A 
ATOM      6  N   UNL     1       3.213   6.954  18.726  0.00  0.00    +0.000 NA
BRANCH   5   7
ATOM      7  C   UNL     1       1.585   8.119  20.188  0.00  0.00    +0.000 A 
ATOM      8  C   UNL     1       1.159   8.245  21.518  0.00  0.00    +0.000 A 
ATOM      9  C   UNL     1       0.409   9.347  21.933  0.00  0.00    +0.000 A 
ATOM     10  C   UNL     1       0.090  10.370  21.032  0.00  0.00    +0.000 A 
ATOM     11  C   UNL     1       0.515  10.254  19.699  0.00  0.00    +0.000 A 
ATOM     12  C   UNL     1       1.259   9.143  19.284  0.00  0.00    +0.000 A 
BRANCH  10  13
ATOM     13  C   UNL     1      -0.657  11.593  21.503  0.00  0.00    +0.000 C 
ATOM     14  F   UNL     1      -1.653  11.308  22.389  0.00  0.00    +0.000 F 
ATOM     15  F   UNL     1       0.158  12.483  22.136  0.00  0.00    +0.000 F 
ATOM     16  F   UNL     1      -1.249  12.279  20.486  0.00  0.00    +0.000 F 
ENDBRANCH  10  13
ENDBRANCH   5   7
ENDBRANCH   1   2
BRANCH   1  17
ATOM     17  C   UNL     1       6.058   4.917  18.017  0.00  0.00    +0.000 C 
BRANCH  17  20
ATOM     18  C   UNL     1       7.482   6.899  17.747  0.00  0.00    +0.000 C 
ATOM     19  O   UNL     1       7.305   6.914  16.534  0.00  0.00    +0.000 OA
ATOM     20  N   UNL     1       6.936   5.932  18.575  0.00  0.00    +0.000 N 
ATOM     21  H   UNL     1       7.140   5.939  19.565  0.00  0.00    +0.000 HD
BRANCH  18  22
ATOM     22  C   UNL     1       8.353   7.905  18.476  0.00  0.00    +0.000 C 
BRANCH  22  23
ATOM     23  C   UNL     1       8.192   9.304  17.879  0.00  0.00    +0.000 C 
BRANCH  23  27
ATOM     24  C   UNL     1      10.908  12.212  19.600  0.00  0.00    +0.000 A 
ATOM     25  C   UNL     1      10.105  11.414  20.417  0.00  0.00    +0.000 A 
ATOM     26  C   UNL     1       9.247  10.460  19.858  0.00  0.00    +0.000 A 
ATOM     27  C   UNL     1       9.150  10.313  18.469  0.00  0.00    +0.000 A 
ATOM     28  C   UNL     1       9.953  11.122  17.654  0.00  0.00    +0.000 A 
ATOM     29  C   UNL     1      10.829  12.061  18.214  0.00  0.00    +0.000 A 
BRANCH  24  31
ATOM     30  C   UNL     1      11.512  14.473  19.877  0.00  0.00    +0.000 C 
ATOM     31  O   UNL     1      11.711  13.111  20.246  0.00  0.00    +0.000 OA
ENDBRANCH  24  31
ENDBRANCH  23  27
ENDBRANCH  22  23
ENDBRANCH  18  22
ENDBRANCH  17  20
ENDBRANCH   1  17
TORSDOF 9
ENDMDL
MODEL 5
REMARK VINA RESULT:      -7.4      4.054      6.900
REMARK  Name = 
REMARK  10 active torsions:
REMARK  status: ('A' for Active; 'I' for Inactive)
REMARK    1  A    between atoms: C_1  and  O_2
REMARK    2  A    between atoms: O_2  and  C_3
REMARK    3  A    between atoms: C_6  and  C_7
REMARK    4  A    between atoms: C_7  and  C_8
REMARK    5  A    between atoms: C_8  and  C_9
REMARK    6  A    between atoms: N_11  and  C_12
REMARK    7  A    between atoms: C_12  and  C_13
REMARK    8  A    between atoms: C_13  and  C_14
REMARK    9  A    between atoms: C_17  and  C_18
REMARK   10  A    between atoms: C_21  and  C_22
REMARK                            x       y       z     vdW  Elec       q    Type
REMARK                         _______ _______ _______ _____ _____    ______ ____
ROOT
ATOM      1  C   UNL     1       1.996   8.292  18.800  0.00  0.00    +0.000 C 
ENDROOT
BRANCH   1   2
ATOM      2  C   UNL     1       1.361   9.620  19.056  0.00  0.00    +0.000 A 
ATOM      3  C   UNL     1       1.632  10.797  18.389  0.00  0.00    +0.000 A 
ATOM      4  S   UNL     1       0.668  12.062  18.997  0.00  0.00    +0.000 S 
ATOM      5  C   UNL     1      -0.045  10.970  20.129  0.00  0.00    +0.000 A 
ATOM      6  N   UNL     1       0.415   9.734  20.066  0.00  0.00    +0.000 NA
BRANCH   5   7
ATOM      7  C   UNL     1      -1.040  11.455  21.100  0.00  0.00    +0.000 A 
ATOM      8  C   UNL     1      -0.997  11.087  22.453  0.00  0.00    +0.000 A 
ATOM      9  C   UNL     1      -1.970  11.529  23.351  0.00  0.00    +0.000 A 
ATOM     10  C   UNL     1      -2.998  12.378  22.924  0.00  0.00    +0.000 A 
ATOM     11  C   UNL     1      -3.047  12.754  21.572  0.00  0.00    +0.000 A 
ATOM     12  C   UNL     1      -2.075  12.301  20.673  0.00  0.00    +0.000 A 
BRANCH  10  13
ATOM     13  C   UNL     1      -4.005  12.912  23.913  0.00  0.00    +0.000 C 
ATOM     14  F   UNL     1      -4.182  12.100  24.994  0.00  0.00    +0.000 F 
ATOM     15  F   UNL     1      -3.640  14.124  24.417  0.00  0.00    +0.000 F 
ATOM     16  F   UNL     1      -5.242  13.085  23.371  0.00  0.00    +0.000 F 
ENDBRANCH  10  13
ENDBRANCH   5   7
ENDBRANCH   1   2
BRANCH   1  17
ATOM     17  C   UNL     1       1.980   7.405  20.039  0.00  0.00    +0.000 C 
BRANCH  17  20
ATOM     18  C   UNL     1       2.283   4.974  20.200  0.00  0.00    +0.000 C 
ATOM     19  O   UNL     1       1.134   4.813  20.595  0.00  0.00    +0.000 OA
ATOM     20  N   UNL     1       2.817   6.222  19.925  0.00  0.00    +0.000 N 
ATOM     21  H   UNL     1       3.782   6.308  19.637  0.00  0.00    +0.000 HD
BRANCH  18  22
ATOM     22  C   UNL     1       3.268   3.835  20.011  0.00  0.00    +0.000 C 
BRANCH  22  23
ATOM     23  C   UNL     1       3.586   3.627  18.529  0.00  0.00    +0.000 C 
BRANCH  23  27
ATOM     24  C   UNL     1       6.700   6.293  17.117  0.00  0.00    +0.000 A 
ATOM     25  C   UNL     1       6.841   5.607  18.324  0.00  0.00    +0.000 A 
ATOM     26  C   UNL     1       5.844   4.728  18.765  0.00  0.00    +0.000 A 
ATOM     27  C   UNL     1       4.671   4.550  18.022  0.00  0.00    +0.000 A 
ATOM     28  C   UNL     1       4.532   5.247  16.815  0.00  0.00    +0.000 A 
ATOM     29  C   UNL     1       5.539   6.108  16.362  0.00  0.00    +0.000 A 
BRANCH  24  31
ATOM     30  C   UNL     1       7.962   8.202  17.682  0.00  0.00    +0.000 C 
ATOM     31  O   UNL     1       7.731   7.124  16.778  0.00  0.00    +0.000 OA
ENDBRANCH  24  31
ENDBRANCH  23  27
ENDBRANCH  22  23
ENDBRANCH  18  22
ENDBRANCH  17  20
ENDBRANCH   1  17
TORSDOF 9
ENDMDL
MODEL 6
REMARK VINA RESULT:      -7.2      4.699      7.506
REMARK  Name = 
REMARK  10 active torsions:
REMARK  status: ('A' for Active; 'I' for Inactive)
REMARK    1  A    between atoms: C_1  and  O_2
REMARK    2  A    between atoms: O_2  and  C_3
REMARK    3  A    between atoms: C_6  and  C_7
REMARK    4  A    between atoms: C_7  and  C_8
REMARK    5  A    between atoms: C_8  and  C_9
REMARK    6  A    between atoms: N_11  and  C_12
REMARK    7  A    between atoms: C_12  and  C_13
REMARK    8  A    between atoms: C_13  and  C_14
REMARK    9  A    between atoms: C_17  and  C_18
REMARK   10  A    between atoms: C_21  and  C_22
REMARK                            x       y       z     vdW  Elec       q    Type
REMARK                         _______ _______ _______ _____ _____    ______ ____
ROOT
ATOM      1  C   UNL     1       2.754   7.910  17.503  0.00  0.00    +0.000 C 
ENDROOT
BRANCH   1   2
ATOM      2  C   UNL     1       2.139   7.945  18.864  0.00  0.00    +0.000 A 
ATOM      3  C   UNL     1       2.226   6.959  19.825  0.00  0.00    +0.000 A 
ATOM      4  S   UNL     1       1.387   7.423  21.232  0.00  0.00    +0.000 S 
ATOM      5  C   UNL     1       0.938   8.907  20.472  0.00  0.00    +0.000 A 
ATOM      6  N   UNL     1       1.380   9.047  19.236  0.00  0.00    +0.000 NA
BRANCH   5   7
ATOM      7  C   UNL     1       0.081   9.873  21.179  0.00  0.00    +0.000 A 
ATOM      8  C   UNL     1      -0.238   9.726  22.537  0.00  0.00    +0.000 A 
ATOM      9  C   UNL     1      -1.081  10.635  23.181  0.00  0.00    +0.000 A 
ATOM     10  C   UNL     1      -1.602  11.735  22.489  0.00  0.00    +0.000 A 
ATOM     11  C   UNL     1      -1.284  11.891  21.131  0.00  0.00    +0.000 A 
ATOM     12  C   UNL     1      -0.447  10.973  20.486  0.00  0.00    +0.000 A 
BRANCH  10  13
ATOM     13  C   UNL     1      -2.452  12.753  23.208  0.00  0.00    +0.000 C 
ATOM     14  F   UNL     1      -3.359  12.195  24.058  0.00  0.00    +0.000 F 
ATOM     15  F   UNL     1      -1.706  13.603  23.969  0.00  0.00    +0.000 F 
ATOM     16  F   UNL     1      -3.172  13.539  22.360  0.00  0.00    +0.000 F 
ENDBRANCH  10  13
ENDBRANCH   5   7
ENDBRANCH   1   2
BRANCH   1  17
ATOM     17  C   UNL     1       4.276   7.923  17.565  0.00  0.00    +0.000 C 
BRANCH  17  20
ATOM     18  C   UNL     1       5.355   6.116  16.301  0.00  0.00    +0.000 C 
ATOM     19  O   UNL     1       5.247   6.731  15.246  0.00  0.00    +0.000 OA
ATOM     20  N   UNL     1       4.877   6.601  17.507  0.00  0.00    +0.000 N 
ATOM     21  H   UNL     1       4.956   6.041  18.345  0.00  0.00    +0.000 HD
BRANCH  18  22
ATOM     22  C   UNL     1       5.978   4.736  16.402  0.00  0.00    +0.000 C 
BRANCH  22  23
ATOM     23  C   UNL     1       4.935   3.644  16.156  0.00  0.00    +0.000 C 
BRANCH  23  27
ATOM     24  C   UNL     1       2.142   3.184  19.440  0.00  0.00    +0.000 A 
ATOM     25  C   UNL     1       3.514   3.027  19.642  0.00  0.00    +0.000 A 
ATOM     26  C   UNL     1       4.414   3.200  18.585  0.00  0.00    +0.000 A 
ATOM     27  C   UNL     1       3.954   3.497  17.297  0.00  0.00    +0.000 A 
ATOM     28  C   UNL     1       2.575   3.646  17.098  0.00  0.00    +0.000 A 
ATOM     29  C   UNL     1       1.675   3.495  18.161  0.00  0.00    +0.000 A 
BRANCH  24  31
ATOM     30  C   UNL     1       1.973   3.273  21.789  0.00  0.00    +0.000 C 
ATOM     31  O   UNL     1       1.350   2.994  20.538  0.00  0.00    +0.000 OA
ENDBRANCH  24  31
ENDBRANCH  23  27
ENDBRANCH  22  23
ENDBRANCH  18  22
ENDBRANCH  17  20
ENDBRANCH   1  17
TORSDOF 9
ENDMDL
MODEL 7
REMARK VINA RESULT:      -7.2      1.558      1.958
REMARK  Name = 
REMARK  10 active torsions:
REMARK  status: ('A' for Active; 'I' for Inactive)
REMARK    1  A    between atoms: C_1  and  O_2
REMARK    2  A    between atoms: O_2  and  C_3
REMARK    3  A    between atoms: C_6  and  C_7
REMARK    4  A    between atoms: C_7  and  C_8
REMARK    5  A    between atoms: C_8  and  C_9
REMARK    6  A    between atoms: N_11  and  C_12
REMARK    7  A    between atoms: C_12  and  C_13
REMARK    8  A    between atoms: C_13  and  C_14
REMARK    9  A    between atoms: C_17  and  C_18
REMARK   10  A    between atoms: C_21  and  C_22
REMARK                            x       y       z     vdW  Elec       q    Type
REMARK                         _______ _______ _______ _____ _____    ______ ____
ROOT
ATOM      1  C   UNL     1       5.901   4.090  18.974  0.00  0.00    +0.000 C 
ENDROOT
BRANCH   1   2
ATOM      2  C   UNL     1       4.529   4.592  18.663  0.00  0.00    +0.000 A 
ATOM      3  C   UNL     1       3.534   3.897  18.006  0.00  0.00    +0.000 A 
ATOM      4  S   UNL     1       2.127   4.847  17.881  0.00  0.00    +0.000 S 
ATOM      5  C   UNL     1       2.930   6.140  18.694  0.00  0.00    +0.000 A 
ATOM      6  N   UNL     1       4.181   5.885  19.033  0.00  0.00    +0.000 NA
BRANCH   5   7
ATOM      7  C   UNL     1       2.240   7.422  18.912  0.00  0.00    +0.000 A 
ATOM      8  C   UNL     1       1.764   7.803  20.175  0.00  0.00    +0.000 A 
ATOM      9  C   UNL     1       1.080   9.007  20.354  0.00  0.00    +0.000 A 
ATOM     10  C   UNL     1       0.883   9.879  19.276  0.00  0.00    +0.000 A 
ATOM     11  C   UNL     1       1.359   9.508  18.010  0.00  0.00    +0.000 A 
ATOM     12  C   UNL     1       2.035   8.295  17.832  0.00  0.00    +0.000 A 
BRANCH  10  13
ATOM     13  C   UNL     1       0.209  11.212  19.490  0.00  0.00    +0.000 C 
ATOM     14  F   UNL     1       1.063  12.270  19.391  0.00  0.00    +0.000 F 
ATOM     15  F   UNL     1      -0.775  11.445  18.576  0.00  0.00    +0.000 F 
ATOM     16  F   UNL     1      -0.378  11.322  20.713  0.00  0.00    +0.000 F 
ENDBRANCH  10  13
ENDBRANCH   5   7
ENDBRANCH   1   2
BRANCH   1  17
ATOM     17  C   UNL     1       6.972   4.838  18.189  0.00  0.00    +0.000 C 
BRANCH  17  20
ATOM     18  C   UNL     1       7.407   7.151  17.488  0.00  0.00    +0.000 C 
ATOM     19  O   UNL     1       7.762   6.791  16.370  0.00  0.00    +0.000 OA
ATOM     20  N   UNL     1       7.026   6.262  18.479  0.00  0.00    +0.000 N 
ATOM     21  H   UNL     1       6.776   6.603  19.397  0.00  0.00    +0.000 HD
BRANCH  18  22
ATOM     22  C   UNL     1       7.389   8.602  17.930  0.00  0.00    +0.000 C 
BRANCH  22  23
ATOM     23  C   UNL     1       8.664   9.325  17.492  0.00  0.00    +0.000 C 
BRANCH  23  27
ATOM     24  C   UNL     1       9.668  12.640  20.099  0.00  0.00    +0.000 A 
ATOM     25  C   UNL     1       9.712  11.326  20.567  0.00  0.00    +0.000 A 
ATOM     26  C   UNL     1       9.410  10.257  19.716  0.00  0.00    +0.000 A 
ATOM     27  C   UNL     1       9.023  10.487  18.390  0.00  0.00    +0.000 A 
ATOM     28  C   UNL     1       8.975  11.809  17.928  0.00  0.00    +0.000 A 
ATOM     29  C   UNL     1       9.298  12.878  18.773  0.00  0.00    +0.000 A 
BRANCH  24  31
ATOM     30  C   UNL     1       9.284  14.842  20.849  0.00  0.00    +0.000 C 
ATOM     31  O   UNL     1       9.982  13.610  21.011  0.00  0.00    +0.000 OA
ENDBRANCH  24  31
ENDBRANCH  23  27
ENDBRANCH  22  23
ENDBRANCH  18  22
ENDBRANCH  17  20
ENDBRANCH   1  17
TORSDOF 9
ENDMDL
MODEL 8
REMARK VINA RESULT:      -7.1      1.565      1.975
REMARK  Name = 
REMARK  10 active torsions:
REMARK  status: ('A' for Active; 'I' for Inactive)
REMARK    1  A    between atoms: C_1  and  O_2
REMARK    2  A    between atoms: O_2  and  C_3
REMARK    3  A    between atoms: C_6  and  C_7
REMARK    4  A    between atoms: C_7  and  C_8
REMARK    5  A    between atoms: C_8  and  C_9
REMARK    6  A    between atoms: N_11  and  C_12
REMARK    7  A    between atoms: C_12  and  C_13
REMARK    8  A    between atoms: C_13  and  C_14
REMARK    9  A    between atoms: C_17  and  C_18
REMARK   10  A    between atoms: C_21  and  C_22
REMARK                            x       y       z     vdW  Elec       q    Type
REMARK                         _______ _______ _______ _____ _____    ______ ____
ROOT
ATOM      1  C   UNL     1       5.739   3.814  16.890  0.00  0.00    +0.000 C 
ENDROOT
BRANCH   1   2
ATOM      2  C   UNL     1       4.830   4.396  17.924  0.00  0.00    +0.000 A 
ATOM      3  C   UNL     1       4.494   3.823  19.133  0.00  0.00    +0.000 A 
ATOM      4  S   UNL     1       3.442   4.840  20.003  0.00  0.00    +0.000 S 
ATOM      5  C   UNL     1       3.477   5.980  18.707  0.00  0.00    +0.000 A 
ATOM      6  N   UNL     1       4.224   5.621  17.679  0.00  0.00    +0.000 NA
BRANCH   5   7
ATOM      7  C   UNL     1       2.672   7.210  18.779  0.00  0.00    +0.000 A 
ATOM      8  C   UNL     1       2.549   8.082  17.687  0.00  0.00    +0.000 A 
ATOM      9  C   UNL     1       1.809   9.262  17.788  0.00  0.00    +0.000 A 
ATOM     10  C   UNL     1       1.144   9.585  18.977  0.00  0.00    +0.000 A 
ATOM     11  C   UNL     1       1.259   8.717  20.073  0.00  0.00    +0.000 A 
ATOM     12  C   UNL     1       2.010   7.540  19.973  0.00  0.00    +0.000 A 
BRANCH  10  13
ATOM     13  C   UNL     1       0.286  10.824  19.057  0.00  0.00    +0.000 C 
ATOM     14  F   UNL     1      -0.676  10.876  18.093  0.00  0.00    +0.000 F 
ATOM     15  F   UNL     1      -0.375  10.917  20.244  0.00  0.00    +0.000 F 
ATOM     16  F   UNL     1       1.001  11.975  18.930  0.00  0.00    +0.000 F 
ENDBRANCH  10  13
ENDBRANCH   5   7
ENDBRANCH   1   2
BRANCH   1  17
ATOM     17  C   UNL     1       6.489   4.893  16.119  0.00  0.00    +0.000 C 
BRANCH  17  20
ATOM     18  C   UNL     1       6.975   7.105  17.065  0.00  0.00    +0.000 C 
ATOM     19  O   UNL     1       6.061   7.624  16.434  0.00  0.00    +0.000 OA
ATOM     20  N   UNL     1       7.295   5.762  16.959  0.00  0.00    +0.000 N 
ATOM     21  H   UNL     1       8.081   5.387  17.472  0.00  0.00    +0.000 HD
BRANCH  18  22
ATOM     22  C   UNL     1       7.889   7.878  17.998  0.00  0.00    +0.000 C 
BRANCH  22  23
ATOM     23  C   UNL     1       8.312   9.208  17.372  0.00  0.00    +0.000 C 
BRANCH  23  27
ATOM     24  C   UNL     1       9.811  12.077  20.257  0.00  0.00    +0.000 A 
ATOM     25  C   UNL     1       9.550  12.459  18.940  0.00  0.00    +0.000 A 
ATOM     26  C   UNL     1       9.043  11.536  18.018  0.00  0.00    +0.000 A 
ATOM     27  C   UNL     1       8.824  10.204  18.389  0.00  0.00    +0.000 A 
ATOM     28  C   UNL     1       9.095   9.825  19.710  0.00  0.00    +0.000 A 
ATOM     29  C   UNL     1       9.580  10.754  20.639  0.00  0.00    +0.000 A 
BRANCH  24  31
ATOM     30  C   UNL     1       9.328  13.721  21.876  0.00  0.00    +0.000 C 
ATOM     31  O   UNL     1      10.302  13.055  21.077  0.00  0.00    +0.000 OA
ENDBRANCH  24  31
ENDBRANCH  23  27
ENDBRANCH  22  23
ENDBRANCH  18  22
ENDBRANCH  17  20
ENDBRANCH   1  17
TORSDOF 9
ENDMDL
MODEL 9
REMARK VINA RESULT:      -7.1      4.317      7.433
REMARK  Name = 
REMARK  10 active torsions:
REMARK  status: ('A' for Active; 'I' for Inactive)
REMARK    1  A    between atoms: C_1  and  O_2
REMARK    2  A    between atoms: O_2  and  C_3
REMARK    3  A    between atoms: C_6  and  C_7
REMARK    4  A    between atoms: C_7  and  C_8
REMARK    5  A    between atoms: C_8  and  C_9
REMARK    6  A    between atoms: N_11  and  C_12
REMARK    7  A    between atoms: C_12  and  C_13
REMARK    8  A    between atoms: C_13  and  C_14
REMARK    9  A    between atoms: C_17  and  C_18
REMARK   10  A    between atoms: C_21  and  C_22
REMARK                            x       y       z     vdW  Elec       q    Type
REMARK                         _______ _______ _______ _____ _____    ______ ____
ROOT
ATOM      1  C   UNL     1       3.976   1.757  20.770  0.00  0.00    +0.000 C 
ENDROOT
BRANCH   1   2
ATOM      2  C   UNL     1       4.267   2.618  19.584  0.00  0.00    +0.000 A 
ATOM      3  C   UNL     1       3.827   2.406  18.294  0.00  0.00    +0.000 A 
ATOM      4  S   UNL     1       4.384   3.643  17.265  0.00  0.00    +0.000 S 
ATOM      5  C   UNL     1       5.198   4.381  18.596  0.00  0.00    +0.000 A 
ATOM      6  N   UNL     1       5.070   3.739  19.743  0.00  0.00    +0.000 NA
BRANCH   5   7
ATOM      7  C   UNL     1       6.000   5.598  18.392  0.00  0.00    +0.000 A 
ATOM      8  C   UNL     1       5.531   6.677  17.627  0.00  0.00    +0.000 A 
ATOM      9  C   UNL     1       6.322   7.808  17.417  0.00  0.00    +0.000 A 
ATOM     10  C   UNL     1       7.594   7.904  17.994  0.00  0.00    +0.000 A 
ATOM     11  C   UNL     1       8.069   6.831  18.765  0.00  0.00    +0.000 A 
ATOM     12  C   UNL     1       7.278   5.694  18.965  0.00  0.00    +0.000 A 
BRANCH  10  13
ATOM     13  C   UNL     1       8.414   9.159  17.825  0.00  0.00    +0.000 C 
ATOM     14  F   UNL     1       9.289   9.094  16.781  0.00  0.00    +0.000 F 
ATOM     15  F   UNL     1       7.638  10.254  17.589  0.00  0.00    +0.000 F 
ATOM     16  F   UNL     1       9.165   9.456  18.921  0.00  0.00    +0.000 F 
ENDBRANCH  10  13
ENDBRANCH   5   7
ENDBRANCH   1   2
BRANCH   1  17
ATOM     17  C   UNL     1       2.689   2.171  21.473  0.00  0.00    +0.000 C 
BRANCH  17  20
ATOM     18  C   UNL     1       1.371   4.051  20.603  0.00  0.00    +0.000 C 
ATOM     19  O   UNL     1       0.691   3.307  19.905  0.00  0.00    +0.000 OA
ATOM     20  N   UNL     1       2.411   3.596  21.397  0.00  0.00    +0.000 N 
ATOM     21  H   UNL     1       2.967   4.252  21.928  0.00  0.00    +0.000 HD
BRANCH  18  22
ATOM     22  C   UNL     1       1.184   5.556  20.646  0.00  0.00    +0.000 C 
BRANCH  22  23
ATOM     23  C   UNL     1       2.324   6.270  19.917  0.00  0.00    +0.000 C 
BRANCH  23  27
ATOM     24  C   UNL     1       1.366  10.335  18.755  0.00  0.00    +0.000 A 
ATOM     25  C   UNL     1       1.972   9.459  17.853  0.00  0.00    +0.000 A 
ATOM     26  C   UNL     1       2.258   8.140  18.225  0.00  0.00    +0.000 A 
ATOM     27  C   UNL     1       1.976   7.686  19.519  0.00  0.00    +0.000 A 
ATOM     28  C   UNL     1       1.375   8.572  20.422  0.00  0.00    +0.000 A 
ATOM     29  C   UNL     1       1.068   9.886  20.043  0.00  0.00    +0.000 A 
BRANCH  24  31
ATOM     30  C   UNL     1       1.152  12.622  19.284  0.00  0.00    +0.000 C 
ATOM     31  O   UNL     1       1.129  11.600  18.292  0.00  0.00    +0.000 OA
ENDBRANCH  24  31
ENDBRANCH  23  27
ENDBRANCH  22  23
ENDBRANCH  18  22
ENDBRANCH  17  20
ENDBRANCH   1  17
TORSDOF 9
ENDMDL
