MODEL 1
REMARK VINA RESULT:      -8.3      0.000      0.000
REMARK  Name = 
REMARK  5 active torsions:
REMARK  status: ('A' for Active; 'I' for Inactive)
REMARK    1  A    between atoms: C_1  and  C_2
REMARK    2  A    between atoms: C_8  and  C_9
REMARK    3  A    between atoms: C_14  and  C_15
REMARK    4  A    between atoms: N_18  and  C_19
REMARK    5  A    between atoms: C_19  and  C_20
REMARK                            x       y       z     vdW  Elec       q    Type
REMARK                         _______ _______ _______ _____ _____    ______ ____
ROOT
ATOM      1  C   UNL     1       4.043   2.573  20.424  0.00  0.00    +0.000 C 
ATOM      2  C   UNL     1       3.293   3.555  19.509  0.00  0.00    +0.000 C 
ATOM      3  C   UNL     1       3.649   5.054  19.720  0.00  0.00    +0.000 C 
ATOM      4  C   UNL     1       5.184   5.148  19.614  0.00  0.00    +0.000 C 
ATOM      5  C   UNL     1       5.624   4.704  18.238  0.00  0.00    +0.000 A 
ATOM      6  C   UNL     1       6.835   5.210  17.750  0.00  0.00    +0.000 A 
ATOM      7  C   UNL     1       7.164   5.046  16.412  0.00  0.00    +0.000 A 
ATOM      8  C   UNL     1       6.300   4.365  15.546  0.00  0.00    +0.000 A 
ATOM      9  C   UNL     1       5.136   3.765  16.062  0.00  0.00    +0.000 A 
ATOM     10  C   UNL     1       4.788   3.898  17.422  0.00  0.00    +0.000 A 
ATOM     11  C   UNL     1       3.476   3.275  17.985  0.00  0.00    +0.000 C 
ATOM     12  C   UNL     1       3.438   1.764  17.666  0.00  0.00    +0.000 C 
ATOM     13  C   UNL     1       2.220   3.929  17.355  0.00  0.00    +0.000 C 
ATOM     14  C   UNL     1       1.973   5.368  17.830  0.00  0.00    +0.000 C 
ATOM     15  N   UNL     1       2.985   5.908  18.716  0.00  0.00    +0.000 NA
ENDROOT
BRANCH   8  16
ATOM     16  C   UNL     1       6.671   4.373  14.102  0.00  0.00    +0.000 C 
ATOM     17  N   UNL     1       6.189   3.375  13.295  0.00  0.00    +0.000 N 
ATOM     18  O   UNL     1       7.360   5.252  13.616  0.00  0.00    +0.000 OA
ATOM     19  H   UNL     1       5.546   2.659  13.579  0.00  0.00    +0.000 HD
ATOM     20  H   UNL     1       6.407   3.456  12.310  0.00  0.00    +0.000 HD
ENDBRANCH   8  16
BRANCH  15  21
ATOM     21  C   UNL     1       3.170   7.352  18.693  0.00  0.00    +0.000 C 
BRANCH  21  22
ATOM     22  C   UNL     1       1.848   8.098  18.507  0.00  0.00    +0.000 C 
ATOM     23  C   UNL     1       1.316   8.832  19.754  0.00  0.00    +0.000 C 
ATOM     24  C   UNL     1       1.017  10.057  18.881  0.00  0.00    +0.000 C 
ATOM     25  C   UNL     1       1.906   9.462  17.778  0.00  0.00    +0.000 C 
ENDBRANCH  21  22
ENDBRANCH  15  21
TORSDOF 3
ENDMDL
MODEL 2
REMARK VINA RESULT:      -7.8      1.000      1.323
REMARK  Name = 
REMARK  5 active torsions:
REMARK  status: ('A' for Active; 'I' for Inactive)
REMARK    1  A    between atoms: C_1  and  C_2
REMARK    2  A    between atoms: C_8  and  C_9
REMARK    3  A    between atoms: C_14  and  C_15
REMARK    4  A    between atoms: N_18  and  C_19
REMARK    5  A    between atoms: C_19  and  C_20
REMARK                            x       y       z     vdW  Elec       q    Type
REMARK                         _______ _______ _______ _____ _____    ______ ____
ROOT
ATOM      1  C   UNL     1       4.081   2.506  20.555  0.00  0.00    +0.000 C 
ATOM      2  C   UNL     1       3.213   3.311  19.573  0.00  0.00    +0.000 C 
ATOM      3  C   UNL     1       3.294   4.855  19.736  0.00  0.00    +0.000 C 
ATOM      4  C   UNL     1       4.792   5.213  19.686  0.00  0.00    +0.000 C 
ATOM      5  C   UNL     1       5.365   4.807  18.346  0.00  0.00    +0.000 A 
ATOM      6  C   UNL     1       6.490   5.501  17.885  0.00  0.00    +0.000 A 
ATOM      7  C   UNL     1       6.902   5.353  16.569  0.00  0.00    +0.000 A 
ATOM      8  C   UNL     1       6.210   4.502  15.699  0.00  0.00    +0.000 A 
ATOM      9  C   UNL     1       5.145   3.725  16.193  0.00  0.00    +0.000 A 
ATOM     10  C   UNL     1       4.719   3.841  17.532  0.00  0.00    +0.000 A 
ATOM     11  C   UNL     1       3.511   3.016  18.069  0.00  0.00    +0.000 C 
ATOM     12  C   UNL     1       3.750   1.513  17.811  0.00  0.00    +0.000 C 
ATOM     13  C   UNL     1       2.190   3.419  17.365  0.00  0.00    +0.000 C 
ATOM     14  C   UNL     1       1.676   4.808  17.771  0.00  0.00    +0.000 C 
ATOM     15  N   UNL     1       2.537   5.546  18.673  0.00  0.00    +0.000 NA
ENDROOT
BRANCH   8  16
ATOM     16  C   UNL     1       6.637   4.527  14.271  0.00  0.00    +0.000 C 
ATOM     17  N   UNL     1       7.609   5.416  13.892  0.00  0.00    +0.000 N 
ATOM     18  O   UNL     1       6.173   3.763  13.443  0.00  0.00    +0.000 OA
ATOM     19  H   UNL     1       8.115   6.022  14.512  0.00  0.00    +0.000 HD
ATOM     20  H   UNL     1       7.920   5.353  12.931  0.00  0.00    +0.000 HD
ENDBRANCH   8  16
BRANCH  15  21
ATOM     21  C   UNL     1       2.470   6.999  18.598  0.00  0.00    +0.000 C 
BRANCH  21  22
ATOM     22  C   UNL     1       2.221   7.633  19.966  0.00  0.00    +0.000 C 
ATOM     23  C   UNL     1       1.358   8.912  19.961  0.00  0.00    +0.000 C 
ATOM     24  C   UNL     1       0.564   8.356  21.150  0.00  0.00    +0.000 C 
ATOM     25  C   UNL     1       1.157   6.966  20.869  0.00  0.00    +0.000 C 
ENDBRANCH  21  22
ENDBRANCH  15  21
TORSDOF 3
ENDMDL
MODEL 3
REMARK VINA RESULT:      -7.4      2.500      5.449
REMARK  Name = 
REMARK  5 active torsions:
REMARK  status: ('A' for Active; 'I' for Inactive)
REMARK    1  A    between atoms: C_1  and  C_2
REMARK    2  A    between atoms: C_8  and  C_9
REMARK    3  A    between atoms: C_14  and  C_15
REMARK    4  A    between atoms: N_18  and  C_19
REMARK    5  A    between atoms: C_19  and  C_20
REMARK                            x       y       z     vdW  Elec       q    Type
REMARK                         _______ _______ _______ _____ _____    ______ ____
ROOT
ATOM      1  C   UNL     1       7.571   5.468  19.134  0.00  0.00    +0.000 C 
ATOM      2  C   UNL     1       6.673   5.081  17.947  0.00  0.00    +0.000 C 
ATOM      3  C   UNL     1       5.581   4.020  18.266  0.00  0.00    +0.000 C 
ATOM      4  C   UNL     1       4.808   4.555  19.487  0.00  0.00    +0.000 C 
ATOM      5  C   UNL     1       4.157   5.874  19.135  0.00  0.00    +0.000 A 
ATOM      6  C   UNL     1       3.012   6.242  19.852  0.00  0.00    +0.000 A 
ATOM      7  C   UNL     1       2.230   7.300  19.411  0.00  0.00    +0.000 A 
ATOM      8  C   UNL     1       2.586   8.014  18.260  0.00  0.00    +0.000 A 
ATOM      9  C   UNL     1       3.793   7.711  17.603  0.00  0.00    +0.000 A 
ATOM     10  C   UNL     1       4.616   6.654  18.043  0.00  0.00    +0.000 A 
ATOM     11  C   UNL     1       5.930   6.286  17.289  0.00  0.00    +0.000 C 
ATOM     12  C   UNL     1       6.834   7.532  17.178  0.00  0.00    +0.000 C 
ATOM     13  C   UNL     1       5.638   5.777  15.854  0.00  0.00    +0.000 C 
ATOM     14  C   UNL     1       4.993   4.384  15.816  0.00  0.00    +0.000 C 
ATOM     15  N   UNL     1       4.687   3.809  17.110  0.00  0.00    +0.000 NA
ENDROOT
BRANCH   8  16
ATOM     16  C   UNL     1       1.605   9.031  17.784  0.00  0.00    +0.000 C 
ATOM     17  N   UNL     1       2.000  10.342  17.716  0.00  0.00    +0.000 N 
ATOM     18  O   UNL     1       0.479   8.728  17.429  0.00  0.00    +0.000 OA
ATOM     19  H   UNL     1       2.927  10.679  17.900  0.00  0.00    +0.000 HD
ATOM     20  H   UNL     1       1.328  10.989  17.323  0.00  0.00    +0.000 HD
ENDBRANCH   8  16
BRANCH  15  21
ATOM     21  C   UNL     1       3.574   2.871  17.162  0.00  0.00    +0.000 C 
BRANCH  21  22
ATOM     22  C   UNL     1       2.647   3.145  18.347  0.00  0.00    +0.000 C 
ATOM     23  C   UNL     1       1.264   3.727  17.990  0.00  0.00    +0.000 C 
ATOM     24  C   UNL     1       0.617   2.726  18.957  0.00  0.00    +0.000 C 
ATOM     25  C   UNL     1       1.930   1.927  18.975  0.00  0.00    +0.000 C 
ENDBRANCH  21  22
ENDBRANCH  15  21
TORSDOF 3
ENDMDL
MODEL 4
REMARK VINA RESULT:      -6.9      2.811      4.596
REMARK  Name = 
REMARK  5 active torsions:
REMARK  status: ('A' for Active; 'I' for Inactive)
REMARK    1  A    between atoms: C_1  and  C_2
REMARK    2  A    between atoms: C_8  and  C_9
REMARK    3  A    between atoms: C_14  and  C_15
REMARK    4  A    between atoms: N_18  and  C_19
REMARK    5  A    between atoms: C_19  and  C_20
REMARK                            x       y       z     vdW  Elec       q    Type
REMARK                         _______ _______ _______ _____ _____    ______ ____
ROOT
ATOM      1  C   UNL     1       5.415   3.531  15.813  0.00  0.00    +0.000 C 
ATOM      2  C   UNL     1       4.592   4.606  16.544  0.00  0.00    +0.000 C 
ATOM      3  C   UNL     1       4.458   4.401  18.079  0.00  0.00    +0.000 C 
ATOM      4  C   UNL     1       5.893   4.238  18.617  0.00  0.00    +0.000 C 
ATOM      5  C   UNL     1       6.685   5.494  18.333  0.00  0.00    +0.000 A 
ATOM      6  C   UNL     1       7.766   5.782  19.175  0.00  0.00    +0.000 A 
ATOM      7  C   UNL     1       8.367   7.032  19.127  0.00  0.00    +0.000 A 
ATOM      8  C   UNL     1       7.907   8.007  18.232  0.00  0.00    +0.000 A 
ATOM      9  C   UNL     1       6.892   7.679  17.315  0.00  0.00    +0.000 A 
ATOM     10  C   UNL     1       6.279   6.409  17.328  0.00  0.00    +0.000 A 
ATOM     11  C   UNL     1       5.122   6.060  16.344  0.00  0.00    +0.000 C 
ATOM     12  C   UNL     1       5.579   6.315  14.891  0.00  0.00    +0.000 C 
ATOM     13  C   UNL     1       3.868   6.930  16.611  0.00  0.00    +0.000 C 
ATOM     14  C   UNL     1       3.135   6.569  17.911  0.00  0.00    +0.000 C 
ATOM     15  N   UNL     1       3.770   5.543  18.713  0.00  0.00    +0.000 NA
ENDROOT
BRANCH   8  16
ATOM     16  C   UNL     1       8.515   9.361  18.362  0.00  0.00    +0.000 C 
ATOM     17  N   UNL     1       9.343   9.611  19.427  0.00  0.00    +0.000 N 
ATOM     18  O   UNL     1       8.323  10.239  17.539  0.00  0.00    +0.000 OA
ATOM     19  H   UNL     1       9.634   8.932  20.106  0.00  0.00    +0.000 HD
ATOM     20  H   UNL     1       9.789  10.519  19.439  0.00  0.00    +0.000 HD
ENDBRANCH   8  16
BRANCH  15  21
ATOM     21  C   UNL     1       3.533   5.596  20.149  0.00  0.00    +0.000 C 
BRANCH  21  22
ATOM     22  C   UNL     1       2.180   4.994  20.530  0.00  0.00    +0.000 C 
ATOM     23  C   UNL     1       1.497   4.145  19.439  0.00  0.00    +0.000 C 
ATOM     24  C   UNL     1       1.181   3.078  20.495  0.00  0.00    +0.000 C 
ATOM     25  C   UNL     1       2.197   3.741  21.438  0.00  0.00    +0.000 C 
ENDBRANCH  21  22
ENDBRANCH  15  21
TORSDOF 3
ENDMDL
MODEL 5
REMARK VINA RESULT:      -6.8      2.904      5.601
REMARK  Name = 
REMARK  5 active torsions:
REMARK  status: ('A' for Active; 'I' for Inactive)
REMARK    1  A    between atoms: C_1  and  C_2
REMARK    2  A    between atoms: C_8  and  C_9
REMARK    3  A    between atoms: C_14  and  C_15
REMARK    4  A    between atoms: N_18  and  C_19
REMARK    5  A    between atoms: C_19  and  C_20
REMARK                            x       y       z     vdW  Elec       q    Type
REMARK                         _______ _______ _______ _____ _____    ______ ____
ROOT
ATOM      1  C   UNL     1       1.118   1.833  18.268  0.00  0.00    +0.000 C 
ATOM      2  C   UNL     1       2.406   2.314  18.957  0.00  0.00    +0.000 C 
ATOM      3  C   UNL     1       3.487   2.892  18.000  0.00  0.00    +0.000 C 
ATOM      4  C   UNL     1       2.782   3.978  17.163  0.00  0.00    +0.000 C 
ATOM      5  C   UNL     1       2.269   5.067  18.078  0.00  0.00    +0.000 A 
ATOM      6  C   UNL     1       2.110   6.347  17.534  0.00  0.00    +0.000 A 
ATOM      7  C   UNL     1       1.891   7.432  18.371  0.00  0.00    +0.000 A 
ATOM      8  C   UNL     1       1.815   7.255  19.758  0.00  0.00    +0.000 A 
ATOM      9  C   UNL     1       1.869   5.954  20.293  0.00  0.00    +0.000 A 
ATOM     10  C   UNL     1       2.069   4.832  19.463  0.00  0.00    +0.000 A 
ATOM     11  C   UNL     1       2.176   3.396  20.058  0.00  0.00    +0.000 C 
ATOM     12  C   UNL     1       0.929   3.093  20.915  0.00  0.00    +0.000 C 
ATOM     13  C   UNL     1       3.427   3.247  20.962  0.00  0.00    +0.000 C 
ATOM     14  C   UNL     1       4.750   3.236  20.183  0.00  0.00    +0.000 C 
ATOM     15  N   UNL     1       4.628   3.447  18.755  0.00  0.00    +0.000 NA
ENDROOT
BRANCH   8  16
ATOM     16  C   UNL     1       1.729   8.496  20.579  0.00  0.00    +0.000 C 
ATOM     17  N   UNL     1       1.833   8.391  21.942  0.00  0.00    +0.000 N 
ATOM     18  O   UNL     1       1.600   9.598  20.075  0.00  0.00    +0.000 OA
ATOM     19  H   UNL     1       2.029   7.545  22.445  0.00  0.00    +0.000 HD
ATOM     20  H   UNL     1       1.840   9.263  22.456  0.00  0.00    +0.000 HD
ENDBRANCH   8  16
BRANCH  15  21
ATOM     21  C   UNL     1       5.767   4.060  18.085  0.00  0.00    +0.000 C 
BRANCH  21  22
ATOM     22  C   UNL     1       5.960   5.519  18.499  0.00  0.00    +0.000 C 
ATOM     23  C   UNL     1       7.423   5.972  18.679  0.00  0.00    +0.000 C 
ATOM     24  C   UNL     1       7.104   7.247  17.888  0.00  0.00    +0.000 C 
ATOM     25  C   UNL     1       5.806   6.590  17.393  0.00  0.00    +0.000 C 
ENDBRANCH  21  22
ENDBRANCH  15  21
TORSDOF 3
ENDMDL
MODEL 6
REMARK VINA RESULT:      -6.8      1.181      1.374
REMARK  Name = 
REMARK  5 active torsions:
REMARK  status: ('A' for Active; 'I' for Inactive)
REMARK    1  A    between atoms: C_1  and  C_2
REMARK    2  A    between atoms: C_8  and  C_9
REMARK    3  A    between atoms: C_14  and  C_15
REMARK    4  A    between atoms: N_18  and  C_19
REMARK    5  A    between atoms: C_19  and  C_20
REMARK                            x       y       z     vdW  Elec       q    Type
REMARK                         _______ _______ _______ _____ _____    ______ ____
ROOT
ATOM      1  C   UNL     1       4.325   1.817  20.758  0.00  0.00    +0.000 C 
ATOM      2  C   UNL     1       3.321   2.694  19.991  0.00  0.00    +0.000 C 
ATOM      3  C   UNL     1       3.368   4.208  20.342  0.00  0.00    +0.000 C 
ATOM      4  C   UNL     1       4.837   4.643  20.171  0.00  0.00    +0.000 C 
ATOM      5  C   UNL     1       5.262   4.435  18.735  0.00  0.00    +0.000 A 
ATOM      6  C   UNL     1       6.301   5.235  18.244  0.00  0.00    +0.000 A 
ATOM      7  C   UNL     1       6.561   5.272  16.882  0.00  0.00    +0.000 A 
ATOM      8  C   UNL     1       5.800   4.503  15.992  0.00  0.00    +0.000 A 
ATOM      9  C   UNL     1       4.829   3.620  16.498  0.00  0.00    +0.000 A 
ATOM     10  C   UNL     1       4.558   3.547  17.880  0.00  0.00    +0.000 A 
ATOM     11  C   UNL     1       3.450   2.604  18.438  0.00  0.00    +0.000 C 
ATOM     12  C   UNL     1       3.708   1.158  17.962  0.00  0.00    +0.000 C 
ATOM     13  C   UNL     1       2.043   3.026  17.944  0.00  0.00    +0.000 C 
ATOM     14  C   UNL     1       1.533   4.327  18.582  0.00  0.00    +0.000 C 
ATOM     15  N   UNL     1       2.469   4.988  19.469  0.00  0.00    +0.000 NA
ENDROOT
BRANCH   8  16
ATOM     16  C   UNL     1       6.056   4.726  14.541  0.00  0.00    +0.000 C 
ATOM     17  N   UNL     1       7.177   5.425  14.171  0.00  0.00    +0.000 N 
ATOM     18  O   UNL     1       5.319   4.283  13.677  0.00  0.00    +0.000 OA
ATOM     19  H   UNL     1       7.889   5.751  14.798  0.00  0.00    +0.000 HD
ATOM     20  H   UNL     1       7.350   5.493  13.177  0.00  0.00    +0.000 HD
ENDBRANCH   8  16
BRANCH  15  21
ATOM     21  C   UNL     1       2.343   6.434  19.591  0.00  0.00    +0.000 C 
BRANCH  21  22
ATOM     22  C   UNL     1       2.242   7.119  18.228  0.00  0.00    +0.000 C 
ATOM     23  C   UNL     1       1.743   8.578  18.251  0.00  0.00    +0.000 C 
ATOM     24  C   UNL     1       2.867   8.956  17.278  0.00  0.00    +0.000 C 
ATOM     25  C   UNL     1       3.560   7.621  17.593  0.00  0.00    +0.000 C 
ENDBRANCH  21  22
ENDBRANCH  15  21
TORSDOF 3
ENDMDL
MODEL 7
REMARK VINA RESULT:      -6.6      9.663     11.778
REMARK  Name = 
REMARK  5 active torsions:
REMARK  status: ('A' for Active; 'I' for Inactive)
REMARK    1  A    between atoms: C_1  and  C_2
REMARK    2  A    between atoms: C_8  and  C_9
REMARK    3  A    between atoms: C_14  and  C_15
REMARK    4  A    between atoms: N_18  and  C_19
REMARK    5  A    between atoms: C_19  and  C_20
REMARK                            x       y       z     vdW  Elec       q    Type
REMARK                         _______ _______ _______ _____ _____    ______ ____
ROOT
ATOM      1  C   UNL     1       8.892  10.204  18.308  0.00  0.00    +0.000 C 
ATOM      2  C   UNL     1      10.039  11.169  18.652  0.00  0.00    +0.000 C 
ATOM      3  C   UNL     1      10.305  12.278  17.595  0.00  0.00    +0.000 C 
ATOM      4  C   UNL     1       8.951  12.975  17.355  0.00  0.00    +0.000 C 
ATOM      5  C   UNL     1       8.469  13.599  18.646  0.00  0.00    +0.000 A 
ATOM      6  C   UNL     1       7.605  14.697  18.551  0.00  0.00    +0.000 A 
ATOM      7  C   UNL     1       7.334  15.463  19.676  0.00  0.00    +0.000 A 
ATOM      8  C   UNL     1       7.909  15.139  20.911  0.00  0.00    +0.000 A 
ATOM      9  C   UNL     1       8.691  13.975  21.026  0.00  0.00    +0.000 A 
ATOM     10  C   UNL     1       8.964  13.167  19.903  0.00  0.00    +0.000 A 
ATOM     11  C   UNL     1       9.868  11.903  20.019  0.00  0.00    +0.000 C 
ATOM     12  C   UNL     1       9.316  10.965  21.113  0.00  0.00    +0.000 C 
ATOM     13  C   UNL     1      11.323  12.278  20.399  0.00  0.00    +0.000 C 
ATOM     14  C   UNL     1      12.096  12.969  19.267  0.00  0.00    +0.000 C 
ATOM     15  N   UNL     1      11.328  13.232  18.066  0.00  0.00    +0.000 NA
ENDROOT
BRANCH   8  16
ATOM     16  C   UNL     1       7.678  16.108  22.021  0.00  0.00    +0.000 C 
ATOM     17  N   UNL     1       8.763  16.591  22.706  0.00  0.00    +0.000 N 
ATOM     18  O   UNL     1       6.563  16.502  22.314  0.00  0.00    +0.000 OA
ATOM     19  H   UNL     1       9.722  16.398  22.484  0.00  0.00    +0.000 HD
ATOM     20  H   UNL     1       8.568  17.298  23.404  0.00  0.00    +0.000 HD
ENDBRANCH   8  16
BRANCH  15  21
ATOM     21  C   UNL     1      11.745  14.372  17.261  0.00  0.00    +0.000 C 
BRANCH  21  22
ATOM     22  C   UNL     1      11.305  15.701  17.875  0.00  0.00    +0.000 C 
ATOM     23  C   UNL     1      12.330  16.849  17.782  0.00  0.00    +0.000 C 
ATOM     24  C   UNL     1      11.205  17.791  17.334  0.00  0.00    +0.000 C 
ATOM     25  C   UNL     1      10.321  16.565  17.051  0.00  0.00    +0.000 C 
ENDBRANCH  21  22
ENDBRANCH  15  21
TORSDOF 3
ENDMDL
MODEL 8
REMARK VINA RESULT:      -6.4      3.015      6.430
REMARK  Name = 
REMARK  5 active torsions:
REMARK  status: ('A' for Active; 'I' for Inactive)
REMARK    1  A    between atoms: C_1  and  C_2
REMARK    2  A    between atoms: C_8  and  C_9
REMARK    3  A    between atoms: C_14  and  C_15
REMARK    4  A    between atoms: N_18  and  C_19
REMARK    5  A    between atoms: C_19  and  C_20
REMARK                            x       y       z     vdW  Elec       q    Type
REMARK                         _______ _______ _______ _____ _____    ______ ____
ROOT
ATOM      1  C   UNL     1       1.421   3.992  17.258  0.00  0.00    +0.000 C 
ATOM      2  C   UNL     1       2.651   4.291  18.133  0.00  0.00    +0.000 C 
ATOM      3  C   UNL     1       3.633   5.346  17.549  0.00  0.00    +0.000 C 
ATOM      4  C   UNL     1       2.781   6.589  17.221  0.00  0.00    +0.000 C 
ATOM      5  C   UNL     1       2.151   7.119  18.489  0.00  0.00    +0.000 A 
ATOM      6  C   UNL     1       1.822   8.479  18.529  0.00  0.00    +0.000 A 
ATOM      7  C   UNL     1       1.483   9.073  19.736  0.00  0.00    +0.000 A 
ATOM      8  C   UNL     1       1.454   8.319  20.916  0.00  0.00    +0.000 A 
ATOM      9  C   UNL     1       1.682   6.932  20.856  0.00  0.00    +0.000 A 
ATOM     10  C   UNL     1       2.007   6.299  19.638  0.00  0.00    +0.000 A 
ATOM     11  C   UNL     1       2.306   4.770  19.577  0.00  0.00    +0.000 C 
ATOM     12  C   UNL     1       1.122   3.984  20.181  0.00  0.00    +0.000 C 
ATOM     13  C   UNL     1       3.580   4.408  20.380  0.00  0.00    +0.000 C 
ATOM     14  C   UNL     1       4.881   4.888  19.719  0.00  0.00    +0.000 C 
ATOM     15  N   UNL     1       4.708   5.665  18.509  0.00  0.00    +0.000 NA
ENDROOT
BRANCH   8  16
ATOM     16  C   UNL     1       1.227   9.078  22.179  0.00  0.00    +0.000 C 
ATOM     17  N   UNL     1      -0.059   9.238  22.627  0.00  0.00    +0.000 N 
ATOM     18  O   UNL     1       2.148   9.531  22.837  0.00  0.00    +0.000 OA
ATOM     19  H   UNL     1      -0.873   8.829  22.208  0.00  0.00    +0.000 HD
ATOM     20  H   UNL     1      -0.163   9.698  23.523  0.00  0.00    +0.000 HD
ENDBRANCH   8  16
BRANCH  15  21
ATOM     21  C   UNL     1       5.748   6.637  18.202  0.00  0.00    +0.000 C 
BRANCH  21  22
ATOM     22  C   UNL     1       6.724   6.120  17.145  0.00  0.00    +0.000 C 
ATOM     23  C   UNL     1       7.254   4.690  17.371  0.00  0.00    +0.000 C 
ATOM     24  C   UNL     1       6.996   4.382  15.891  0.00  0.00    +0.000 C 
ATOM     25  C   UNL     1       6.121   5.643  15.803  0.00  0.00    +0.000 C 
ENDBRANCH  21  22
ENDBRANCH  15  21
TORSDOF 3
ENDMDL
MODEL 9
REMARK VINA RESULT:      -6.3      9.706     11.919
REMARK  Name = 
REMARK  5 active torsions:
REMARK  status: ('A' for Active; 'I' for Inactive)
REMARK    1  A    between atoms: C_1  and  C_2
REMARK    2  A    between atoms: C_8  and  C_9
REMARK    3  A    between atoms: C_14  and  C_15
REMARK    4  A    between atoms: N_18  and  C_19
REMARK    5  A    between atoms: C_19  and  C_20
REMARK                            x       y       z     vdW  Elec       q    Type
REMARK                         _______ _______ _______ _____ _____    ______ ____
ROOT
ATOM      1  C   UNL     1       9.303  10.667  19.404  0.00  0.00    +0.000 C 
ATOM      2  C   UNL     1      10.035  11.986  19.704  0.00  0.00    +0.000 C 
ATOM      3  C   UNL     1      10.486  12.788  18.450  0.00  0.00    +0.000 C 
ATOM      4  C   UNL     1       9.229  12.955  17.574  0.00  0.00    +0.000 C 
ATOM      5  C   UNL     1       8.182  13.736  18.335  0.00  0.00    +0.000 A 
ATOM      6  C   UNL     1       7.240  14.455  17.589  0.00  0.00    +0.000 A 
ATOM      7  C   UNL     1       6.424  15.385  18.217  0.00  0.00    +0.000 A 
ATOM      8  C   UNL     1       6.524  15.600  19.597  0.00  0.00    +0.000 A 
ATOM      9  C   UNL     1       7.395  14.801  20.360  0.00  0.00    +0.000 A 
ATOM     10  C   UNL     1       8.221  13.835  19.750  0.00  0.00    +0.000 A 
ATOM     11  C   UNL     1       9.221  12.982  20.587  0.00  0.00    +0.000 C 
ATOM     12  C   UNL     1       8.465  12.261  21.725  0.00  0.00    +0.000 C 
ATOM     13  C   UNL     1      10.322  13.863  21.228  0.00  0.00    +0.000 C 
ATOM     14  C   UNL     1      11.336  14.414  20.214  0.00  0.00    +0.000 C 
ATOM     15  N   UNL     1      11.059  14.095  18.828  0.00  0.00    +0.000 NA
ENDROOT
BRANCH   8  16
ATOM     16  C   UNL     1       5.713  16.722  20.151  0.00  0.00    +0.000 C 
ATOM     17  N   UNL     1       5.231  16.615  21.430  0.00  0.00    +0.000 N 
ATOM     18  O   UNL     1       5.492  17.737  19.514  0.00  0.00    +0.000 OA
ATOM     19  H   UNL     1       5.432  15.864  22.064  0.00  0.00    +0.000 HD
ATOM     20  H   UNL     1       4.746  17.427  21.791  0.00  0.00    +0.000 HD
ENDBRANCH   8  16
BRANCH  15  21
ATOM     21  C   UNL     1      11.543  15.039  17.831  0.00  0.00    +0.000 C 
BRANCH  21  22
ATOM     22  C   UNL     1      11.290  16.490  18.242  0.00  0.00    +0.000 C 
ATOM     23  C   UNL     1      12.093  17.552  17.465  0.00  0.00    +0.000 C 
ATOM     24  C   UNL     1      10.813  18.384  17.319  0.00  0.00    +0.000 C 
ATOM     25  C   UNL     1       9.990  17.151  17.725  0.00  0.00    +0.000 C 
ENDBRANCH  21  22
ENDBRANCH  15  21
TORSDOF 3
ENDMDL
