MODEL 1
REMARK VINA RESULT:      -8.0      0.000      0.000
REMARK  Name = 
REMARK  6 active torsions:
REMARK  status: ('A' for Active; 'I' for Inactive)
REMARK    1  A    between atoms: N_1  and  C_2
REMARK    2  A    between atoms: C_2  and  C_3
REMARK    3  A    between atoms: C_3  and  C_4
REMARK    4  A    between atoms: C_3  and  C_18
REMARK    5  A    between atoms: N_6  and  C_7
REMARK    6  A    between atoms: C_11  and  O_12
REMARK                            x       y       z     vdW  Elec       q    Type
REMARK                         _______ _______ _______ _____ _____    ______ ____
ROOT
ATOM      1  C   UNL     1       2.874   4.825  18.231  0.00  0.00    +0.000 C 
ATOM      2  O   UNL     1       1.703   4.587  17.904  0.00  0.00    +0.000 OA
ATOM      3  N   UNL     1       3.312   6.056  18.708  0.00  0.00    +0.000 N 
ATOM      4  H   UNL     1       4.315   6.224  18.601  0.00  0.00    +0.000 HD
ENDROOT
BRANCH   3   5
ATOM      5  C   UNL     1       2.467   7.171  18.901  0.00  0.00    +0.000 A 
ATOM      6  C   UNL     1       2.243   8.106  17.892  0.00  0.00    +0.000 A 
ATOM      7  C   UNL     1       1.590   9.308  18.157  0.00  0.00    +0.000 A 
ATOM      8  C   UNL     1       1.108   9.595  19.448  0.00  0.00    +0.000 A 
ATOM      9  C   UNL     1       0.524  10.818  19.829  0.00  0.00    +0.000 A 
ATOM     10  N   UNL     1       0.121  11.114  21.077  0.00  0.00    +0.000 NA
ATOM     11  C   UNL     1       0.266  10.151  22.003  0.00  0.00    +0.000 A 
ATOM     12  C   UNL     1       0.791   8.896  21.740  0.00  0.00    +0.000 A 
ATOM     13  C   UNL     1       1.247   8.608  20.448  0.00  0.00    +0.000 A 
ATOM     14  C   UNL     1       1.890   7.385  20.155  0.00  0.00    +0.000 A 
BRANCH   9  15
ATOM     15  O   UNL     1       0.326  11.842  18.945  0.00  0.00    +0.000 OA
ATOM     16  H   UNL     1      -0.520  12.257  19.161  0.00  0.00    +0.000 HD
ENDBRANCH   9  15
ENDBRANCH   3   5
BRANCH   1  17
ATOM     17  C   UNL     1       3.957   3.743  18.154  0.00  0.00    +0.000 C 
BRANCH  17  18
ATOM     18  C   UNL     1       5.071   4.133  17.178  0.00  0.00    +0.000 A 
ATOM     19  C   UNL     1       4.824   4.172  15.799  0.00  0.00    +0.000 A 
ATOM     20  C   UNL     1       5.855   4.481  14.908  0.00  0.00    +0.000 A 
ATOM     21  C   UNL     1       7.133   4.769  15.382  0.00  0.00    +0.000 A 
ATOM     22  C   UNL     1       7.379   4.781  16.751  0.00  0.00    +0.000 A 
ATOM     23  C   UNL     1       6.355   4.471  17.643  0.00  0.00    +0.000 A 
ENDBRANCH  17  18
BRANCH  17  24
ATOM     24  C   UNL     1       4.577   3.427  19.532  0.00  0.00    +0.000 C 
BRANCH  24  25
ATOM     25  N   UNL     1       4.884   2.001  19.744  0.00  0.00    +0.000 NA
ATOM     26  H   UNL     1       5.898   1.894  19.647  0.00  0.00    +0.000 HD
ATOM     27  H   UNL     1       4.497   1.465  18.964  0.00  0.00    +0.000 HD
ENDBRANCH  24  25
ENDBRANCH  17  24
ENDBRANCH   1  17
TORSDOF 6
ENDMDL
MODEL 2
REMARK VINA RESULT:      -8.0      0.063      1.008
REMARK  Name = 
REMARK  6 active torsions:
REMARK  status: ('A' for Active; 'I' for Inactive)
REMARK    1  A    between atoms: N_1  and  C_2
REMARK    2  A    between atoms: C_2  and  C_3
REMARK    3  A    between atoms: C_3  and  C_4
REMARK    4  A    between atoms: C_3  and  C_18
REMARK    5  A    between atoms: N_6  and  C_7
REMARK    6  A    between atoms: C_11  and  O_12
REMARK                            x       y       z     vdW  Elec       q    Type
REMARK                         _______ _______ _______ _____ _____    ______ ____
ROOT
ATOM      1  C   UNL     1       2.895   4.846  18.199  0.00  0.00    +0.000 C 
ATOM      2  O   UNL     1       1.731   4.613  17.846  0.00  0.00    +0.000 OA
ATOM      3  N   UNL     1       3.322   6.069  18.705  0.00  0.00    +0.000 N 
ATOM      4  H   UNL     1       4.326   6.240  18.621  0.00  0.00    +0.000 HD
ENDROOT
BRANCH   3   5
ATOM      5  C   UNL     1       2.471   7.179  18.902  0.00  0.00    +0.000 A 
ATOM      6  C   UNL     1       2.244   8.118  17.897  0.00  0.00    +0.000 A 
ATOM      7  C   UNL     1       1.586   9.316  18.166  0.00  0.00    +0.000 A 
ATOM      8  C   UNL     1       1.101   9.595  19.457  0.00  0.00    +0.000 A 
ATOM      9  C   UNL     1       0.510  10.814  19.843  0.00  0.00    +0.000 A 
ATOM     10  N   UNL     1       0.106  11.104  21.091  0.00  0.00    +0.000 NA
ATOM     11  C   UNL     1       0.254  10.137  22.014  0.00  0.00    +0.000 A 
ATOM     12  C   UNL     1       0.786   8.885  21.747  0.00  0.00    +0.000 A 
ATOM     13  C   UNL     1       1.244   8.604  20.454  0.00  0.00    +0.000 A 
ATOM     14  C   UNL     1       1.893   7.386  20.156  0.00  0.00    +0.000 A 
BRANCH   9  15
ATOM     15  O   UNL     1       0.309  11.840  18.963  0.00  0.00    +0.000 OA
ATOM     16  H   UNL     1      -0.262  12.489  19.395  0.00  0.00    +0.000 HD
ENDBRANCH   9  15
ENDBRANCH   3   5
BRANCH   1  17
ATOM     17  C   UNL     1       3.981   3.767  18.123  0.00  0.00    +0.000 C 
BRANCH  17  18
ATOM     18  C   UNL     1       5.080   4.146  17.126  0.00  0.00    +0.000 A 
ATOM     19  C   UNL     1       6.362   4.486  17.578  0.00  0.00    +0.000 A 
ATOM     20  C   UNL     1       7.347   4.879  16.669  0.00  0.00    +0.000 A 
ATOM     21  C   UNL     1       7.070   4.922  15.304  0.00  0.00    +0.000 A 
ATOM     22  C   UNL     1       5.816   4.540  14.838  0.00  0.00    +0.000 A 
ATOM     23  C   UNL     1       4.829   4.151  15.741  0.00  0.00    +0.000 A 
ENDBRANCH  17  18
BRANCH  17  24
ATOM     24  C   UNL     1       4.620   3.473  19.497  0.00  0.00    +0.000 C 
BRANCH  24  25
ATOM     25  N   UNL     1       4.856   2.043  19.760  0.00  0.00    +0.000 NA
ATOM     26  H   UNL     1       4.641   1.879  20.749  0.00  0.00    +0.000 HD
ATOM     27  H   UNL     1       5.860   1.858  19.686  0.00  0.00    +0.000 HD
ENDBRANCH  24  25
ENDBRANCH  17  24
ENDBRANCH   1  17
TORSDOF 6
ENDMDL
MODEL 3
REMARK VINA RESULT:      -7.6      1.446      1.873
REMARK  Name = 
REMARK  6 active torsions:
REMARK  status: ('A' for Active; 'I' for Inactive)
REMARK    1  A    between atoms: N_1  and  C_2
REMARK    2  A    between atoms: C_2  and  C_3
REMARK    3  A    between atoms: C_3  and  C_4
REMARK    4  A    between atoms: C_3  and  C_18
REMARK    5  A    between atoms: N_6  and  C_7
REMARK    6  A    between atoms: C_11  and  O_12
REMARK                            x       y       z     vdW  Elec       q    Type
REMARK                         _______ _______ _______ _____ _____    ______ ____
ROOT
ATOM      1  C   UNL     1       2.921   5.491  18.400  0.00  0.00    +0.000 C 
ATOM      2  O   UNL     1       1.852   5.237  17.829  0.00  0.00    +0.000 OA
ATOM      3  N   UNL     1       3.140   6.629  19.168  0.00  0.00    +0.000 N 
ATOM      4  H   UNL     1       4.122   6.889  19.278  0.00  0.00    +0.000 HD
ENDROOT
BRANCH   3   5
ATOM      5  C   UNL     1       2.158   7.615  19.411  0.00  0.00    +0.000 A 
ATOM      6  C   UNL     1       1.848   8.590  18.465  0.00  0.00    +0.000 A 
ATOM      7  C   UNL     1       1.045   9.681  18.793  0.00  0.00    +0.000 A 
ATOM      8  C   UNL     1       0.497   9.807  20.082  0.00  0.00    +0.000 A 
ATOM      9  C   UNL     1      -0.245  10.918  20.530  0.00  0.00    +0.000 A 
ATOM     10  N   UNL     1      -0.715  11.067  21.780  0.00  0.00    +0.000 NA
ATOM     11  C   UNL     1      -0.477  10.060  22.639  0.00  0.00    +0.000 A 
ATOM     12  C   UNL     1       0.206   8.902  22.305  0.00  0.00    +0.000 A 
ATOM     13  C   UNL     1       0.729   8.771  21.013  0.00  0.00    +0.000 A 
ATOM     14  C   UNL     1       1.526   7.661  20.655  0.00  0.00    +0.000 A 
BRANCH   9  15
ATOM     15  O   UNL     1      -0.543  11.975  19.716  0.00  0.00    +0.000 OA
ATOM     16  H   UNL     1      -1.079  12.596  20.227  0.00  0.00    +0.000 HD
ENDBRANCH   9  15
ENDBRANCH   3   5
BRANCH   1  17
ATOM     17  C   UNL     1       4.114   4.530  18.318  0.00  0.00    +0.000 C 
BRANCH  17  18
ATOM     18  C   UNL     1       5.442   5.290  18.261  0.00  0.00    +0.000 A 
ATOM     19  C   UNL     1       6.386   5.148  19.286  0.00  0.00    +0.000 A 
ATOM     20  C   UNL     1       7.576   5.880  19.254  0.00  0.00    +0.000 A 
ATOM     21  C   UNL     1       7.842   6.747  18.196  0.00  0.00    +0.000 A 
ATOM     22  C   UNL     1       6.935   6.861  17.147  0.00  0.00    +0.000 A 
ATOM     23  C   UNL     1       5.746   6.134  17.176  0.00  0.00    +0.000 A 
ENDBRANCH  17  18
BRANCH  17  24
ATOM     24  C   UNL     1       4.150   3.531  19.494  0.00  0.00    +0.000 C 
BRANCH  24  25
ATOM     25  N   UNL     1       2.995   3.627  20.404  0.00  0.00    +0.000 NA
ATOM     26  H   UNL     1       2.211   3.995  19.856  0.00  0.00    +0.000 HD
ATOM     27  H   UNL     1       3.184   4.357  21.095  0.00  0.00    +0.000 HD
ENDBRANCH  24  25
ENDBRANCH  17  24
ENDBRANCH   1  17
TORSDOF 6
ENDMDL
MODEL 4
REMARK VINA RESULT:      -7.5      1.535      1.733
REMARK  Name = 
REMARK  6 active torsions:
REMARK  status: ('A' for Active; 'I' for Inactive)
REMARK    1  A    between atoms: N_1  and  C_2
REMARK    2  A    between atoms: C_2  and  C_3
REMARK    3  A    between atoms: C_3  and  C_4
REMARK    4  A    between atoms: C_3  and  C_18
REMARK    5  A    between atoms: N_6  and  C_7
REMARK    6  A    between atoms: C_11  and  O_12
REMARK                            x       y       z     vdW  Elec       q    Type
REMARK                         _______ _______ _______ _____ _____    ______ ____
ROOT
ATOM      1  C   UNL     1       2.905   5.612  18.363  0.00  0.00    +0.000 C 
ATOM      2  O   UNL     1       1.832   5.345  17.805  0.00  0.00    +0.000 OA
ATOM      3  N   UNL     1       3.116   6.746  19.140  0.00  0.00    +0.000 N 
ATOM      4  H   UNL     1       4.095   7.022  19.237  0.00  0.00    +0.000 HD
ENDROOT
BRANCH   3   5
ATOM      5  C   UNL     1       2.122   7.713  19.407  0.00  0.00    +0.000 A 
ATOM      6  C   UNL     1       1.769   8.681  18.468  0.00  0.00    +0.000 A 
ATOM      7  C   UNL     1       0.953   9.756  18.815  0.00  0.00    +0.000 A 
ATOM      8  C   UNL     1       0.434   9.873  20.118  0.00  0.00    +0.000 A 
ATOM      9  C   UNL     1      -0.318  10.969  20.584  0.00  0.00    +0.000 A 
ATOM     10  N   UNL     1      -0.759  11.110  21.845  0.00  0.00    +0.000 NA
ATOM     11  C   UNL     1      -0.481  10.108  22.698  0.00  0.00    +0.000 A 
ATOM     12  C   UNL     1       0.217   8.963  22.348  0.00  0.00    +0.000 A 
ATOM     13  C   UNL     1       0.710   8.841  21.043  0.00  0.00    +0.000 A 
ATOM     14  C   UNL     1       1.520   7.747  20.666  0.00  0.00    +0.000 A 
BRANCH   9  15
ATOM     15  O   UNL     1      -0.657  12.019  19.777  0.00  0.00    +0.000 OA
ATOM     16  H   UNL     1      -0.620  12.823  20.312  0.00  0.00    +0.000 HD
ENDBRANCH   9  15
ENDBRANCH   3   5
BRANCH   1  17
ATOM     17  C   UNL     1       4.113   4.673  18.255  0.00  0.00    +0.000 C 
BRANCH  17  18
ATOM     18  C   UNL     1       5.431   5.452  18.268  0.00  0.00    +0.000 A 
ATOM     19  C   UNL     1       5.693   6.420  17.290  0.00  0.00    +0.000 A 
ATOM     20  C   UNL     1       6.917   7.095  17.278  0.00  0.00    +0.000 A 
ATOM     21  C   UNL     1       7.882   6.821  18.246  0.00  0.00    +0.000 A 
ATOM     22  C   UNL     1       7.615   5.898  19.251  0.00  0.00    +0.000 A 
ATOM     23  C   UNL     1       6.397   5.221  19.266  0.00  0.00    +0.000 A 
ENDBRANCH  17  18
BRANCH  17  24
ATOM     24  C   UNL     1       4.138   3.611  19.374  0.00  0.00    +0.000 C 
BRANCH  24  25
ATOM     25  N   UNL     1       2.982   3.665  20.285  0.00  0.00    +0.000 NA
ATOM     26  H   UNL     1       2.139   3.600  19.705  0.00  0.00    +0.000 HD
ATOM     27  H   UNL     1       2.933   4.601  20.696  0.00  0.00    +0.000 HD
ENDBRANCH  24  25
ENDBRANCH  17  24
ENDBRANCH   1  17
TORSDOF 6
ENDMDL
MODEL 5
REMARK VINA RESULT:      -7.5      1.103      1.442
REMARK  Name = 
REMARK  6 active torsions:
REMARK  status: ('A' for Active; 'I' for Inactive)
REMARK    1  A    between atoms: N_1  and  C_2
REMARK    2  A    between atoms: C_2  and  C_3
REMARK    3  A    between atoms: C_3  and  C_4
REMARK    4  A    between atoms: C_3  and  C_18
REMARK    5  A    between atoms: N_6  and  C_7
REMARK    6  A    between atoms: C_11  and  O_12
REMARK                            x       y       z     vdW  Elec       q    Type
REMARK                         _______ _______ _______ _____ _____    ______ ____
ROOT
ATOM      1  C   UNL     1       2.695   4.937  18.113  0.00  0.00    +0.000 C 
ATOM      2  O   UNL     1       1.576   4.559  18.484  0.00  0.00    +0.000 OA
ATOM      3  N   UNL     1       3.114   6.263  18.132  0.00  0.00    +0.000 N 
ATOM      4  H   UNL     1       3.882   6.478  17.494  0.00  0.00    +0.000 HD
ENDROOT
BRANCH   3   5
ATOM      5  C   UNL     1       2.319   7.331  18.604  0.00  0.00    +0.000 A 
ATOM      6  C   UNL     1       1.948   8.390  17.777  0.00  0.00    +0.000 A 
ATOM      7  C   UNL     1       1.356   9.538  18.299  0.00  0.00    +0.000 A 
ATOM      8  C   UNL     1       1.087   9.644  19.676  0.00  0.00    +0.000 A 
ATOM      9  C   UNL     1       0.581  10.799  20.305  0.00  0.00    +0.000 A 
ATOM     10  N   UNL     1       0.383  10.921  21.628  0.00  0.00    +0.000 NA
ATOM     11  C   UNL     1       0.663   9.845  22.383  0.00  0.00    +0.000 A 
ATOM     12  C   UNL     1       1.129   8.642  21.876  0.00  0.00    +0.000 A 
ATOM     13  C   UNL     1       1.373   8.534  20.502  0.00  0.00    +0.000 A 
ATOM     14  C   UNL     1       1.950   7.370  19.950  0.00  0.00    +0.000 A 
BRANCH   9  15
ATOM     15  O   UNL     1       0.256  11.929  19.608  0.00  0.00    +0.000 OA
ATOM     16  H   UNL     1      -0.044  11.657  18.731  0.00  0.00    +0.000 HD
ENDBRANCH   9  15
ENDBRANCH   3   5
BRANCH   1  17
ATOM     17  C   UNL     1       3.745   3.938  17.611  0.00  0.00    +0.000 C 
BRANCH  17  18
ATOM     18  C   UNL     1       5.167   4.447  17.863  0.00  0.00    +0.000 A 
ATOM     19  C   UNL     1       6.125   4.415  16.841  0.00  0.00    +0.000 A 
ATOM     20  C   UNL     1       7.434   4.835  17.089  0.00  0.00    +0.000 A 
ATOM     21  C   UNL     1       7.797   5.303  18.350  0.00  0.00    +0.000 A 
ATOM     22  C   UNL     1       6.844   5.386  19.360  0.00  0.00    +0.000 A 
ATOM     23  C   UNL     1       5.538   4.966  19.118  0.00  0.00    +0.000 A 
ENDBRANCH  17  18
BRANCH  17  24
ATOM     24  C   UNL     1       3.585   2.541  18.246  0.00  0.00    +0.000 C 
BRANCH  24  25
ATOM     25  N   UNL     1       2.397   1.801  17.785  0.00  0.00    +0.000 NA
ATOM     26  H   UNL     1       1.598   2.145  18.329  0.00  0.00    +0.000 HD
ATOM     27  H   UNL     1       2.492   0.823  18.067  0.00  0.00    +0.000 HD
ENDBRANCH  24  25
ENDBRANCH  17  24
ENDBRANCH   1  17
TORSDOF 6
ENDMDL
MODEL 6
REMARK VINA RESULT:      -7.4      1.349      2.175
REMARK  Name = 
REMARK  6 active torsions:
REMARK  status: ('A' for Active; 'I' for Inactive)
REMARK    1  A    between atoms: N_1  and  C_2
REMARK    2  A    between atoms: C_2  and  C_3
REMARK    3  A    between atoms: C_3  and  C_4
REMARK    4  A    between atoms: C_3  and  C_18
REMARK    5  A    between atoms: N_6  and  C_7
REMARK    6  A    between atoms: C_11  and  O_12
REMARK                            x       y       z     vdW  Elec       q    Type
REMARK                         _______ _______ _______ _____ _____    ______ ____
ROOT
ATOM      1  C   UNL     1       2.520   4.643  17.741  0.00  0.00    +0.000 C 
ATOM      2  O   UNL     1       1.285   4.609  17.657  0.00  0.00    +0.000 OA
ATOM      3  N   UNL     1       3.227   5.652  18.385  0.00  0.00    +0.000 N 
ATOM      4  H   UNL     1       4.199   5.752  18.086  0.00  0.00    +0.000 HD
ENDROOT
BRANCH   3   5
ATOM      5  C   UNL     1       2.618   6.741  19.046  0.00  0.00    +0.000 A 
ATOM      6  C   UNL     1       2.142   6.635  20.352  0.00  0.00    +0.000 A 
ATOM      7  C   UNL     1       1.352   7.635  20.914  0.00  0.00    +0.000 A 
ATOM      8  C   UNL     1       1.042   8.799  20.187  0.00  0.00    +0.000 A 
ATOM      9  C   UNL     1       0.176   9.815  20.636  0.00  0.00    +0.000 A 
ATOM     10  N   UNL     1      -0.170  10.895  19.915  0.00  0.00    +0.000 NA
ATOM     11  C   UNL     1       0.385  11.011  18.696  0.00  0.00    +0.000 A 
ATOM     12  C   UNL     1       1.278  10.097  18.161  0.00  0.00    +0.000 A 
ATOM     13  C   UNL     1       1.602   8.953  18.899  0.00  0.00    +0.000 A 
ATOM     14  C   UNL     1       2.421   7.939  18.355  0.00  0.00    +0.000 A 
BRANCH   9  15
ATOM     15  O   UNL     1      -0.415   9.781  21.868  0.00  0.00    +0.000 OA
ATOM     16  H   UNL     1       0.285   9.683  22.527  0.00  0.00    +0.000 HD
ENDBRANCH   9  15
ENDBRANCH   3   5
BRANCH   1  17
ATOM     17  C   UNL     1       3.389   3.530  17.141  0.00  0.00    +0.000 C 
BRANCH  17  18
ATOM     18  C   UNL     1       4.792   4.039  16.800  0.00  0.00    +0.000 A 
ATOM     19  C   UNL     1       5.766   4.159  17.800  0.00  0.00    +0.000 A 
ATOM     20  C   UNL     1       7.030   4.669  17.494  0.00  0.00    +0.000 A 
ATOM     21  C   UNL     1       7.340   5.048  16.189  0.00  0.00    +0.000 A 
ATOM     22  C   UNL     1       6.399   4.888  15.177  0.00  0.00    +0.000 A 
ATOM     23  C   UNL     1       5.136   4.382  15.479  0.00  0.00    +0.000 A 
ENDBRANCH  17  18
BRANCH  17  24
ATOM     24  C   UNL     1       3.504   2.304  18.070  0.00  0.00    +0.000 C 
BRANCH  24  25
ATOM     25  N   UNL     1       2.213   1.681  18.410  0.00  0.00    +0.000 NA
ATOM     26  H   UNL     1       2.402   0.965  19.119  0.00  0.00    +0.000 HD
ATOM     27  H   UNL     1       1.881   1.152  17.600  0.00  0.00    +0.000 HD
ENDBRANCH  24  25
ENDBRANCH  17  24
ENDBRANCH   1  17
TORSDOF 6
ENDMDL
MODEL 7
REMARK VINA RESULT:      -7.4      1.708      2.167
REMARK  Name = 
REMARK  6 active torsions:
REMARK  status: ('A' for Active; 'I' for Inactive)
REMARK    1  A    between atoms: N_1  and  C_2
REMARK    2  A    between atoms: C_2  and  C_3
REMARK    3  A    between atoms: C_3  and  C_4
REMARK    4  A    between atoms: C_3  and  C_18
REMARK    5  A    between atoms: N_6  and  C_7
REMARK    6  A    between atoms: C_11  and  O_12
REMARK                            x       y       z     vdW  Elec       q    Type
REMARK                         _______ _______ _______ _____ _____    ______ ____
ROOT
ATOM      1  C   UNL     1       3.235   6.004  17.718  0.00  0.00    +0.000 C 
ATOM      2  O   UNL     1       2.346   5.256  18.147  0.00  0.00    +0.000 OA
ATOM      3  N   UNL     1       3.213   7.389  17.845  0.00  0.00    +0.000 N 
ATOM      4  H   UNL     1       3.790   7.890  17.167  0.00  0.00    +0.000 HD
ENDROOT
BRANCH   3   5
ATOM      5  C   UNL     1       2.188   8.102  18.504  0.00  0.00    +0.000 A 
ATOM      6  C   UNL     1       1.423   9.064  17.846  0.00  0.00    +0.000 A 
ATOM      7  C   UNL     1       0.570   9.911  18.550  0.00  0.00    +0.000 A 
ATOM      8  C   UNL     1       0.434   9.794  19.946  0.00  0.00    +0.000 A 
ATOM      9  C   UNL     1      -0.328  10.665  20.750  0.00  0.00    +0.000 A 
ATOM     10  N   UNL     1      -0.407  10.591  22.089  0.00  0.00    +0.000 NA
ATOM     11  C   UNL     1       0.268   9.591  22.681  0.00  0.00    +0.000 A 
ATOM     12  C   UNL     1       1.020   8.651  21.994  0.00  0.00    +0.000 A 
ATOM     13  C   UNL     1       1.133   8.758  20.603  0.00  0.00    +0.000 A 
ATOM     14  C   UNL     1       1.974   7.893  19.868  0.00  0.00    +0.000 A 
BRANCH   9  15
ATOM     15  O   UNL     1      -1.056  11.696  20.226  0.00  0.00    +0.000 OA
ATOM     16  H   UNL     1      -0.865  11.739  19.280  0.00  0.00    +0.000 HD
ENDBRANCH   9  15
ENDBRANCH   3   5
BRANCH   1  17
ATOM     17  C   UNL     1       4.475   5.442  17.012  0.00  0.00    +0.000 C 
BRANCH  17  18
ATOM     18  C   UNL     1       5.766   5.947  17.663  0.00  0.00    +0.000 A 
ATOM     19  C   UNL     1       6.482   7.007  17.090  0.00  0.00    +0.000 A 
ATOM     20  C   UNL     1       7.685   7.434  17.660  0.00  0.00    +0.000 A 
ATOM     21  C   UNL     1       8.176   6.819  18.810  0.00  0.00    +0.000 A 
ATOM     22  C   UNL     1       7.451   5.798  19.416  0.00  0.00    +0.000 A 
ATOM     23  C   UNL     1       6.252   5.368  18.850  0.00  0.00    +0.000 A 
ENDBRANCH  17  18
BRANCH  17  24
ATOM     24  C   UNL     1       4.491   3.900  16.983  0.00  0.00    +0.000 C 
BRANCH  24  25
ATOM     25  N   UNL     1       5.578   3.322  16.172  0.00  0.00    +0.000 NA
ATOM     26  H   UNL     1       5.140   2.851  15.373  0.00  0.00    +0.000 HD
ATOM     27  H   UNL     1       6.014   2.565  16.703  0.00  0.00    +0.000 HD
ENDBRANCH  24  25
ENDBRANCH  17  24
ENDBRANCH   1  17
TORSDOF 6
ENDMDL
MODEL 8
REMARK VINA RESULT:      -7.4      1.342      1.981
REMARK  Name = 
REMARK  6 active torsions:
REMARK  status: ('A' for Active; 'I' for Inactive)
REMARK    1  A    between atoms: N_1  and  C_2
REMARK    2  A    between atoms: C_2  and  C_3
REMARK    3  A    between atoms: C_3  and  C_4
REMARK    4  A    between atoms: C_3  and  C_18
REMARK    5  A    between atoms: N_6  and  C_7
REMARK    6  A    between atoms: C_11  and  O_12
REMARK                            x       y       z     vdW  Elec       q    Type
REMARK                         _______ _______ _______ _____ _____    ______ ____
ROOT
ATOM      1  C   UNL     1       2.491   4.594  17.876  0.00  0.00    +0.000 C 
ATOM      2  O   UNL     1       1.293   4.396  18.121  0.00  0.00    +0.000 OA
ATOM      3  N   UNL     1       3.173   5.755  18.224  0.00  0.00    +0.000 N 
ATOM      4  H   UNL     1       4.014   5.939  17.673  0.00  0.00    +0.000 HD
ENDROOT
BRANCH   3   5
ATOM      5  C   UNL     1       2.586   6.833  18.924  0.00  0.00    +0.000 A 
ATOM      6  C   UNL     1       2.198   6.716  20.257  0.00  0.00    +0.000 A 
ATOM      7  C   UNL     1       1.426   7.701  20.871  0.00  0.00    +0.000 A 
ATOM      8  C   UNL     1       1.047   8.859  20.167  0.00  0.00    +0.000 A 
ATOM      9  C   UNL     1       0.193   9.858  20.672  0.00  0.00    +0.000 A 
ATOM     10  N   UNL     1      -0.219  10.932  19.977  0.00  0.00    +0.000 NA
ATOM     11  C   UNL     1       0.254  11.059  18.725  0.00  0.00    +0.000 A 
ATOM     12  C   UNL     1       1.128  10.163  18.132  0.00  0.00    +0.000 A 
ATOM     13  C   UNL     1       1.521   9.025  18.846  0.00  0.00    +0.000 A 
ATOM     14  C   UNL     1       2.323   8.026  18.249  0.00  0.00    +0.000 A 
BRANCH   9  15
ATOM     15  O   UNL     1      -0.317   9.812  21.940  0.00  0.00    +0.000 OA
ATOM     16  H   UNL     1       0.276   9.270  22.476  0.00  0.00    +0.000 HD
ENDBRANCH   9  15
ENDBRANCH   3   5
BRANCH   1  17
ATOM     17  C   UNL     1       3.344   3.535  17.168  0.00  0.00    +0.000 C 
BRANCH  17  18
ATOM     18  C   UNL     1       4.766   4.041  16.912  0.00  0.00    +0.000 A 
ATOM     19  C   UNL     1       5.191   4.335  15.609  0.00  0.00    +0.000 A 
ATOM     20  C   UNL     1       6.504   4.750  15.374  0.00  0.00    +0.000 A 
ATOM     21  C   UNL     1       7.399   4.890  16.433  0.00  0.00    +0.000 A 
ATOM     22  C   UNL     1       6.976   4.648  17.736  0.00  0.00    +0.000 A 
ATOM     23  C   UNL     1       5.668   4.231  17.975  0.00  0.00    +0.000 A 
ENDBRANCH  17  18
BRANCH  17  24
ATOM     24  C   UNL     1       3.410   2.208  17.953  0.00  0.00    +0.000 C 
BRANCH  24  25
ATOM     25  N   UNL     1       2.094   1.660  18.325  0.00  0.00    +0.000 NA
ATOM     26  H   UNL     1       2.250   0.994  19.089  0.00  0.00    +0.000 HD
ATOM     27  H   UNL     1       1.750   1.083  17.554  0.00  0.00    +0.000 HD
ENDBRANCH  24  25
ENDBRANCH  17  24
ENDBRANCH   1  17
TORSDOF 6
ENDMDL
MODEL 9
REMARK VINA RESULT:      -7.4      1.708      2.266
REMARK  Name = 
REMARK  6 active torsions:
REMARK  status: ('A' for Active; 'I' for Inactive)
REMARK    1  A    between atoms: N_1  and  C_2
REMARK    2  A    between atoms: C_2  and  C_3
REMARK    3  A    between atoms: C_3  and  C_4
REMARK    4  A    between atoms: C_3  and  C_18
REMARK    5  A    between atoms: N_6  and  C_7
REMARK    6  A    between atoms: C_11  and  O_12
REMARK                            x       y       z     vdW  Elec       q    Type
REMARK                         _______ _______ _______ _____ _____    ______ ____
ROOT
ATOM      1  C   UNL     1       3.344   5.953  17.613  0.00  0.00    +0.000 C 
ATOM      2  O   UNL     1       2.447   5.199  18.016  0.00  0.00    +0.000 OA
ATOM      3  N   UNL     1       3.322   7.335  17.765  0.00  0.00    +0.000 N 
ATOM      4  H   UNL     1       3.909   7.848  17.104  0.00  0.00    +0.000 HD
ENDROOT
BRANCH   3   5
ATOM      5  C   UNL     1       2.288   8.038  18.422  0.00  0.00    +0.000 A 
ATOM      6  C   UNL     1       1.515   8.992  17.763  0.00  0.00    +0.000 A 
ATOM      7  C   UNL     1       0.653   9.831  18.466  0.00  0.00    +0.000 A 
ATOM      8  C   UNL     1       0.515   9.713  19.861  0.00  0.00    +0.000 A 
ATOM      9  C   UNL     1      -0.257  10.575  20.664  0.00  0.00    +0.000 A 
ATOM     10  N   UNL     1      -0.338  10.501  22.003  0.00  0.00    +0.000 NA
ATOM     11  C   UNL     1       0.347   9.508  22.596  0.00  0.00    +0.000 A 
ATOM     12  C   UNL     1       1.110   8.576  21.910  0.00  0.00    +0.000 A 
ATOM     13  C   UNL     1       1.224   8.683  20.519  0.00  0.00    +0.000 A 
ATOM     14  C   UNL     1       2.075   7.827  19.786  0.00  0.00    +0.000 A 
BRANCH   9  15
ATOM     15  O   UNL     1      -0.995  11.599  20.139  0.00  0.00    +0.000 OA
ATOM     16  H   UNL     1      -1.059  11.455  19.185  0.00  0.00    +0.000 HD
ENDBRANCH   9  15
ENDBRANCH   3   5
BRANCH   1  17
ATOM     17  C   UNL     1       4.593   5.402  16.915  0.00  0.00    +0.000 C 
BRANCH  17  18
ATOM     18  C   UNL     1       5.876   5.919  17.572  0.00  0.00    +0.000 A 
ATOM     19  C   UNL     1       6.371   5.313  18.734  0.00  0.00    +0.000 A 
ATOM     20  C   UNL     1       7.515   5.818  19.358  0.00  0.00    +0.000 A 
ATOM     21  C   UNL     1       8.182   6.919  18.823  0.00  0.00    +0.000 A 
ATOM     22  C   UNL     1       7.728   7.499  17.643  0.00  0.00    +0.000 A 
ATOM     23  C   UNL     1       6.587   7.000  17.019  0.00  0.00    +0.000 A 
ENDBRANCH  17  18
BRANCH  17  24
ATOM     24  C   UNL     1       4.622   3.859  16.886  0.00  0.00    +0.000 C 
BRANCH  24  25
ATOM     25  N   UNL     1       5.696   3.292  16.051  0.00  0.00    +0.000 NA
ATOM     26  H   UNL     1       6.007   2.428  16.507  0.00  0.00    +0.000 HD
ATOM     27  H   UNL     1       6.509   3.910  16.099  0.00  0.00    +0.000 HD
ENDBRANCH  24  25
ENDBRANCH  17  24
ENDBRANCH   1  17
TORSDOF 6
ENDMDL
