MODEL 1
REMARK VINA RESULT:      -8.1      0.000      0.000
REMARK  Name = 
REMARK  11 active torsions:
REMARK  status: ('A' for Active; 'I' for Inactive)
REMARK    1  A    between atoms: C_1  and  C_2
REMARK    2  A    between atoms: C_6  and  N_7
REMARK    3  A    between atoms: N_10  and  C_11
REMARK    4  A    between atoms: C_14  and  C_15
REMARK    5  A    between atoms: C_17  and  C_18
REMARK    6  A    between atoms: N_20  and  CA_21
REMARK    7  A    between atoms: CA_21  and  C_22
REMARK    8  A    between atoms: CA_21  and  CB_25
REMARK    9  A    between atoms: C_22  and  OXT_24
REMARK   10  A    between atoms: CB_25  and  CG1_26
REMARK   11  A    between atoms: CB_25  and  CG2_27
REMARK                            x       y       z     vdW  Elec       q    Type
REMARK                         _______ _______ _______ _____ _____    ______ ____
ROOT
ATOM      1  C   UNK A   0      -0.786  11.017  22.587  0.00  0.00    +0.000 A 
ATOM      2  C   UNK A   0      -0.466  11.498  21.316  0.00  0.00    +0.000 A 
ATOM      3  C   UNK A   0       0.281  10.720  20.429  0.00  0.00    +0.000 A 
ATOM      4  C   UNK A   0       0.714   9.437  20.789  0.00  0.00    +0.000 A 
ATOM      5  C   UNK A   0       0.408   8.966  22.074  0.00  0.00    +0.000 A 
ATOM      6  C   UNK A   0      -0.314   9.763  22.978  0.00  0.00    +0.000 A 
ENDROOT
BRANCH   1  10
ATOM      7  N   UNK A   0      -3.423  13.035  24.049  0.00  0.00    +0.000 N 
ATOM      8  C   UNK A   0      -2.812  12.299  23.047  0.00  0.00    +0.000 C 
ATOM      9  O   UNK A   0      -3.283  12.115  21.929  0.00  0.00    +0.000 OA
ATOM     10  N   UNK A   0      -1.599  11.767  23.470  0.00  0.00    +0.000 N 
ATOM     11  H   UNK A   0      -2.797  13.493  24.695  0.00  0.00    +0.000 HD
ATOM     12  H   UNK A   0      -1.588  11.494  24.442  0.00  0.00    +0.000 HD
BRANCH   7  18
ATOM     13  C   UNK A   0      -6.531  16.819  23.375  0.00  0.00    +0.000 C 
ATOM     14  C   UNK A   0      -6.290  15.368  23.676  0.00  0.00    +0.000 A 
ATOM     15  C   UNK A   0      -7.376  14.502  23.859  0.00  0.00    +0.000 A 
ATOM     16  C   UNK A   0      -7.158  13.155  24.125  0.00  0.00    +0.000 A 
ATOM     17  C   UNK A   0      -5.855  12.660  24.195  0.00  0.00    +0.000 A 
ATOM     18  C   UNK A   0      -4.757  13.504  23.996  0.00  0.00    +0.000 A 
ATOM     19  C   UNK A   0      -4.984  14.866  23.758  0.00  0.00    +0.000 A 
ENDBRANCH   7  18
ENDBRANCH   1  10
BRANCH   4  20
ATOM     20  C   UNK A   0       1.421   8.608  19.809  0.00  0.00    +0.000 A 
ATOM     21  C   UNK A   0       1.787   7.242  19.940  0.00  0.00    +0.000 A 
ATOM     22  C   UNK A   0       2.598   6.978  18.863  0.00  0.00    +0.000 A 
ATOM     23  O   UNK A   0       2.627   8.079  18.064  0.00  0.00    +0.000 OA
ATOM     24  N   UNK A   0       1.884   9.095  18.644  0.00  0.00    +0.000 NA
BRANCH  22  25
ATOM     25  C   UNK A   0       3.403   5.826  18.544  0.00  0.00    +0.000 C 
ATOM     26  O   UNK A   0       2.996   4.675  18.656  0.00  0.00    +0.000 OA
ATOM     27  N   VAL A   1       4.706   6.098  18.160  0.00  0.00    +0.000 N 
ATOM     28  H   VAL A   1       4.954   7.063  17.966  0.00  0.00    +0.000 HD
BRANCH  27  29
ATOM     29  CA  VAL A   1       5.636   5.015  17.786  0.00  0.00    +0.000 C 
BRANCH  29  30
ATOM     30  CB  VAL A   1       6.045   5.062  16.296  0.00  0.00    +0.000 C 
ATOM     31  CG1 VAL A   1       5.825   3.709  15.614  0.00  0.00    +0.000 C 
ATOM     32  CG2 VAL A   1       5.340   6.168  15.504  0.00  0.00    +0.000 C 
ENDBRANCH  29  30
BRANCH  29  33
ATOM     33  C   VAL A   1       6.895   5.013  18.678  0.00  0.00    +0.000 C 
ATOM     34  O   VAL A   1       6.944   5.496  19.801  0.00  0.00    +0.000 OA
BRANCH  33  35
ATOM     35  OXT VAL A   1       7.946   4.350  18.134  0.00  0.00    +0.000 OA
ATOM     36  HXT VAL A   1       8.395   4.911  17.473  0.00  0.00    +0.000 HD
ENDBRANCH  33  35
ENDBRANCH  29  33
ENDBRANCH  27  29
ENDBRANCH  22  25
ENDBRANCH   4  20
TORSDOF 8
ENDMDL
MODEL 2
REMARK VINA RESULT:      -8.1      1.388      1.571
REMARK  Name = 
REMARK  11 active torsions:
REMARK  status: ('A' for Active; 'I' for Inactive)
REMARK    1  A    between atoms: C_1  and  C_2
REMARK    2  A    between atoms: C_6  and  N_7
REMARK    3  A    between atoms: N_10  and  C_11
REMARK    4  A    between atoms: C_14  and  C_15
REMARK    5  A    between atoms: C_17  and  C_18
REMARK    6  A    between atoms: N_20  and  CA_21
REMARK    7  A    between atoms: CA_21  and  C_22
REMARK    8  A    between atoms: CA_21  and  CB_25
REMARK    9  A    between atoms: C_22  and  OXT_24
REMARK   10  A    between atoms: CB_25  and  CG1_26
REMARK   11  A    between atoms: CB_25  and  CG2_27
REMARK                            x       y       z     vdW  Elec       q    Type
REMARK                         _______ _______ _______ _____ _____    ______ ____
ROOT
ATOM      1  C   UNK A   0      -1.077  11.635  22.678  0.00  0.00    +0.000 A 
ATOM      2  C   UNK A   0      -0.424  11.913  21.476  0.00  0.00    +0.000 A 
ATOM      3  C   UNK A   0       0.297  10.919  20.812  0.00  0.00    +0.000 A 
ATOM      4  C   UNK A   0       0.371   9.619  21.329  0.00  0.00    +0.000 A 
ATOM      5  C   UNK A   0      -0.269   9.349  22.548  0.00  0.00    +0.000 A 
ATOM      6  C   UNK A   0      -0.966  10.359  23.233  0.00  0.00    +0.000 A 
ENDROOT
BRANCH   1  10
ATOM      7  N   UNK A   0      -3.775  13.832  23.705  0.00  0.00    +0.000 N 
ATOM      8  C   UNK A   0      -3.203  12.794  22.987  0.00  0.00    +0.000 C 
ATOM      9  O   UNK A   0      -3.796  12.101  22.168  0.00  0.00    +0.000 OA
ATOM     10  N   UNK A   0      -1.866  12.615  23.326  0.00  0.00    +0.000 N 
ATOM     11  H   UNK A   0      -3.148  14.582  23.960  0.00  0.00    +0.000 HD
ATOM     12  H   UNK A   0      -1.663  12.793  24.299  0.00  0.00    +0.000 HD
BRANCH   7  18
ATOM     13  C   UNK A   0      -7.447  17.077  23.060  0.00  0.00    +0.000 C 
ATOM     14  C   UNK A   0      -6.973  15.704  23.439  0.00  0.00    +0.000 A 
ATOM     15  C   UNK A   0      -7.901  14.715  23.787  0.00  0.00    +0.000 A 
ATOM     16  C   UNK A   0      -7.467  13.438  24.127  0.00  0.00    +0.000 A 
ATOM     17  C   UNK A   0      -6.105  13.137  24.108  0.00  0.00    +0.000 A 
ATOM     18  C   UNK A   0      -5.163  14.106  23.745  0.00  0.00    +0.000 A 
ATOM     19  C   UNK A   0      -5.605  15.398  23.433  0.00  0.00    +0.000 A 
ENDBRANCH   7  18
ENDBRANCH   1  10
BRANCH   4  20
ATOM     20  C   UNK A   0       1.061   8.574  20.569  0.00  0.00    +0.000 A 
ATOM     21  C   UNK A   0       1.292   7.229  20.967  0.00  0.00    +0.000 A 
ATOM     22  C   UNK A   0       2.144   6.712  20.020  0.00  0.00    +0.000 A 
ATOM     23  O   UNK A   0       2.323   7.644  19.045  0.00  0.00    +0.000 OA
ATOM     24  N   UNK A   0       1.639   8.803  19.377  0.00  0.00    +0.000 NA
BRANCH  22  25
ATOM     25  C   UNK A   0       2.859   5.462  19.973  0.00  0.00    +0.000 C 
ATOM     26  O   UNK A   0       2.755   4.599  20.838  0.00  0.00    +0.000 OA
ATOM     27  N   VAL A   1       3.735   5.317  18.911  0.00  0.00    +0.000 N 
ATOM     28  H   VAL A   1       3.694   6.002  18.162  0.00  0.00    +0.000 HD
BRANCH  27  29
ATOM     29  CA  VAL A   1       4.520   4.081  18.728  0.00  0.00    +0.000 C 
BRANCH  29  30
ATOM     30  CB  VAL A   1       3.844   3.078  17.764  0.00  0.00    +0.000 C 
ATOM     31  CG1 VAL A   1       3.533   1.753  18.465  0.00  0.00    +0.000 C 
ATOM     32  CG2 VAL A   1       2.579   3.629  17.098  0.00  0.00    +0.000 C 
ENDBRANCH  29  30
BRANCH  29  33
ATOM     33  C   VAL A   1       5.957   4.382  18.252  0.00  0.00    +0.000 C 
ATOM     34  O   VAL A   1       6.827   4.870  18.960  0.00  0.00    +0.000 OA
BRANCH  33  35
ATOM     35  OXT VAL A   1       6.204   3.984  16.981  0.00  0.00    +0.000 OA
ATOM     36  HXT VAL A   1       5.469   4.247  16.394  0.00  0.00    +0.000 HD
ENDBRANCH  33  35
ENDBRANCH  29  33
ENDBRANCH  27  29
ENDBRANCH  22  25
ENDBRANCH   4  20
TORSDOF 8
ENDMDL
MODEL 3
REMARK VINA RESULT:      -8.0      3.232      5.041
REMARK  Name = 
REMARK  11 active torsions:
REMARK  status: ('A' for Active; 'I' for Inactive)
REMARK    1  A    between atoms: C_1  and  C_2
REMARK    2  A    between atoms: C_6  and  N_7
REMARK    3  A    between atoms: N_10  and  C_11
REMARK    4  A    between atoms: C_14  and  C_15
REMARK    5  A    between atoms: C_17  and  C_18
REMARK    6  A    between atoms: N_20  and  CA_21
REMARK    7  A    between atoms: CA_21  and  C_22
REMARK    8  A    between atoms: CA_21  and  CB_25
REMARK    9  A    between atoms: C_22  and  OXT_24
REMARK   10  A    between atoms: CB_25  and  CG1_26
REMARK   11  A    between atoms: CB_25  and  CG2_27
REMARK                            x       y       z     vdW  Elec       q    Type
REMARK                         _______ _______ _______ _____ _____    ______ ____
ROOT
ATOM      1  C   UNK A   0       1.347   9.178  19.345  0.00  0.00    +0.000 A 
ATOM      2  C   UNK A   0       1.638   8.023  20.072  0.00  0.00    +0.000 A 
ATOM      3  C   UNK A   0       2.447   7.024  19.527  0.00  0.00    +0.000 A 
ATOM      4  C   UNK A   0       2.995   7.164  18.245  0.00  0.00    +0.000 A 
ATOM      5  C   UNK A   0       2.683   8.317  17.509  0.00  0.00    +0.000 A 
ATOM      6  C   UNK A   0       1.841   9.306  18.045  0.00  0.00    +0.000 A 
ENDROOT
BRANCH   1  10
ATOM      7  N   UNK A   0      -1.221  11.636  20.071  0.00  0.00    +0.000 N 
ATOM      8  C   UNK A   0      -0.669  10.553  19.405  0.00  0.00    +0.000 C 
ATOM      9  O   UNK A   0      -1.216   9.940  18.495  0.00  0.00    +0.000 OA
ATOM     10  N   UNK A   0       0.585  10.227  19.911  0.00  0.00    +0.000 N 
ATOM     11  H   UNK A   0      -0.560  12.310  20.428  0.00  0.00    +0.000 HD
ATOM     12  H   UNK A   0       0.673  10.368  20.908  0.00  0.00    +0.000 HD
BRANCH   7  18
ATOM     13  C   UNK A   0      -5.345  11.738  17.349  0.00  0.00    +0.000 C 
ATOM     14  C   UNK A   0      -4.595  12.117  18.592  0.00  0.00    +0.000 A 
ATOM     15  C   UNK A   0      -5.239  12.840  19.605  0.00  0.00    +0.000 A 
ATOM     16  C   UNK A   0      -4.552  13.182  20.764  0.00  0.00    +0.000 A 
ATOM     17  C   UNK A   0      -3.221  12.793  20.926  0.00  0.00    +0.000 A 
ATOM     18  C   UNK A   0      -2.566  12.055  19.936  0.00  0.00    +0.000 A 
ATOM     19  C   UNK A   0      -3.255  11.740  18.758  0.00  0.00    +0.000 A 
ENDBRANCH   7  18
ENDBRANCH   1  10
BRANCH   4  20
ATOM     20  C   UNK A   0       3.910   6.142  17.731  0.00  0.00    +0.000 A 
ATOM     21  C   UNK A   0       5.063   6.344  16.927  0.00  0.00    +0.000 A 
ATOM     22  C   UNK A   0       5.460   5.086  16.539  0.00  0.00    +0.000 A 
ATOM     23  O   UNK A   0       4.671   4.172  17.166  0.00  0.00    +0.000 OA
ATOM     24  N   UNK A   0       3.710   4.825  17.921  0.00  0.00    +0.000 NA
BRANCH  22  25
ATOM     25  C   UNK A   0       6.456   4.659  15.589  0.00  0.00    +0.000 C 
ATOM     26  O   UNK A   0       7.603   4.369  15.909  0.00  0.00    +0.000 OA
ATOM     27  N   VAL A   1       6.052   4.657  14.265  0.00  0.00    +0.000 N 
ATOM     28  H   VAL A   1       5.065   4.786  14.067  0.00  0.00    +0.000 HD
BRANCH  27  29
ATOM     29  CA  VAL A   1       6.963   4.224  13.187  0.00  0.00    +0.000 C 
BRANCH  29  30
ATOM     30  CB  VAL A   1       6.221   3.567  12.001  0.00  0.00    +0.000 C 
ATOM     31  CG1 VAL A   1       6.886   2.252  11.586  0.00  0.00    +0.000 C 
ATOM     32  CG2 VAL A   1       4.729   3.338  12.266  0.00  0.00    +0.000 C 
ENDBRANCH  29  30
BRANCH  29  33
ATOM     33  C   VAL A   1       7.840   5.388  12.679  0.00  0.00    +0.000 C 
ATOM     34  O   VAL A   1       7.766   5.865  11.555  0.00  0.00    +0.000 OA
BRANCH  33  35
ATOM     35  OXT VAL A   1       8.665   5.902  13.625  0.00  0.00    +0.000 OA
ATOM     36  HXT VAL A   1       8.156   6.151  14.420  0.00  0.00    +0.000 HD
ENDBRANCH  33  35
ENDBRANCH  29  33
ENDBRANCH  27  29
ENDBRANCH  22  25
ENDBRANCH   4  20
TORSDOF 8
ENDMDL
MODEL 4
REMARK VINA RESULT:      -7.8      0.566      1.496
REMARK  Name = 
REMARK  11 active torsions:
REMARK  status: ('A' for Active; 'I' for Inactive)
REMARK    1  A    between atoms: C_1  and  C_2
REMARK    2  A    between atoms: C_6  and  N_7
REMARK    3  A    between atoms: N_10  and  C_11
REMARK    4  A    between atoms: C_14  and  C_15
REMARK    5  A    between atoms: C_17  and  C_18
REMARK    6  A    between atoms: N_20  and  CA_21
REMARK    7  A    between atoms: CA_21  and  C_22
REMARK    8  A    between atoms: CA_21  and  CB_25
REMARK    9  A    between atoms: C_22  and  OXT_24
REMARK   10  A    between atoms: CB_25  and  CG1_26
REMARK   11  A    between atoms: CB_25  and  CG2_27
REMARK                            x       y       z     vdW  Elec       q    Type
REMARK                         _______ _______ _______ _____ _____    ______ ____
ROOT
ATOM      1  C   UNK A   0      -0.648  11.106  22.247  0.00  0.00    +0.000 A 
ATOM      2  C   UNK A   0      -0.562   9.737  22.504  0.00  0.00    +0.000 A 
ATOM      3  C   UNK A   0       0.109   8.888  21.621  0.00  0.00    +0.000 A 
ATOM      4  C   UNK A   0       0.719   9.392  20.465  0.00  0.00    +0.000 A 
ATOM      5  C   UNK A   0       0.612  10.765  20.199  0.00  0.00    +0.000 A 
ATOM      6  C   UNK A   0      -0.093  11.613  21.070  0.00  0.00    +0.000 A 
ENDROOT
BRANCH   1  10
ATOM      7  N   UNK A   0      -2.827  13.527  23.846  0.00  0.00    +0.000 N 
ATOM      8  C   UNK A   0      -2.415  12.690  22.821  0.00  0.00    +0.000 C 
ATOM      9  O   UNK A   0      -2.994  12.562  21.748  0.00  0.00    +0.000 OA
ATOM     10  N   UNK A   0      -1.266  11.986  23.167  0.00  0.00    +0.000 N 
ATOM     11  H   UNK A   0      -2.089  13.894  24.429  0.00  0.00    +0.000 HD
ATOM     12  H   UNK A   0      -1.221  11.730  24.142  0.00  0.00    +0.000 HD
BRANCH   7  18
ATOM     13  C   UNK A   0      -7.759  13.229  23.948  0.00  0.00    +0.000 C 
ATOM     14  C   UNK A   0      -6.504  14.051  23.918  0.00  0.00    +0.000 A 
ATOM     15  C   UNK A   0      -6.582  15.450  23.960  0.00  0.00    +0.000 A 
ATOM     16  C   UNK A   0      -5.421  16.215  23.945  0.00  0.00    +0.000 A 
ATOM     17  C   UNK A   0      -4.175  15.589  23.902  0.00  0.00    +0.000 A 
ATOM     18  C   UNK A   0      -4.074  14.194  23.879  0.00  0.00    +0.000 A 
ATOM     19  C   UNK A   0      -5.248  13.430  23.864  0.00  0.00    +0.000 A 
ENDBRANCH   7  18
ENDBRANCH   1  10
BRANCH   4  20
ATOM     20  C   UNK A   0       1.489   8.494  19.601  0.00  0.00    +0.000 A 
ATOM     21  C   UNK A   0       1.898   7.164  19.887  0.00  0.00    +0.000 A 
ATOM     22  C   UNK A   0       2.756   6.821  18.870  0.00  0.00    +0.000 A 
ATOM     23  O   UNK A   0       2.773   7.833  17.961  0.00  0.00    +0.000 OA
ATOM     24  N   UNK A   0       1.975   8.874  18.406  0.00  0.00    +0.000 NA
BRANCH  22  25
ATOM     25  C   UNK A   0       3.613   5.675  18.701  0.00  0.00    +0.000 C 
ATOM     26  O   UNK A   0       3.383   4.587  19.217  0.00  0.00    +0.000 OA
ATOM     27  N   VAL A   1       4.762   5.895  17.961  0.00  0.00    +0.000 N 
ATOM     28  H   VAL A   1       4.844   6.772  17.456  0.00  0.00    +0.000 HD
BRANCH  27  29
ATOM     29  CA  VAL A   1       5.720   4.805  17.692  0.00  0.00    +0.000 C 
BRANCH  29  30
ATOM     30  CB  VAL A   1       6.172   4.754  16.214  0.00  0.00    +0.000 C 
ATOM     31  CG1 VAL A   1       5.866   3.393  15.584  0.00  0.00    +0.000 C 
ATOM     32  CG2 VAL A   1       5.578   5.874  15.355  0.00  0.00    +0.000 C 
ENDBRANCH  29  30
BRANCH  29  33
ATOM     33  C   VAL A   1       6.953   4.888  18.616  0.00  0.00    +0.000 C 
ATOM     34  O   VAL A   1       6.942   5.386  19.734  0.00  0.00    +0.000 OA
BRANCH  33  35
ATOM     35  OXT VAL A   1       8.055   4.284  18.110  0.00  0.00    +0.000 OA
ATOM     36  HXT VAL A   1       7.892   3.994  17.192  0.00  0.00    +0.000 HD
ENDBRANCH  33  35
ENDBRANCH  29  33
ENDBRANCH  27  29
ENDBRANCH  22  25
ENDBRANCH   4  20
TORSDOF 8
ENDMDL
MODEL 5
REMARK VINA RESULT:      -7.8      2.921      4.433
REMARK  Name = 
REMARK  11 active torsions:
REMARK  status: ('A' for Active; 'I' for Inactive)
REMARK    1  A    between atoms: C_1  and  C_2
REMARK    2  A    between atoms: C_6  and  N_7
REMARK    3  A    between atoms: N_10  and  C_11
REMARK    4  A    between atoms: C_14  and  C_15
REMARK    5  A    between atoms: C_17  and  C_18
REMARK    6  A    between atoms: N_20  and  CA_21
REMARK    7  A    between atoms: CA_21  and  C_22
REMARK    8  A    between atoms: CA_21  and  CB_25
REMARK    9  A    between atoms: C_22  and  OXT_24
REMARK   10  A    between atoms: CB_25  and  CG1_26
REMARK   11  A    between atoms: CB_25  and  CG2_27
REMARK                            x       y       z     vdW  Elec       q    Type
REMARK                         _______ _______ _______ _____ _____    ______ ____
ROOT
ATOM      1  C   UNK A   0       1.241   9.771  19.193  0.00  0.00    +0.000 A 
ATOM      2  C   UNK A   0       1.855   9.780  17.939  0.00  0.00    +0.000 A 
ATOM      3  C   UNK A   0       2.569   8.667  17.489  0.00  0.00    +0.000 A 
ATOM      4  C   UNK A   0       2.675   7.515  18.279  0.00  0.00    +0.000 A 
ATOM      5  C   UNK A   0       2.074   7.517  19.546  0.00  0.00    +0.000 A 
ATOM      6  C   UNK A   0       1.385   8.650  20.012  0.00  0.00    +0.000 A 
ENDROOT
BRANCH   1  10
ATOM      7  N   UNK A   0      -1.487  12.049  19.923  0.00  0.00    +0.000 N 
ATOM      8  C   UNK A   0      -0.922  10.868  19.468  0.00  0.00    +0.000 C 
ATOM      9  O   UNK A   0      -1.554   9.928  18.998  0.00  0.00    +0.000 OA
ATOM     10  N   UNK A   0       0.459  10.865  19.633  0.00  0.00    +0.000 N 
ATOM     11  H   UNK A   0      -0.903  12.869  19.841  0.00  0.00    +0.000 HD
ATOM     12  H   UNK A   0       0.773  11.345  20.464  0.00  0.00    +0.000 HD
BRANCH   7  18
ATOM     13  C   UNK A   0      -5.234  13.167  22.945  0.00  0.00    +0.000 C 
ATOM     14  C   UNK A   0      -4.725  12.795  21.583  0.00  0.00    +0.000 A 
ATOM     15  C   UNK A   0      -5.616  12.695  20.506  0.00  0.00    +0.000 A 
ATOM     16  C   UNK A   0      -5.147  12.363  19.240  0.00  0.00    +0.000 A 
ATOM     17  C   UNK A   0      -3.784  12.142  19.037  0.00  0.00    +0.000 A 
ATOM     18  C   UNK A   0      -2.876  12.256  20.095  0.00  0.00    +0.000 A 
ATOM     19  C   UNK A   0      -3.359  12.561  21.374  0.00  0.00    +0.000 A 
ENDBRANCH   7  18
ENDBRANCH   1  10
BRANCH   4  20
ATOM     20  C   UNK A   0       3.356   6.331  17.747  0.00  0.00    +0.000 A 
ATOM     21  C   UNK A   0       4.647   6.273  17.158  0.00  0.00    +0.000 A 
ATOM     22  C   UNK A   0       4.752   5.005  16.639  0.00  0.00    +0.000 A 
ATOM     23  O   UNK A   0       3.644   4.300  16.995  0.00  0.00    +0.000 OA
ATOM     24  N   UNK A   0       2.776   5.119  17.697  0.00  0.00    +0.000 NA
BRANCH  22  25
ATOM     25  C   UNK A   0       5.750   4.411  15.786  0.00  0.00    +0.000 C 
ATOM     26  O   UNK A   0       6.728   3.811  16.220  0.00  0.00    +0.000 OA
ATOM     27  N   VAL A   1       5.571   4.615  14.428  0.00  0.00    +0.000 N 
ATOM     28  H   VAL A   1       4.688   5.008  14.118  0.00  0.00    +0.000 HD
BRANCH  27  29
ATOM     29  CA  VAL A   1       6.507   4.047  13.438  0.00  0.00    +0.000 C 
BRANCH  29  30
ATOM     30  CB  VAL A   1       5.796   3.539  12.163  0.00  0.00    +0.000 C 
ATOM     31  CG1 VAL A   1       6.333   2.171  11.732  0.00  0.00    +0.000 C 
ATOM     32  CG2 VAL A   1       4.271   3.485  12.295  0.00  0.00    +0.000 C 
ENDBRANCH  29  30
BRANCH  29  33
ATOM     33  C   VAL A   1       7.614   5.052  13.059  0.00  0.00    +0.000 C 
ATOM     34  O   VAL A   1       7.904   5.355  11.909  0.00  0.00    +0.000 OA
BRANCH  33  35
ATOM     35  OXT VAL A   1       8.203   5.643  14.127  0.00  0.00    +0.000 OA
ATOM     36  HXT VAL A   1       9.148   5.400  14.171  0.00  0.00    +0.000 HD
ENDBRANCH  33  35
ENDBRANCH  29  33
ENDBRANCH  27  29
ENDBRANCH  22  25
ENDBRANCH   4  20
TORSDOF 8
ENDMDL
MODEL 6
REMARK VINA RESULT:      -7.6      2.097     12.448
REMARK  Name = 
REMARK  11 active torsions:
REMARK  status: ('A' for Active; 'I' for Inactive)
REMARK    1  A    between atoms: C_1  and  C_2
REMARK    2  A    between atoms: C_6  and  N_7
REMARK    3  A    between atoms: N_10  and  C_11
REMARK    4  A    between atoms: C_14  and  C_15
REMARK    5  A    between atoms: C_17  and  C_18
REMARK    6  A    between atoms: N_20  and  CA_21
REMARK    7  A    between atoms: CA_21  and  C_22
REMARK    8  A    between atoms: CA_21  and  CB_25
REMARK    9  A    between atoms: C_22  and  OXT_24
REMARK   10  A    between atoms: CB_25  and  CG1_26
REMARK   11  A    between atoms: CB_25  and  CG2_27
REMARK                            x       y       z     vdW  Elec       q    Type
REMARK                         _______ _______ _______ _____ _____    ______ ____
ROOT
ATOM      1  C   UNK A   0       1.733   7.762  20.123  0.00  0.00    +0.000 A 
ATOM      2  C   UNK A   0       1.562   8.675  19.081  0.00  0.00    +0.000 A 
ATOM      3  C   UNK A   0       0.722   9.780  19.234  0.00  0.00    +0.000 A 
ATOM      4  C   UNK A   0       0.041  10.002  20.439  0.00  0.00    +0.000 A 
ATOM      5  C   UNK A   0       0.199   9.071  21.476  0.00  0.00    +0.000 A 
ATOM      6  C   UNK A   0       1.018   7.942  21.309  0.00  0.00    +0.000 A 
ENDROOT
BRANCH   1  10
ATOM      7  N   UNK A   0       4.175   5.359  18.928  0.00  0.00    +0.000 N 
ATOM      8  C   UNK A   0       3.399   6.505  18.857  0.00  0.00    +0.000 C 
ATOM      9  O   UNK A   0       3.395   7.289  17.913  0.00  0.00    +0.000 OA
ATOM     10  N   UNK A   0       2.633   6.676  20.005  0.00  0.00    +0.000 N 
ATOM     11  H   UNK A   0       3.782   4.601  19.467  0.00  0.00    +0.000 HD
ATOM     12  H   UNK A   0       3.090   6.370  20.851  0.00  0.00    +0.000 HD
BRANCH   7  18
ATOM     13  C   UNK A   0       5.539   4.255  14.308  0.00  0.00    +0.000 C 
ATOM     14  C   UNK A   0       5.887   4.485  15.749  0.00  0.00    +0.000 A 
ATOM     15  C   UNK A   0       7.223   4.418  16.166  0.00  0.00    +0.000 A 
ATOM     16  C   UNK A   0       7.552   4.642  17.498  0.00  0.00    +0.000 A 
ATOM     17  C   UNK A   0       6.551   4.950  18.420  0.00  0.00    +0.000 A 
ATOM     18  C   UNK A   0       5.213   5.040  18.022  0.00  0.00    +0.000 A 
ATOM     19  C   UNK A   0       4.886   4.783  16.684  0.00  0.00    +0.000 A 
ENDBRANCH   7  18
ENDBRANCH   1  10
BRANCH   4  20
ATOM     20  C   UNK A   0      -0.766  11.214  20.602  0.00  0.00    +0.000 A 
ATOM     21  C   UNK A   0      -1.654  11.520  21.669  0.00  0.00    +0.000 A 
ATOM     22  C   UNK A   0      -2.319  12.656  21.273  0.00  0.00    +0.000 A 
ATOM     23  O   UNK A   0      -1.784  13.080  20.096  0.00  0.00    +0.000 OA
ATOM     24  N   UNK A   0      -0.806  12.192  19.680  0.00  0.00    +0.000 NA
BRANCH  22  25
ATOM     25  C   UNK A   0      -3.448  13.341  21.849  0.00  0.00    +0.000 C 
ATOM     26  O   UNK A   0      -3.409  14.515  22.201  0.00  0.00    +0.000 OA
ATOM     27  N   VAL A   1      -4.578  12.565  22.044  0.00  0.00    +0.000 N 
ATOM     28  H   VAL A   1      -4.600  11.640  21.626  0.00  0.00    +0.000 HD
BRANCH  27  29
ATOM     29  CA  VAL A   1      -5.814  13.141  22.608  0.00  0.00    +0.000 C 
BRANCH  29  30
ATOM     30  CB  VAL A   1      -7.023  13.023  21.651  0.00  0.00    +0.000 C 
ATOM     31  CG1 VAL A   1      -7.464  14.396  21.136  0.00  0.00    +0.000 C 
ATOM     32  CG2 VAL A   1      -6.778  12.076  20.472  0.00  0.00    +0.000 C 
ENDBRANCH  29  30
BRANCH  29  33
ATOM     33  C   VAL A   1      -6.163  12.517  23.975  0.00  0.00    +0.000 C 
ATOM     34  O   VAL A   1      -5.333  12.102  24.773  0.00  0.00    +0.000 OA
BRANCH  33  35
ATOM     35  OXT VAL A   1      -7.488  12.534  24.260  0.00  0.00    +0.000 OA
ATOM     36  HXT VAL A   1      -7.916  11.719  23.935  0.00  0.00    +0.000 HD
ENDBRANCH  33  35
ENDBRANCH  29  33
ENDBRANCH  27  29
ENDBRANCH  22  25
ENDBRANCH   4  20
TORSDOF 8
ENDMDL
MODEL 7
REMARK VINA RESULT:      -7.5      3.618      5.226
REMARK  Name = 
REMARK  11 active torsions:
REMARK  status: ('A' for Active; 'I' for Inactive)
REMARK    1  A    between atoms: C_1  and  C_2
REMARK    2  A    between atoms: C_6  and  N_7
REMARK    3  A    between atoms: N_10  and  C_11
REMARK    4  A    between atoms: C_14  and  C_15
REMARK    5  A    between atoms: C_17  and  C_18
REMARK    6  A    between atoms: N_20  and  CA_21
REMARK    7  A    between atoms: CA_21  and  C_22
REMARK    8  A    between atoms: CA_21  and  CB_25
REMARK    9  A    between atoms: C_22  and  OXT_24
REMARK   10  A    between atoms: CB_25  and  CG1_26
REMARK   11  A    between atoms: CB_25  and  CG2_27
REMARK                            x       y       z     vdW  Elec       q    Type
REMARK                         _______ _______ _______ _____ _____    ______ ____
ROOT
ATOM      1  C   UNK A   0       1.106   9.202  19.236  0.00  0.00    +0.000 A 
ATOM      2  C   UNK A   0       1.604   9.265  17.933  0.00  0.00    +0.000 A 
ATOM      3  C   UNK A   0       2.470   8.279  17.455  0.00  0.00    +0.000 A 
ATOM      4  C   UNK A   0       2.847   7.200  18.265  0.00  0.00    +0.000 A 
ATOM      5  C   UNK A   0       2.361   7.152  19.580  0.00  0.00    +0.000 A 
ATOM      6  C   UNK A   0       1.517   8.162  20.072  0.00  0.00    +0.000 A 
ENDROOT
BRANCH   1  10
ATOM      7  N   UNK A   0      -0.515  12.252  20.346  0.00  0.00    +0.000 N 
ATOM      8  C   UNK A   0       0.522  11.499  19.819  0.00  0.00    +0.000 C 
ATOM      9  O   UNK A   0       1.606  11.953  19.468  0.00  0.00    +0.000 OA
ATOM     10  N   UNK A   0       0.175  10.157  19.711  0.00  0.00    +0.000 N 
ATOM     11  H   UNK A   0      -1.117  11.767  20.995  0.00  0.00    +0.000 HD
ATOM     12  H   UNK A   0      -0.795  10.002  19.478  0.00  0.00    +0.000 HD
BRANCH   7  18
ATOM     13  C   UNK A   0      -0.836  16.419  22.985  0.00  0.00    +0.000 C 
ATOM     14  C   UNK A   0      -0.714  15.720  21.662  0.00  0.00    +0.000 A 
ATOM     15  C   UNK A   0      -0.596  16.469  20.484  0.00  0.00    +0.000 A 
ATOM     16  C   UNK A   0      -0.471  15.827  19.257  0.00  0.00    +0.000 A 
ATOM     17  C   UNK A   0      -0.448  14.432  19.200  0.00  0.00    +0.000 A 
ATOM     18  C   UNK A   0      -0.545  13.666  20.367  0.00  0.00    +0.000 A 
ATOM     19  C   UNK A   0      -0.701  14.320  21.596  0.00  0.00    +0.000 A 
ENDBRANCH   7  18
ENDBRANCH   1  10
BRANCH   4  20
ATOM     20  C   UNK A   0       3.687   6.135  17.711  0.00  0.00    +0.000 A 
ATOM     21  C   UNK A   0       4.917   6.282  17.016  0.00  0.00    +0.000 A 
ATOM     22  C   UNK A   0       5.208   5.032  16.524  0.00  0.00    +0.000 A 
ATOM     23  O   UNK A   0       4.277   4.157  16.993  0.00  0.00    +0.000 OA
ATOM     24  N   UNK A   0       3.333   4.838  17.744  0.00  0.00    +0.000 NA
BRANCH  22  25
ATOM     25  C   UNK A   0       6.226   4.589  15.606  0.00  0.00    +0.000 C 
ATOM     26  O   UNK A   0       7.370   4.319  15.957  0.00  0.00    +0.000 OA
ATOM     27  N   VAL A   1       5.850   4.548  14.275  0.00  0.00    +0.000 N 
ATOM     28  H   VAL A   1       4.866   4.662  14.054  0.00  0.00    +0.000 HD
BRANCH  27  29
ATOM     29  CA  VAL A   1       6.787   4.095  13.228  0.00  0.00    +0.000 C 
BRANCH  29  30
ATOM     30  CB  VAL A   1       6.070   3.456  12.016  0.00  0.00    +0.000 C 
ATOM     31  CG1 VAL A   1       6.532   2.014  11.791  0.00  0.00    +0.000 C 
ATOM     32  CG2 VAL A   1       4.542   3.507  12.114  0.00  0.00    +0.000 C 
ENDBRANCH  29  30
BRANCH  29  33
ATOM     33  C   VAL A   1       7.706   5.239  12.752  0.00  0.00    +0.000 C 
ATOM     34  O   VAL A   1       7.671   5.729  11.631  0.00  0.00    +0.000 OA
BRANCH  33  35
ATOM     35  OXT VAL A   1       8.523   5.720  13.720  0.00  0.00    +0.000 OA
ATOM     36  HXT VAL A   1       8.160   6.547  14.091  0.00  0.00    +0.000 HD
ENDBRANCH  33  35
ENDBRANCH  29  33
ENDBRANCH  27  29
ENDBRANCH  22  25
ENDBRANCH   4  20
TORSDOF 8
ENDMDL
MODEL 8
REMARK VINA RESULT:      -7.4      1.931      2.243
REMARK  Name = 
REMARK  11 active torsions:
REMARK  status: ('A' for Active; 'I' for Inactive)
REMARK    1  A    between atoms: C_1  and  C_2
REMARK    2  A    between atoms: C_6  and  N_7
REMARK    3  A    between atoms: N_10  and  C_11
REMARK    4  A    between atoms: C_14  and  C_15
REMARK    5  A    between atoms: C_17  and  C_18
REMARK    6  A    between atoms: N_20  and  CA_21
REMARK    7  A    between atoms: CA_21  and  C_22
REMARK    8  A    between atoms: CA_21  and  CB_25
REMARK    9  A    between atoms: C_22  and  OXT_24
REMARK   10  A    between atoms: CB_25  and  CG1_26
REMARK   11  A    between atoms: CB_25  and  CG2_27
REMARK                            x       y       z     vdW  Elec       q    Type
REMARK                         _______ _______ _______ _____ _____    ______ ____
ROOT
ATOM      1  C   UNK A   0      -1.020  12.243  19.665  0.00  0.00    +0.000 A 
ATOM      2  C   UNK A   0      -1.261  11.215  18.752  0.00  0.00    +0.000 A 
ATOM      3  C   UNK A   0      -0.440  10.086  18.719  0.00  0.00    +0.000 A 
ATOM      4  C   UNK A   0       0.636   9.955  19.608  0.00  0.00    +0.000 A 
ATOM      5  C   UNK A   0       0.887  11.000  20.509  0.00  0.00    +0.000 A 
ATOM      6  C   UNK A   0       0.081  12.151  20.519  0.00  0.00    +0.000 A 
ENDROOT
BRANCH   1  10
ATOM      7  N   UNK A   0      -3.659  14.558  20.583  0.00  0.00    +0.000 N 
ATOM      8  C   UNK A   0      -2.904  13.401  20.698  0.00  0.00    +0.000 C 
ATOM      9  O   UNK A   0      -3.091  12.526  21.537  0.00  0.00    +0.000 OA
ATOM     10  N   UNK A   0      -1.884  13.361  19.754  0.00  0.00    +0.000 N 
ATOM     11  H   UNK A   0      -3.732  14.938  19.650  0.00  0.00    +0.000 HD
ATOM     12  H   UNK A   0      -1.484  14.263  19.544  0.00  0.00    +0.000 HD
BRANCH   7  18
ATOM     13  C   UNK A   0      -4.600  16.802  24.885  0.00  0.00    +0.000 C 
ATOM     14  C   UNK A   0      -5.080  16.081  23.659  0.00  0.00    +0.000 A 
ATOM     15  C   UNK A   0      -6.451  15.878  23.459  0.00  0.00    +0.000 A 
ATOM     16  C   UNK A   0      -6.901  15.221  22.319  0.00  0.00    +0.000 A 
ATOM     17  C   UNK A   0      -5.986  14.777  21.364  0.00  0.00    +0.000 A 
ATOM     18  C   UNK A   0      -4.613  14.987  21.535  0.00  0.00    +0.000 A 
ATOM     19  C   UNK A   0      -4.165  15.622  22.701  0.00  0.00    +0.000 A 
ENDBRANCH   7  18
ENDBRANCH   1  10
BRANCH   4  20
ATOM     20  C   UNK A   0       1.429   8.723  19.610  0.00  0.00    +0.000 A 
ATOM     21  C   UNK A   0       2.260   8.232  18.568  0.00  0.00    +0.000 A 
ATOM     22  C   UNK A   0       2.620   6.964  18.958  0.00  0.00    +0.000 A 
ATOM     23  O   UNK A   0       2.136   6.744  20.211  0.00  0.00    +0.000 OA
ATOM     24  N   UNK A   0       1.403   7.844  20.627  0.00  0.00    +0.000 NA
BRANCH  22  25
ATOM     25  C   UNK A   0       3.307   5.915  18.248  0.00  0.00    +0.000 C 
ATOM     26  O   UNK A   0       2.785   4.840  17.975  0.00  0.00    +0.000 OA
ATOM     27  N   VAL A   1       4.634   6.172  17.945  0.00  0.00    +0.000 N 
ATOM     28  H   VAL A   1       4.980   7.116  18.083  0.00  0.00    +0.000 HD
BRANCH  27  29
ATOM     29  CA  VAL A   1       5.453   5.193  17.205  0.00  0.00    +0.000 C 
BRANCH  29  30
ATOM     30  CB  VAL A   1       5.274   5.297  15.672  0.00  0.00    +0.000 C 
ATOM     31  CG1 VAL A   1       5.133   6.754  15.224  0.00  0.00    +0.000 C 
ATOM     32  CG2 VAL A   1       6.390   4.610  14.879  0.00  0.00    +0.000 C 
ENDBRANCH  29  30
BRANCH  29  33
ATOM     33  C   VAL A   1       6.948   5.310  17.568  0.00  0.00    +0.000 C 
ATOM     34  O   VAL A   1       7.613   6.328  17.428  0.00  0.00    +0.000 OA
BRANCH  33  35
ATOM     35  OXT VAL A   1       7.459   4.192  18.140  0.00  0.00    +0.000 OA
ATOM     36  HXT VAL A   1       8.091   4.429  18.845  0.00  0.00    +0.000 HD
ENDBRANCH  33  35
ENDBRANCH  29  33
ENDBRANCH  27  29
ENDBRANCH  22  25
ENDBRANCH   4  20
TORSDOF 8
ENDMDL
MODEL 9
REMARK VINA RESULT:      -7.4      1.530      2.181
REMARK  Name = 
REMARK  11 active torsions:
REMARK  status: ('A' for Active; 'I' for Inactive)
REMARK    1  A    between atoms: C_1  and  C_2
REMARK    2  A    between atoms: C_6  and  N_7
REMARK    3  A    between atoms: N_10  and  C_11
REMARK    4  A    between atoms: C_14  and  C_15
REMARK    5  A    between atoms: C_17  and  C_18
REMARK    6  A    between atoms: N_20  and  CA_21
REMARK    7  A    between atoms: CA_21  and  C_22
REMARK    8  A    between atoms: CA_21  and  CB_25
REMARK    9  A    between atoms: C_22  and  OXT_24
REMARK   10  A    between atoms: CB_25  and  CG1_26
REMARK   11  A    between atoms: CB_25  and  CG2_27
REMARK                            x       y       z     vdW  Elec       q    Type
REMARK                         _______ _______ _______ _____ _____    ______ ____
ROOT
ATOM      1  C   UNK A   0      -0.220  10.977  21.844  0.00  0.00    +0.000 A 
ATOM      2  C   UNK A   0      -0.105   9.884  22.706  0.00  0.00    +0.000 A 
ATOM      3  C   UNK A   0       0.471   8.690  22.266  0.00  0.00    +0.000 A 
ATOM      4  C   UNK A   0       0.957   8.566  20.957  0.00  0.00    +0.000 A 
ATOM      5  C   UNK A   0       0.820   9.660  20.089  0.00  0.00    +0.000 A 
ATOM      6  C   UNK A   0       0.209  10.849  20.522  0.00  0.00    +0.000 A 
ENDROOT
BRANCH   1  10
ATOM      7  N   UNK A   0      -2.195  13.989  22.282  0.00  0.00    +0.000 N 
ATOM      8  C   UNK A   0      -1.886  12.757  21.727  0.00  0.00    +0.000 C 
ATOM      9  O   UNK A   0      -2.546  12.198  20.857  0.00  0.00    +0.000 OA
ATOM     10  N   UNK A   0      -0.740  12.213  22.296  0.00  0.00    +0.000 N 
ATOM     11  H   UNK A   0      -1.406  14.532  22.599  0.00  0.00    +0.000 HD
ATOM     12  H   UNK A   0      -0.633  12.420  23.279  0.00  0.00    +0.000 HD
BRANCH   7  18
ATOM     13  C   UNK A   0      -6.870  14.791  23.669  0.00  0.00    +0.000 C 
ATOM     14  C   UNK A   0      -5.720  15.065  22.745  0.00  0.00    +0.000 A 
ATOM     15  C   UNK A   0      -5.855  16.014  21.722  0.00  0.00    +0.000 A 
ATOM     16  C   UNK A   0      -4.788  16.280  20.872  0.00  0.00    +0.000 A 
ATOM     17  C   UNK A   0      -3.575  15.613  21.045  0.00  0.00    +0.000 A 
ATOM     18  C   UNK A   0      -3.413  14.676  22.071  0.00  0.00    +0.000 A 
ATOM     19  C   UNK A   0      -4.502  14.391  22.906  0.00  0.00    +0.000 A 
ENDBRANCH   7  18
ENDBRANCH   1  10
BRANCH   4  20
ATOM     20  C   UNK A   0       1.634   7.333  20.549  0.00  0.00    +0.000 A 
ATOM     21  C   UNK A   0       2.671   7.199  19.587  0.00  0.00    +0.000 A 
ATOM     22  C   UNK A   0       2.828   5.845  19.409  0.00  0.00    +0.000 A 
ATOM     23  O   UNK A   0       2.022   5.198  20.295  0.00  0.00    +0.000 OA
ATOM     24  N   UNK A   0       1.285   6.122  21.016  0.00  0.00    +0.000 NA
BRANCH  22  25
ATOM     25  C   UNK A   0       3.602   5.100  18.449  0.00  0.00    +0.000 C 
ATOM     26  O   UNK A   0       3.148   4.151  17.818  0.00  0.00    +0.000 OA
ATOM     27  N   VAL A   1       4.926   5.483  18.326  0.00  0.00    +0.000 N 
ATOM     28  H   VAL A   1       5.217   6.345  18.776  0.00  0.00    +0.000 HD
BRANCH  27  29
ATOM     29  CA  VAL A   1       5.830   4.818  17.367  0.00  0.00    +0.000 C 
BRANCH  29  30
ATOM     30  CB  VAL A   1       5.843   5.504  15.980  0.00  0.00    +0.000 C 
ATOM     31  CG1 VAL A   1       5.366   4.550  14.882  0.00  0.00    +0.000 C 
ATOM     32  CG2 VAL A   1       5.032   6.803  15.934  0.00  0.00    +0.000 C 
ENDBRANCH  29  30
BRANCH  29  33
ATOM     33  C   VAL A   1       7.268   4.714  17.916  0.00  0.00    +0.000 C 
ATOM     34  O   VAL A   1       7.616   5.122  19.015  0.00  0.00    +0.000 OA
BRANCH  33  35
ATOM     35  OXT VAL A   1       8.118   4.051  17.094  0.00  0.00    +0.000 OA
ATOM     36  HXT VAL A   1       9.010   4.011  17.488  0.00  0.00    +0.000 HD
ENDBRANCH  33  35
ENDBRANCH  29  33
ENDBRANCH  27  29
ENDBRANCH  22  25
ENDBRANCH   4  20
TORSDOF 8
ENDMDL
