MODEL 1
REMARK VINA RESULT:      -6.8      0.000      0.000
REMARK  Name = 
REMARK  6 active torsions:
REMARK  status: ('A' for Active; 'I' for Inactive)
REMARK    1  A    between atoms: C_2  and  C_3
REMARK    2  A    between atoms: C_6  and  C_7
REMARK    3  A    between atoms: C_16  and  C_17
REMARK    4  A    between atoms: C_17  and  C_18
REMARK    5  A    between atoms: C_17  and  C_22
REMARK    6  A    between atoms: C_18  and  N_19
REMARK                            x       y       z     vdW  Elec       q    Type
REMARK                         _______ _______ _______ _____ _____    ______ ____
ROOT
ATOM      1  C   UNL     1       1.040  11.210  18.975  0.00  0.00    +0.000 A 
ATOM      2  N   UNL     1       2.040  12.131  18.737  0.00  0.00    +0.000 N 
ATOM      3  C   UNL     1       1.566  13.410  18.694  0.00  0.00    +0.000 A 
ATOM      4  C   UNL     1       2.270  14.607  18.480  0.00  0.00    +0.000 A 
ATOM      5  C   UNL     1       1.552  15.802  18.514  0.00  0.00    +0.000 A 
ATOM      6 CL   UNL     1       2.357  17.296  18.238  0.00  0.00    +0.000 Cl
ATOM      7  C   UNL     1       0.191  15.797  18.750  0.00  0.00    +0.000 A 
ATOM      8  C   UNL     1      -0.486  14.586  18.923  0.00  0.00    +0.000 A 
ATOM      9  C   UNL     1       0.193  13.343  18.918  0.00  0.00    +0.000 A 
ATOM     10  C   UNL     1      -0.162  11.939  19.094  0.00  0.00    +0.000 A 
ATOM     11  H   UNL     1       3.017  11.900  18.635  0.00  0.00    +0.000 HD
ENDROOT
BRANCH   1  15
ATOM     12  C   UNL     1       2.295   7.100  19.287  0.00  0.00    +0.000 A 
ATOM     13  C   UNL     1       1.674   7.725  20.369  0.00  0.00    +0.000 A 
ATOM     14  C   UNL     1       1.242   9.052  20.262  0.00  0.00    +0.000 A 
ATOM     15  C   UNL     1       1.399   9.778  19.076  0.00  0.00    +0.000 A 
ATOM     16  C   UNL     1       1.988   9.113  17.983  0.00  0.00    +0.000 A 
ATOM     17  C   UNL     1       2.446   7.794  18.090  0.00  0.00    +0.000 A 
BRANCH  12  19
ATOM     18  N   UNL     1       3.186   4.680  19.541  0.00  0.00    +0.000 NA
ATOM     19  C   UNL     1       2.802   5.761  19.419  0.00  0.00    +0.000 C 
ENDBRANCH  12  19
ENDBRANCH   1  15
BRANCH  10  20
ATOM     20  C   UNL     1      -1.559  11.333  19.385  0.00  0.00    +0.000 C 
BRANCH  20  21
ATOM     21  C   UNL     1      -2.261  10.882  18.089  0.00  0.00    +0.000 A 
ATOM     22  C   UNL     1      -1.824  10.019  17.100  0.00  0.00    +0.000 A 
ATOM     23  C   UNL     1      -2.729   9.925  16.004  0.00  0.00    +0.000 A 
ATOM     24  C   UNL     1      -3.854  10.694  16.195  0.00  0.00    +0.000 A 
ATOM     25  S   UNL     1      -3.821  11.510  17.696  0.00  0.00    +0.000 S 
ENDBRANCH  20  21
BRANCH  20  26
ATOM     26  C   UNL     1      -2.563  12.200  20.154  0.00  0.00    +0.000 C 
BRANCH  26  27
ATOM     27  N   UNL     1      -2.113  12.517  21.548  0.00  0.00    +0.000 N 
ATOM     28  O   UNL     1      -1.686  11.607  22.265  0.00  0.00    +0.000 OA
ATOM     29  O   UNL     1      -2.230  13.703  21.898  0.00  0.00    +0.000 OA
ENDBRANCH  26  27
ENDBRANCH  20  26
ENDBRANCH  10  20
TORSDOF 6
ENDMDL
MODEL 2
REMARK VINA RESULT:      -6.8      5.379      9.135
REMARK  Name = 
REMARK  6 active torsions:
REMARK  status: ('A' for Active; 'I' for Inactive)
REMARK    1  A    between atoms: C_2  and  C_3
REMARK    2  A    between atoms: C_6  and  C_7
REMARK    3  A    between atoms: C_16  and  C_17
REMARK    4  A    between atoms: C_17  and  C_18
REMARK    5  A    between atoms: C_17  and  C_22
REMARK    6  A    between atoms: C_18  and  N_19
REMARK                            x       y       z     vdW  Elec       q    Type
REMARK                         _______ _______ _______ _____ _____    ______ ____
ROOT
ATOM      1  C   UNL     1       3.444   6.696  17.761  0.00  0.00    +0.000 A 
ATOM      2  N   UNL     1       4.333   7.164  16.816  0.00  0.00    +0.000 N 
ATOM      3  C   UNL     1       5.009   6.154  16.196  0.00  0.00    +0.000 A 
ATOM      4  C   UNL     1       5.984   6.231  15.187  0.00  0.00    +0.000 A 
ATOM      5  C   UNL     1       6.508   5.038  14.693  0.00  0.00    +0.000 A 
ATOM      6 CL   UNL     1       7.719   5.071  13.472  0.00  0.00    +0.000 Cl
ATOM      7  C   UNL     1       6.077   3.822  15.187  0.00  0.00    +0.000 A 
ATOM      8  C   UNL     1       5.132   3.781  16.218  0.00  0.00    +0.000 A 
ATOM      9  C   UNL     1       4.550   4.960  16.746  0.00  0.00    +0.000 A 
ATOM     10  C   UNL     1       3.550   5.290  17.756  0.00  0.00    +0.000 A 
ATOM     11  H   UNL     1       4.455   8.138  16.579  0.00  0.00    +0.000 HD
ENDROOT
BRANCH   1  15
ATOM     12  C   UNL     1       0.851   9.456  19.818  0.00  0.00    +0.000 A 
ATOM     13  C   UNL     1       1.364   8.346  20.489  0.00  0.00    +0.000 A 
ATOM     14  C   UNL     1       2.226   7.462  19.832  0.00  0.00    +0.000 A 
ATOM     15  C   UNL     1       2.613   7.671  18.503  0.00  0.00    +0.000 A 
ATOM     16  C   UNL     1       2.120   8.821  17.858  0.00  0.00    +0.000 A 
ATOM     17  C   UNL     1       1.236   9.697  18.501  0.00  0.00    +0.000 A 
BRANCH  12  19
ATOM     18  N   UNL     1      -0.847  11.039  20.967  0.00  0.00    +0.000 NA
ATOM     19  C   UNL     1      -0.090  10.326  20.470  0.00  0.00    +0.000 C 
ENDBRANCH  12  19
ENDBRANCH   1  15
BRANCH  10  20
ATOM     20  C   UNL     1       2.727   4.319  18.642  0.00  0.00    +0.000 C 
BRANCH  20  21
ATOM     21  C   UNL     1       3.471   2.986  18.862  0.00  0.00    +0.000 A 
ATOM     22  C   UNL     1       3.450   1.826  18.107  0.00  0.00    +0.000 A 
ATOM     23  C   UNL     1       4.206   0.770  18.692  0.00  0.00    +0.000 A 
ATOM     24  C   UNL     1       4.815   1.156  19.864  0.00  0.00    +0.000 A 
ATOM     25  S   UNL     1       4.486   2.789  20.244  0.00  0.00    +0.000 S 
ENDBRANCH  20  21
BRANCH  20  26
ATOM     26  C   UNL     1       1.310   3.963  18.178  0.00  0.00    +0.000 C 
BRANCH  26  27
ATOM     27  N   UNL     1       0.557   3.142  19.182  0.00  0.00    +0.000 N 
ATOM     28  O   UNL     1       0.475   3.541  20.347  0.00  0.00    +0.000 OA
ATOM     29  O   UNL     1       0.077   2.078  18.759  0.00  0.00    +0.000 OA
ENDBRANCH  26  27
ENDBRANCH  20  26
ENDBRANCH  10  20
TORSDOF 6
ENDMDL
MODEL 3
REMARK VINA RESULT:      -6.8      0.983      1.142
REMARK  Name = 
REMARK  6 active torsions:
REMARK  status: ('A' for Active; 'I' for Inactive)
REMARK    1  A    between atoms: C_2  and  C_3
REMARK    2  A    between atoms: C_6  and  C_7
REMARK    3  A    between atoms: C_16  and  C_17
REMARK    4  A    between atoms: C_17  and  C_18
REMARK    5  A    between atoms: C_17  and  C_22
REMARK    6  A    between atoms: C_18  and  N_19
REMARK                            x       y       z     vdW  Elec       q    Type
REMARK                         _______ _______ _______ _____ _____    ______ ____
ROOT
ATOM      1  C   UNL     1       1.443  10.851  18.871  0.00  0.00    +0.000 A 
ATOM      2  N   UNL     1       2.407  11.704  18.373  0.00  0.00    +0.000 N 
ATOM      3  C   UNL     1       2.018  13.010  18.422  0.00  0.00    +0.000 A 
ATOM      4  C   UNL     1       2.718  14.158  18.015  0.00  0.00    +0.000 A 
ATOM      5  C   UNL     1       2.106  15.397  18.200  0.00  0.00    +0.000 A 
ATOM      6 CL   UNL     1       2.908  16.835  17.701  0.00  0.00    +0.000 Cl
ATOM      7  C   UNL     1       0.849  15.482  18.766  0.00  0.00    +0.000 A 
ATOM      8  C   UNL     1       0.163  14.318  19.127  0.00  0.00    +0.000 A 
ATOM      9  C   UNL     1       0.742  13.034  18.981  0.00  0.00    +0.000 A 
ATOM     10  C   UNL     1       0.356  11.657  19.269  0.00  0.00    +0.000 A 
ATOM     11  H   UNL     1       3.313  11.409  18.037  0.00  0.00    +0.000 HD
ENDROOT
BRANCH   1  15
ATOM     12  C   UNL     1       2.483   6.671  19.002  0.00  0.00    +0.000 A 
ATOM     13  C   UNL     1       1.917   7.286  20.119  0.00  0.00    +0.000 A 
ATOM     14  C   UNL     1       1.555   8.637  20.071  0.00  0.00    +0.000 A 
ATOM     15  C   UNL     1       1.728   9.399  18.910  0.00  0.00    +0.000 A 
ATOM     16  C   UNL     1       2.259   8.748  17.781  0.00  0.00    +0.000 A 
ATOM     17  C   UNL     1       2.648   7.403  17.828  0.00  0.00    +0.000 A 
BRANCH  12  19
ATOM     18  N   UNL     1       3.247   4.199  19.140  0.00  0.00    +0.000 NA
ATOM     19  C   UNL     1       2.921   5.304  19.072  0.00  0.00    +0.000 C 
ENDBRANCH  12  19
ENDBRANCH   1  15
BRANCH  10  20
ATOM     20  C   UNL     1      -0.959  11.144  19.909  0.00  0.00    +0.000 C 
BRANCH  20  21
ATOM     21  C   UNL     1      -2.080  10.999  18.861  0.00  0.00    +0.000 A 
ATOM     22  C   UNL     1      -2.158  10.168  17.758  0.00  0.00    +0.000 A 
ATOM     23  C   UNL     1      -3.325  10.393  16.972  0.00  0.00    +0.000 A 
ATOM     24  C   UNL     1      -4.130  11.370  17.512  0.00  0.00    +0.000 A 
ATOM     25  S   UNL     1      -3.486  11.997  18.965  0.00  0.00    +0.000 S 
ENDBRANCH  20  21
BRANCH  20  26
ATOM     26  C   UNL     1      -1.544  11.953  21.073  0.00  0.00    +0.000 C 
BRANCH  26  27
ATOM     27  N   UNL     1      -0.587  12.106  22.217  0.00  0.00    +0.000 N 
ATOM     28  O   UNL     1      -0.066  13.205  22.425  0.00  0.00    +0.000 OA
ATOM     29  O   UNL     1      -0.365  11.077  22.877  0.00  0.00    +0.000 OA
ENDBRANCH  26  27
ENDBRANCH  20  26
ENDBRANCH  10  20
TORSDOF 6
ENDMDL
MODEL 4
REMARK VINA RESULT:      -6.7      5.415      9.174
REMARK  Name = 
REMARK  6 active torsions:
REMARK  status: ('A' for Active; 'I' for Inactive)
REMARK    1  A    between atoms: C_2  and  C_3
REMARK    2  A    between atoms: C_6  and  C_7
REMARK    3  A    between atoms: C_16  and  C_17
REMARK    4  A    between atoms: C_17  and  C_18
REMARK    5  A    between atoms: C_17  and  C_22
REMARK    6  A    between atoms: C_18  and  N_19
REMARK                            x       y       z     vdW  Elec       q    Type
REMARK                         _______ _______ _______ _____ _____    ______ ____
ROOT
ATOM      1  C   UNL     1       3.280   6.701  17.855  0.00  0.00    +0.000 A 
ATOM      2  N   UNL     1       4.194   7.183  16.941  0.00  0.00    +0.000 N 
ATOM      3  C   UNL     1       4.895   6.183  16.332  0.00  0.00    +0.000 A 
ATOM      4  C   UNL     1       5.898   6.274  15.353  0.00  0.00    +0.000 A 
ATOM      5  C   UNL     1       6.443   5.089  14.863  0.00  0.00    +0.000 A 
ATOM      6 CL   UNL     1       7.689   5.140  13.679  0.00  0.00    +0.000 Cl
ATOM      7  C   UNL     1       6.004   3.866  15.333  0.00  0.00    +0.000 A 
ATOM      8  C   UNL     1       5.029   3.810  16.335  0.00  0.00    +0.000 A 
ATOM      9  C   UNL     1       4.426   4.981  16.856  0.00  0.00    +0.000 A 
ATOM     10  C   UNL     1       3.395   5.296  17.840  0.00  0.00    +0.000 A 
ATOM     11  H   UNL     1       4.319   8.160  16.717  0.00  0.00    +0.000 HD
ENDROOT
BRANCH   1  15
ATOM     12  C   UNL     1       0.962   9.579  20.072  0.00  0.00    +0.000 A 
ATOM     13  C   UNL     1       1.237   9.794  18.721  0.00  0.00    +0.000 A 
ATOM     14  C   UNL     1       1.968   8.849  17.992  0.00  0.00    +0.000 A 
ATOM     15  C   UNL     1       2.423   7.665  18.581  0.00  0.00    +0.000 A 
ATOM     16  C   UNL     1       2.096   7.447  19.934  0.00  0.00    +0.000 A 
ATOM     17  C   UNL     1       1.387   8.399  20.677  0.00  0.00    +0.000 A 
BRANCH  12  19
ATOM     18  N   UNL     1      -0.298  11.388  21.432  0.00  0.00    +0.000 NA
ATOM     19  C   UNL     1       0.273  10.581  20.839  0.00  0.00    +0.000 C 
ENDBRANCH  12  19
ENDBRANCH   1  15
BRANCH  10  20
ATOM     20  C   UNL     1       2.552   4.313  18.691  0.00  0.00    +0.000 C 
BRANCH  20  21
ATOM     21  C   UNL     1       3.408   3.144  19.220  0.00  0.00    +0.000 A 
ATOM     22  C   UNL     1       4.190   3.065  20.359  0.00  0.00    +0.000 A 
ATOM     23  C   UNL     1       4.907   1.838  20.456  0.00  0.00    +0.000 A 
ATOM     24  C   UNL     1       4.632   0.994  19.406  0.00  0.00    +0.000 A 
ATOM     25  S   UNL     1       3.501   1.674  18.320  0.00  0.00    +0.000 S 
ENDBRANCH  20  21
BRANCH  20  26
ATOM     26  C   UNL     1       1.311   3.692  18.040  0.00  0.00    +0.000 C 
BRANCH  26  27
ATOM     27  N   UNL     1       0.511   2.852  18.989  0.00  0.00    +0.000 N 
ATOM     28  O   UNL     1       0.379   3.224  20.159  0.00  0.00    +0.000 OA
ATOM     29  O   UNL     1       0.047   1.800  18.521  0.00  0.00    +0.000 OA
ENDBRANCH  26  27
ENDBRANCH  20  26
ENDBRANCH  10  20
TORSDOF 6
ENDMDL
MODEL 5
REMARK VINA RESULT:      -6.7      4.184      6.570
REMARK  Name = 
REMARK  6 active torsions:
REMARK  status: ('A' for Active; 'I' for Inactive)
REMARK    1  A    between atoms: C_2  and  C_3
REMARK    2  A    between atoms: C_6  and  C_7
REMARK    3  A    between atoms: C_16  and  C_17
REMARK    4  A    between atoms: C_17  and  C_18
REMARK    5  A    between atoms: C_17  and  C_22
REMARK    6  A    between atoms: C_18  and  N_19
REMARK                            x       y       z     vdW  Elec       q    Type
REMARK                         _______ _______ _______ _____ _____    ______ ____
ROOT
ATOM      1  C   UNL     1      -3.797  12.044  19.599  0.00  0.00    +0.000 A 
ATOM      2  N   UNL     1      -5.086  12.315  20.008  0.00  0.00    +0.000 N 
ATOM      3  C   UNL     1      -5.127  12.905  21.238  0.00  0.00    +0.000 A 
ATOM      4  C   UNL     1      -6.241  13.328  21.981  0.00  0.00    +0.000 A 
ATOM      5  C   UNL     1      -6.013  13.937  23.214  0.00  0.00    +0.000 A 
ATOM      6 CL   UNL     1      -7.340  14.457  24.175  0.00  0.00    +0.000 Cl
ATOM      7  C   UNL     1      -4.725  14.113  23.683  0.00  0.00    +0.000 A 
ATOM      8  C   UNL     1      -3.638  13.647  22.936  0.00  0.00    +0.000 A 
ATOM      9  C   UNL     1      -3.809  13.038  21.668  0.00  0.00    +0.000 A 
ATOM     10  C   UNL     1      -2.943  12.485  20.632  0.00  0.00    +0.000 A 
ATOM     11  H   UNL     1      -5.912  12.132  19.457  0.00  0.00    +0.000 HD
ENDROOT
BRANCH   1  15
ATOM     12  C   UNL     1      -3.113  10.440  15.659  0.00  0.00    +0.000 A 
ATOM     13  C   UNL     1      -2.231  10.142  16.697  0.00  0.00    +0.000 A 
ATOM     14  C   UNL     1      -2.464  10.641  17.984  0.00  0.00    +0.000 A 
ATOM     15  C   UNL     1      -3.586  11.427  18.271  0.00  0.00    +0.000 A 
ATOM     16  C   UNL     1      -4.487  11.678  17.219  0.00  0.00    +0.000 A 
ATOM     17  C   UNL     1      -4.248  11.204  15.922  0.00  0.00    +0.000 A 
BRANCH  12  19
ATOM     18  N   UNL     1      -2.632   9.649  13.239  0.00  0.00    +0.000 NA
ATOM     19  C   UNL     1      -2.837   9.988  14.322  0.00  0.00    +0.000 C 
ENDBRANCH  12  19
ENDBRANCH   1  15
BRANCH  10  20
ATOM     20  C   UNL     1      -1.395  12.409  20.617  0.00  0.00    +0.000 C 
BRANCH  20  21
ATOM     21  C   UNL     1      -0.879  11.222  21.454  0.00  0.00    +0.000 A 
ATOM     22  C   UNL     1      -1.000  10.977  22.811  0.00  0.00    +0.000 A 
ATOM     23  C   UNL     1      -0.304   9.807  23.229  0.00  0.00    +0.000 A 
ATOM     24  C   UNL     1       0.306   9.165  22.177  0.00  0.00    +0.000 A 
ATOM     25  S   UNL     1       0.025   9.963  20.693  0.00  0.00    +0.000 S 
ENDBRANCH  20  21
BRANCH  20  26
ATOM     26  C   UNL     1      -0.618  13.647  21.079  0.00  0.00    +0.000 C 
BRANCH  26  27
ATOM     27  N   UNL     1       0.832  13.600  20.701  0.00  0.00    +0.000 N 
ATOM     28  O   UNL     1       1.686  13.542  21.592  0.00  0.00    +0.000 OA
ATOM     29  O   UNL     1       1.075  13.649  19.485  0.00  0.00    +0.000 OA
ENDBRANCH  26  27
ENDBRANCH  20  26
ENDBRANCH  10  20
TORSDOF 6
ENDMDL
MODEL 6
REMARK VINA RESULT:      -6.6      3.648      6.772
REMARK  Name = 
REMARK  6 active torsions:
REMARK  status: ('A' for Active; 'I' for Inactive)
REMARK    1  A    between atoms: C_2  and  C_3
REMARK    2  A    between atoms: C_6  and  C_7
REMARK    3  A    between atoms: C_16  and  C_17
REMARK    4  A    between atoms: C_17  and  C_18
REMARK    5  A    between atoms: C_17  and  C_22
REMARK    6  A    between atoms: C_18  and  N_19
REMARK                            x       y       z     vdW  Elec       q    Type
REMARK                         _______ _______ _______ _____ _____    ______ ____
ROOT
ATOM      1  C   UNL     1      -0.078  10.950  20.906  0.00  0.00    +0.000 A 
ATOM      2  N   UNL     1       0.546   9.814  21.376  0.00  0.00    +0.000 N 
ATOM      3  C   UNL     1       1.118   9.084  20.375  0.00  0.00    +0.000 A 
ATOM      4  C   UNL     1       1.837   7.880  20.456  0.00  0.00    +0.000 A 
ATOM      5  C   UNL     1       2.352   7.344  19.277  0.00  0.00    +0.000 A 
ATOM      6 CL   UNL     1       3.223   5.862  19.314  0.00  0.00    +0.000 Cl
ATOM      7  C   UNL     1       2.154   7.985  18.069  0.00  0.00    +0.000 A 
ATOM      8  C   UNL     1       1.401   9.164  18.016  0.00  0.00    +0.000 A 
ATOM      9  C   UNL     1       0.871   9.764  19.185  0.00  0.00    +0.000 A 
ATOM     10  C   UNL     1       0.100  10.960  19.506  0.00  0.00    +0.000 A 
ATOM     11  H   UNL     1       0.606   9.556  22.351  0.00  0.00    +0.000 HD
ENDROOT
BRANCH   1  15
ATOM     12  C   UNL     1      -2.039  13.718  23.562  0.00  0.00    +0.000 A 
ATOM     13  C   UNL     1      -2.561  12.438  23.377  0.00  0.00    +0.000 A 
ATOM     14  C   UNL     1      -1.913  11.528  22.534  0.00  0.00    +0.000 A 
ATOM     15  C   UNL     1      -0.724  11.862  21.876  0.00  0.00    +0.000 A 
ATOM     16  C   UNL     1      -0.190  13.143  22.112  0.00  0.00    +0.000 A 
ATOM     17  C   UNL     1      -0.847  14.069  22.933  0.00  0.00    +0.000 A 
BRANCH  12  19
ATOM     18  N   UNL     1      -3.288  15.440  25.042  0.00  0.00    +0.000 NA
ATOM     19  C   UNL     1      -2.742  14.677  24.371  0.00  0.00    +0.000 C 
ENDBRANCH  12  19
ENDBRANCH   1  15
BRANCH  10  20
ATOM     20  C   UNL     1      -0.413  12.058  18.540  0.00  0.00    +0.000 C 
BRANCH  20  21
ATOM     21  C   UNL     1       0.403  13.359  18.678  0.00  0.00    +0.000 A 
ATOM     22  C   UNL     1      -0.032  14.661  18.858  0.00  0.00    +0.000 A 
ATOM     23  C   UNL     1       1.033  15.608  18.849  0.00  0.00    +0.000 A 
ATOM     24  C   UNL     1       2.260  15.005  18.695  0.00  0.00    +0.000 A 
ATOM     25  S   UNL     1       2.126  13.306  18.580  0.00  0.00    +0.000 S 
ENDBRANCH  20  21
BRANCH  20  26
ATOM     26  C   UNL     1      -1.892  12.452  18.631  0.00  0.00    +0.000 C 
BRANCH  26  27
ATOM     27  N   UNL     1      -2.778  11.593  17.780  0.00  0.00    +0.000 N 
ATOM     28  O   UNL     1      -2.383  11.237  16.666  0.00  0.00    +0.000 OA
ATOM     29  O   UNL     1      -3.887  11.314  18.265  0.00  0.00    +0.000 OA
ENDBRANCH  26  27
ENDBRANCH  20  26
ENDBRANCH  10  20
TORSDOF 6
ENDMDL
MODEL 7
REMARK VINA RESULT:      -6.5      3.693      7.480
REMARK  Name = 
REMARK  6 active torsions:
REMARK  status: ('A' for Active; 'I' for Inactive)
REMARK    1  A    between atoms: C_2  and  C_3
REMARK    2  A    between atoms: C_6  and  C_7
REMARK    3  A    between atoms: C_16  and  C_17
REMARK    4  A    between atoms: C_17  and  C_18
REMARK    5  A    between atoms: C_17  and  C_22
REMARK    6  A    between atoms: C_18  and  N_19
REMARK                            x       y       z     vdW  Elec       q    Type
REMARK                         _______ _______ _______ _____ _____    ______ ____
ROOT
ATOM      1  C   UNL     1      -3.077  12.668  20.017  0.00  0.00    +0.000 A 
ATOM      2  N   UNL     1      -3.926  12.544  18.936  0.00  0.00    +0.000 N 
ATOM      3  C   UNL     1      -3.441  11.686  17.992  0.00  0.00    +0.000 A 
ATOM      4  C   UNL     1      -4.012  11.303  16.767  0.00  0.00    +0.000 A 
ATOM      5  C   UNL     1      -3.324  10.377  15.985  0.00  0.00    +0.000 A 
ATOM      6 CL   UNL     1      -3.965   9.887  14.467  0.00  0.00    +0.000 Cl
ATOM      7  C   UNL     1      -2.116   9.859  16.411  0.00  0.00    +0.000 A 
ATOM      8  C   UNL     1      -1.555  10.289  17.618  0.00  0.00    +0.000 A 
ATOM      9  C   UNL     1      -2.219  11.212  18.463  0.00  0.00    +0.000 A 
ATOM     10  C   UNL     1      -1.968  11.837  19.757  0.00  0.00    +0.000 A 
ATOM     11  H   UNL     1      -4.820  13.005  18.855  0.00  0.00    +0.000 HD
ENDROOT
BRANCH   1  15
ATOM     12  C   UNL     1      -4.340  15.350  23.143  0.00  0.00    +0.000 A 
ATOM     13  C   UNL     1      -4.977  14.120  22.978  0.00  0.00    +0.000 A 
ATOM     14  C   UNL     1      -4.552  13.236  21.980  0.00  0.00    +0.000 A 
ATOM     15  C   UNL     1      -3.477  13.544  21.140  0.00  0.00    +0.000 A 
ATOM     16  C   UNL     1      -2.820  14.771  21.353  0.00  0.00    +0.000 A 
ATOM     17  C   UNL     1      -3.254  15.673  22.333  0.00  0.00    +0.000 A 
BRANCH  12  19
ATOM     18  N   UNL     1      -5.232  17.036  24.896  0.00  0.00    +0.000 NA
ATOM     19  C   UNL     1      -4.820  16.289  24.121  0.00  0.00    +0.000 C 
ENDBRANCH  12  19
ENDBRANCH   1  15
BRANCH  10  20
ATOM     20  C   UNL     1      -0.755  11.631  20.701  0.00  0.00    +0.000 C 
BRANCH  20  21
ATOM     21  C   UNL     1       0.498  12.364  20.180  0.00  0.00    +0.000 A 
ATOM     22  C   UNL     1       1.355  12.026  19.148  0.00  0.00    +0.000 A 
ATOM     23  C   UNL     1       2.461  12.916  19.030  0.00  0.00    +0.000 A 
ATOM     24  C   UNL     1       2.407  13.933  19.955  0.00  0.00    +0.000 A 
ATOM     25  S   UNL     1       1.019  13.820  20.946  0.00  0.00    +0.000 S 
ENDBRANCH  20  21
BRANCH  20  26
ATOM     26  C   UNL     1      -0.329  10.190  21.006  0.00  0.00    +0.000 C 
BRANCH  26  27
ATOM     27  N   UNL     1       0.297  10.041  22.360  0.00  0.00    +0.000 N 
ATOM     28  O   UNL     1      -0.311  10.452  23.354  0.00  0.00    +0.000 OA
ATOM     29  O   UNL     1       1.424   9.521  22.380  0.00  0.00    +0.000 OA
ENDBRANCH  26  27
ENDBRANCH  20  26
ENDBRANCH  10  20
TORSDOF 6
ENDMDL
MODEL 8
REMARK VINA RESULT:      -6.5      3.707      6.812
REMARK  Name = 
REMARK  6 active torsions:
REMARK  status: ('A' for Active; 'I' for Inactive)
REMARK    1  A    between atoms: C_2  and  C_3
REMARK    2  A    between atoms: C_6  and  C_7
REMARK    3  A    between atoms: C_16  and  C_17
REMARK    4  A    between atoms: C_17  and  C_18
REMARK    5  A    between atoms: C_17  and  C_22
REMARK    6  A    between atoms: C_18  and  N_19
REMARK                            x       y       z     vdW  Elec       q    Type
REMARK                         _______ _______ _______ _____ _____    ______ ____
ROOT
ATOM      1  C   UNL     1      -0.031  10.935  20.769  0.00  0.00    +0.000 A 
ATOM      2  N   UNL     1       0.553   9.818  21.332  0.00  0.00    +0.000 N 
ATOM      3  C   UNL     1       1.153   9.022  20.400  0.00  0.00    +0.000 A 
ATOM      4  C   UNL     1       1.847   7.815  20.583  0.00  0.00    +0.000 A 
ATOM      5  C   UNL     1       2.400   7.202  19.460  0.00  0.00    +0.000 A 
ATOM      6 CL   UNL     1       3.243   5.711  19.621  0.00  0.00    +0.000 Cl
ATOM      7  C   UNL     1       2.264   7.773  18.209  0.00  0.00    +0.000 A 
ATOM      8  C   UNL     1       1.535   8.957  18.055  0.00  0.00    +0.000 A 
ATOM      9  C   UNL     1       0.967   9.633  19.162  0.00  0.00    +0.000 A 
ATOM     10  C   UNL     1       0.204  10.858  19.380  0.00  0.00    +0.000 A 
ATOM     11  H   UNL     1       0.568   9.618  22.321  0.00  0.00    +0.000 HD
ENDROOT
BRANCH   1  15
ATOM     12  C   UNL     1      -1.917  13.662  23.521  0.00  0.00    +0.000 A 
ATOM     13  C   UNL     1      -0.724  14.018  22.891  0.00  0.00    +0.000 A 
ATOM     14  C   UNL     1      -0.123  13.144  21.978  0.00  0.00    +0.000 A 
ATOM     15  C   UNL     1      -0.701  11.912  21.655  0.00  0.00    +0.000 A 
ATOM     16  C   UNL     1      -1.928  11.592  22.268  0.00  0.00    +0.000 A 
ATOM     17  C   UNL     1      -2.523  12.449  23.203  0.00  0.00    +0.000 A 
BRANCH  12  19
ATOM     18  N   UNL     1      -2.939  15.226  25.315  0.00  0.00    +0.000 NA
ATOM     19  C   UNL     1      -2.499  14.526  24.512  0.00  0.00    +0.000 C 
ENDBRANCH  12  19
ENDBRANCH   1  15
BRANCH  10  20
ATOM     20  C   UNL     1      -0.248  11.904  18.330  0.00  0.00    +0.000 C 
BRANCH  20  21
ATOM     21  C   UNL     1       0.395  13.281  18.589  0.00  0.00    +0.000 A 
ATOM     22  C   UNL     1      -0.200  14.521  18.744  0.00  0.00    +0.000 A 
ATOM     23  C   UNL     1       0.745  15.579  18.878  0.00  0.00    +0.000 A 
ATOM     24  C   UNL     1       2.042  15.119  18.855  0.00  0.00    +0.000 A 
ATOM     25  S   UNL     1       2.113  13.420  18.690  0.00  0.00    +0.000 S 
ENDBRANCH  20  21
BRANCH  20  26
ATOM     26  C   UNL     1      -1.754  12.144  18.168  0.00  0.00    +0.000 C 
BRANCH  26  27
ATOM     27  N   UNL     1      -2.434  11.068  17.375  0.00  0.00    +0.000 N 
ATOM     28  O   UNL     1      -2.813  10.044  17.950  0.00  0.00    +0.000 OA
ATOM     29  O   UNL     1      -2.547  11.285  16.158  0.00  0.00    +0.000 OA
ENDBRANCH  26  27
ENDBRANCH  20  26
ENDBRANCH  10  20
TORSDOF 6
ENDMDL
MODEL 9
REMARK VINA RESULT:      -6.5      3.587      7.372
REMARK  Name = 
REMARK  6 active torsions:
REMARK  status: ('A' for Active; 'I' for Inactive)
REMARK    1  A    between atoms: C_2  and  C_3
REMARK    2  A    between atoms: C_6  and  C_7
REMARK    3  A    between atoms: C_16  and  C_17
REMARK    4  A    between atoms: C_17  and  C_18
REMARK    5  A    between atoms: C_17  and  C_22
REMARK    6  A    between atoms: C_18  and  N_19
REMARK                            x       y       z     vdW  Elec       q    Type
REMARK                         _______ _______ _______ _____ _____    ______ ____
ROOT
ATOM      1  C   UNL     1      -3.010  12.436  19.837  0.00  0.00    +0.000 A 
ATOM      2  N   UNL     1      -3.885  12.391  18.771  0.00  0.00    +0.000 N 
ATOM      3  C   UNL     1      -3.452  11.558  17.780  0.00  0.00    +0.000 A 
ATOM      4  C   UNL     1      -4.063  11.250  16.553  0.00  0.00    +0.000 A 
ATOM      5  C   UNL     1      -3.426  10.335  15.717  0.00  0.00    +0.000 A 
ATOM      6 CL   UNL     1      -4.117   9.935  14.194  0.00  0.00    +0.000 Cl
ATOM      7  C   UNL     1      -2.230   9.754  16.093  0.00  0.00    +0.000 A 
ATOM      8  C   UNL     1      -1.629  10.109  17.306  0.00  0.00    +0.000 A 
ATOM      9  C   UNL     1      -2.240  11.019  18.203  0.00  0.00    +0.000 A 
ATOM     10  C   UNL     1      -1.938  11.577  19.518  0.00  0.00    +0.000 A 
ATOM     11  H   UNL     1      -4.762  12.889  18.729  0.00  0.00    +0.000 HD
ENDROOT
BRANCH   1  15
ATOM     12  C   UNL     1      -4.101  15.028  23.102  0.00  0.00    +0.000 A 
ATOM     13  C   UNL     1      -4.802  13.841  22.887  0.00  0.00    +0.000 A 
ATOM     14  C   UNL     1      -4.434  12.985  21.843  0.00  0.00    +0.000 A 
ATOM     15  C   UNL     1      -3.352  13.278  21.005  0.00  0.00    +0.000 A 
ATOM     16  C   UNL     1      -2.631  14.458  21.267  0.00  0.00    +0.000 A 
ATOM     17  C   UNL     1      -3.009  15.333  22.294  0.00  0.00    +0.000 A 
BRANCH  12  19
ATOM     18  N   UNL     1      -4.871  16.693  24.931  0.00  0.00    +0.000 NA
ATOM     19  C   UNL     1      -4.523  15.942  24.128  0.00  0.00    +0.000 C 
ENDBRANCH  12  19
ENDBRANCH   1  15
BRANCH  10  20
ATOM     20  C   UNL     1      -0.715  11.285  20.424  0.00  0.00    +0.000 C 
BRANCH  20  21
ATOM     21  C   UNL     1       0.482  12.189  20.068  0.00  0.00    +0.000 A 
ATOM     22  C   UNL     1       0.869  13.401  20.615  0.00  0.00    +0.000 A 
ATOM     23  C   UNL     1       1.988  13.978  19.949  0.00  0.00    +0.000 A 
ATOM     24  C   UNL     1       2.452  13.179  18.930  0.00  0.00    +0.000 A 
ATOM     25  S   UNL     1       1.550  11.735  18.791  0.00  0.00    +0.000 S 
ENDBRANCH  20  21
BRANCH  20  26
ATOM     26  C   UNL     1      -0.186   9.846  20.462  0.00  0.00    +0.000 C 
BRANCH  26  27
ATOM     27  N   UNL     1      -0.126   9.283  21.850  0.00  0.00    +0.000 N 
ATOM     28  O   UNL     1      -0.770   8.264  22.116  0.00  0.00    +0.000 OA
ATOM     29  O   UNL     1       0.570   9.917  22.661  0.00  0.00    +0.000 OA
ENDBRANCH  26  27
ENDBRANCH  20  26
ENDBRANCH  10  20
TORSDOF 6
ENDMDL
