MODEL 1
REMARK VINA RESULT:      -7.0      0.000      0.000
REMARK  Name = 
REMARK  8 active torsions:
REMARK  status: ('A' for Active; 'I' for Inactive)
REMARK    1  A    between atoms: C_1  and  C_2
REMARK    2  A    between atoms: N_4  and  C_5
REMARK    3  A    between atoms: C_14  and  N_15
REMARK    4  A    between atoms: N_15  and  C_16
REMARK    5  A    between atoms: C_16  and  C_17
REMARK    6  A    between atoms: C_17  and  C_18
REMARK    7  A    between atoms: C_18  and  S_19
REMARK    8  A    between atoms: S_19  and  C_20
REMARK                            x       y       z     vdW  Elec       q    Type
REMARK                         _______ _______ _______ _____ _____    ______ ____
ROOT
ATOM      1  C   UNL     1       6.638   7.610  17.551  0.00  0.00    +0.000 C 
ATOM      2  C   UNL     1       5.882   6.437  16.987  0.00  0.00    +0.000 A 
ATOM      3  N   UNL     1       6.408   5.843  15.892  0.00  0.00    +0.000 NA
ATOM      4  N   UNL     1       5.718   4.750  15.622  0.00  0.00    +0.000 N 
ATOM      5  C   UNL     1       5.923   3.888  14.475  0.00  0.00    +0.000 C 
ATOM      6  C   UNL     1       4.789   4.593  16.563  0.00  0.00    +0.000 A 
ATOM      7  N   UNL     1       4.011   3.509  16.656  0.00  0.00    +0.000 NA
ATOM      8  C   UNL     1       3.090   3.421  17.633  0.00  0.00    +0.000 A 
ATOM      9  C   UNL     1       2.377   2.228  17.746  0.00  0.00    +0.000 A 
ATOM     10  C   UNL     1       1.371   2.100  18.693  0.00  0.00    +0.000 A 
ATOM     11  C   UNL     1       1.056   3.176  19.515  0.00  0.00    +0.000 A 
ATOM     12  C   UNL     1       1.778   4.375  19.429  0.00  0.00    +0.000 A 
ATOM     13  C   UNL     1       2.850   4.526  18.505  0.00  0.00    +0.000 A 
ATOM     14  C   UNL     1       3.678   5.719  18.398  0.00  0.00    +0.000 A 
ATOM     15  C   UNL     1       4.740   5.681  17.409  0.00  0.00    +0.000 A 
ENDROOT
BRANCH  14  16
ATOM     16  N   UNL     1       3.345   6.855  19.206  0.00  0.00    +0.000 N 
ATOM     17  H   UNL     1       3.779   6.958  20.132  0.00  0.00    +0.000 HD
BRANCH  16  18
ATOM     18  C   UNL     1       2.227   7.748  18.997  0.00  0.00    +0.000 C 
BRANCH  18  19
ATOM     19  C   UNL     1       2.390   8.627  17.735  0.00  0.00    +0.000 C 
BRANCH  19  20
ATOM     20  C   UNL     1       1.897  10.078  17.906  0.00  0.00    +0.000 C 
BRANCH  20  21
ATOM     21  S   UNL     1       0.706  10.163  19.304  0.00  0.00    +0.000 S 
ATOM     22  C   UNL     1       0.650  11.985  19.429  0.00  0.00    +0.000 C 
ATOM     23  O   UNL     1      -0.674  10.115  18.278  0.00  0.00    +0.000 OA
ENDBRANCH  20  21
ENDBRANCH  19  20
ENDBRANCH  18  19
ENDBRANCH  16  18
ENDBRANCH  14  16
TORSDOF 5
ENDMDL
MODEL 2
REMARK VINA RESULT:      -7.0      1.237      1.388
REMARK  Name = 
REMARK  8 active torsions:
REMARK  status: ('A' for Active; 'I' for Inactive)
REMARK    1  A    between atoms: C_1  and  C_2
REMARK    2  A    between atoms: N_4  and  C_5
REMARK    3  A    between atoms: C_14  and  N_15
REMARK    4  A    between atoms: N_15  and  C_16
REMARK    5  A    between atoms: C_16  and  C_17
REMARK    6  A    between atoms: C_17  and  C_18
REMARK    7  A    between atoms: C_18  and  S_19
REMARK    8  A    between atoms: S_19  and  C_20
REMARK                            x       y       z     vdW  Elec       q    Type
REMARK                         _______ _______ _______ _____ _____    ______ ____
ROOT
ATOM      1  C   UNL     1       6.651   7.773  17.410  0.00  0.00    +0.000 C 
ATOM      2  C   UNL     1       5.973   6.530  16.899  0.00  0.00    +0.000 A 
ATOM      3  N   UNL     1       6.611   5.845  15.922  0.00  0.00    +0.000 NA
ATOM      4  N   UNL     1       5.970   4.713  15.702  0.00  0.00    +0.000 N 
ATOM      5  C   UNL     1       6.297   3.748  14.671  0.00  0.00    +0.000 C 
ATOM      6  C   UNL     1       4.959   4.624  16.564  0.00  0.00    +0.000 A 
ATOM      7  N   UNL     1       4.195   3.533  16.695  0.00  0.00    +0.000 NA
ATOM      8  C   UNL     1       3.188   3.516  17.586  0.00  0.00    +0.000 A 
ATOM      9  C   UNL     1       2.490   2.321  17.752  0.00  0.00    +0.000 A 
ATOM     10  C   UNL     1       1.402   2.259  18.611  0.00  0.00    +0.000 A 
ATOM     11  C   UNL     1       0.992   3.402  19.288  0.00  0.00    +0.000 A 
ATOM     12  C   UNL     1       1.696   4.606  19.149  0.00  0.00    +0.000 A 
ATOM     13  C   UNL     1       2.848   4.694  18.317  0.00  0.00    +0.000 A 
ATOM     14  C   UNL     1       3.659   5.894  18.167  0.00  0.00    +0.000 A 
ATOM     15  C   UNL     1       4.811   5.787  17.289  0.00  0.00    +0.000 A 
ENDROOT
BRANCH  14  16
ATOM     16  N   UNL     1       3.231   7.094  18.822  0.00  0.00    +0.000 N 
ATOM     17  H   UNL     1       3.204   7.124  19.850  0.00  0.00    +0.000 HD
BRANCH  16  18
ATOM     18  C   UNL     1       2.539   8.201  18.201  0.00  0.00    +0.000 C 
BRANCH  18  19
ATOM     19  C   UNL     1       1.454   8.817  19.113  0.00  0.00    +0.000 C 
BRANCH  19  20
ATOM     20  C   UNL     1       1.463   8.281  20.560  0.00  0.00    +0.000 C 
BRANCH  20  21
ATOM     21  S   UNL     1       0.701   9.524  21.680  0.00  0.00    +0.000 S 
ATOM     22  C   UNL     1      -0.233  10.428  20.396  0.00  0.00    +0.000 C 
ATOM     23  O   UNL     1      -0.644   8.522  22.061  0.00  0.00    +0.000 OA
ENDBRANCH  20  21
ENDBRANCH  19  20
ENDBRANCH  18  19
ENDBRANCH  16  18
ENDBRANCH  14  16
TORSDOF 5
ENDMDL
MODEL 3
REMARK VINA RESULT:      -6.8      0.999      1.130
REMARK  Name = 
REMARK  8 active torsions:
REMARK  status: ('A' for Active; 'I' for Inactive)
REMARK    1  A    between atoms: C_1  and  C_2
REMARK    2  A    between atoms: N_4  and  C_5
REMARK    3  A    between atoms: C_14  and  N_15
REMARK    4  A    between atoms: N_15  and  C_16
REMARK    5  A    between atoms: C_16  and  C_17
REMARK    6  A    between atoms: C_17  and  C_18
REMARK    7  A    between atoms: C_18  and  S_19
REMARK    8  A    between atoms: S_19  and  C_20
REMARK                            x       y       z     vdW  Elec       q    Type
REMARK                         _______ _______ _______ _____ _____    ______ ____
ROOT
ATOM      1  C   UNL     1       6.785   7.589  17.518  0.00  0.00    +0.000 C 
ATOM      2  C   UNL     1       6.008   6.433  16.949  0.00  0.00    +0.000 A 
ATOM      3  N   UNL     1       6.529   5.826  15.858  0.00  0.00    +0.000 NA
ATOM      4  N   UNL     1       5.818   4.748  15.584  0.00  0.00    +0.000 N 
ATOM      5  C   UNL     1       6.013   3.880  14.439  0.00  0.00    +0.000 C 
ATOM      6  C   UNL     1       4.880   4.612  16.519  0.00  0.00    +0.000 A 
ATOM      7  N   UNL     1       4.077   3.544  16.608  0.00  0.00    +0.000 NA
ATOM      8  C   UNL     1       3.148   3.477  17.577  0.00  0.00    +0.000 A 
ATOM      9  C   UNL     1       2.409   2.300  17.686  0.00  0.00    +0.000 A 
ATOM     10  C   UNL     1       1.394   2.194  18.626  0.00  0.00    +0.000 A 
ATOM     11  C   UNL     1       1.097   3.277  19.445  0.00  0.00    +0.000 A 
ATOM     12  C   UNL     1       1.844   4.461  19.363  0.00  0.00    +0.000 A 
ATOM     13  C   UNL     1       2.926   4.588  18.447  0.00  0.00    +0.000 A 
ATOM     14  C   UNL     1       3.779   5.763  18.345  0.00  0.00    +0.000 A 
ATOM     15  C   UNL     1       4.848   5.701  17.364  0.00  0.00    +0.000 A 
ENDROOT
BRANCH  14  16
ATOM     16  N   UNL     1       3.465   6.907  19.150  0.00  0.00    +0.000 N 
ATOM     17  H   UNL     1       3.953   7.041  20.045  0.00  0.00    +0.000 HD
BRANCH  16  18
ATOM     18  C   UNL     1       2.312   7.764  18.994  0.00  0.00    +0.000 C 
BRANCH  18  19
ATOM     19  C   UNL     1       1.649   8.127  20.342  0.00  0.00    +0.000 C 
BRANCH  19  20
ATOM     20  C   UNL     1       0.704   9.344  20.277  0.00  0.00    +0.000 C 
BRANCH  20  21
ATOM     21  S   UNL     1       0.744  10.063  18.585  0.00  0.00    +0.000 S 
ATOM     22  C   UNL     1      -0.997  10.620  18.547  0.00  0.00    +0.000 C 
ATOM     23  O   UNL     1       1.301  11.597  19.128  0.00  0.00    +0.000 OA
ENDBRANCH  20  21
ENDBRANCH  19  20
ENDBRANCH  18  19
ENDBRANCH  16  18
ENDBRANCH  14  16
TORSDOF 5
ENDMDL
MODEL 4
REMARK VINA RESULT:      -6.7      3.354      5.863
REMARK  Name = 
REMARK  8 active torsions:
REMARK  status: ('A' for Active; 'I' for Inactive)
REMARK    1  A    between atoms: C_1  and  C_2
REMARK    2  A    between atoms: N_4  and  C_5
REMARK    3  A    between atoms: C_14  and  N_15
REMARK    4  A    between atoms: N_15  and  C_16
REMARK    5  A    between atoms: C_16  and  C_17
REMARK    6  A    between atoms: C_17  and  C_18
REMARK    7  A    between atoms: C_18  and  S_19
REMARK    8  A    between atoms: S_19  and  C_20
REMARK                            x       y       z     vdW  Elec       q    Type
REMARK                         _______ _______ _______ _____ _____    ______ ____
ROOT
ATOM      1  C   UNL     1       2.037   9.575  17.612  0.00  0.00    +0.000 C 
ATOM      2  C   UNL     1       1.933   8.750  18.866  0.00  0.00    +0.000 A 
ATOM      3  N   UNL     1       1.391   9.353  19.950  0.00  0.00    +0.000 NA
ATOM      4  N   UNL     1       1.230   8.456  20.905  0.00  0.00    +0.000 N 
ATOM      5  C   UNL     1       0.756   8.733  22.247  0.00  0.00    +0.000 C 
ATOM      6  C   UNL     1       1.602   7.267  20.437  0.00  0.00    +0.000 A 
ATOM      7  N   UNL     1       1.434   6.124  21.112  0.00  0.00    +0.000 NA
ATOM      8  C   UNL     1       1.839   4.958  20.576  0.00  0.00    +0.000 A 
ATOM      9  C   UNL     1       1.548   3.788  21.277  0.00  0.00    +0.000 A 
ATOM     10  C   UNL     1       1.994   2.561  20.806  0.00  0.00    +0.000 A 
ATOM     11  C   UNL     1       2.755   2.503  19.644  0.00  0.00    +0.000 A 
ATOM     12  C   UNL     1       3.038   3.667  18.917  0.00  0.00    +0.000 A 
ATOM     13  C   UNL     1       2.554   4.937  19.341  0.00  0.00    +0.000 A 
ATOM     14  C   UNL     1       2.761   6.178  18.609  0.00  0.00    +0.000 A 
ATOM     15  C   UNL     1       2.174   7.374  19.186  0.00  0.00    +0.000 A 
ENDROOT
BRANCH  14  16
ATOM     16  N   UNL     1       3.579   6.149  17.431  0.00  0.00    +0.000 N 
ATOM     17  H   UNL     1       3.474   5.371  16.767  0.00  0.00    +0.000 HD
BRANCH  16  18
ATOM     18  C   UNL     1       4.764   6.943  17.201  0.00  0.00    +0.000 C 
BRANCH  18  19
ATOM     19  C   UNL     1       6.063   6.211  17.609  0.00  0.00    +0.000 C 
BRANCH  19  20
ATOM     20  C   UNL     1       6.049   4.693  17.336  0.00  0.00    +0.000 C 
BRANCH  20  21
ATOM     21  S   UNL     1       7.023   4.331  15.819  0.00  0.00    +0.000 S 
ATOM     22  C   UNL     1       5.664   4.584  14.624  0.00  0.00    +0.000 C 
ATOM     23  O   UNL     1       7.573   5.952  15.651  0.00  0.00    +0.000 OA
ENDBRANCH  20  21
ENDBRANCH  19  20
ENDBRANCH  18  19
ENDBRANCH  16  18
ENDBRANCH  14  16
TORSDOF 5
ENDMDL
MODEL 5
REMARK VINA RESULT:      -6.6      1.878      4.378
REMARK  Name = 
REMARK  8 active torsions:
REMARK  status: ('A' for Active; 'I' for Inactive)
REMARK    1  A    between atoms: C_1  and  C_2
REMARK    2  A    between atoms: N_4  and  C_5
REMARK    3  A    between atoms: C_14  and  N_15
REMARK    4  A    between atoms: N_15  and  C_16
REMARK    5  A    between atoms: C_16  and  C_17
REMARK    6  A    between atoms: C_17  and  C_18
REMARK    7  A    between atoms: C_18  and  S_19
REMARK    8  A    between atoms: S_19  and  C_20
REMARK                            x       y       z     vdW  Elec       q    Type
REMARK                         _______ _______ _______ _____ _____    ______ ____
ROOT
ATOM      1  C   UNL     1       0.723   3.393  18.926  0.00  0.00    +0.000 C 
ATOM      2  C   UNL     1       2.185   3.416  19.281  0.00  0.00    +0.000 A 
ATOM      3  N   UNL     1       2.661   2.357  19.975  0.00  0.00    +0.000 NA
ATOM      4  N   UNL     1       3.974   2.457  20.067  0.00  0.00    +0.000 N 
ATOM      5  C   UNL     1       4.837   1.559  20.808  0.00  0.00    +0.000 C 
ATOM      6  C   UNL     1       4.364   3.535  19.390  0.00  0.00    +0.000 A 
ATOM      7  N   UNL     1       5.648   3.845  19.173  0.00  0.00    +0.000 NA
ATOM      8  C   UNL     1       5.968   4.954  18.483  0.00  0.00    +0.000 A 
ATOM      9  C   UNL     1       7.314   5.175  18.199  0.00  0.00    +0.000 A 
ATOM     10  C   UNL     1       7.712   6.333  17.544  0.00  0.00    +0.000 A 
ATOM     11  C   UNL     1       6.764   7.287  17.194  0.00  0.00    +0.000 A 
ATOM     12  C   UNL     1       5.403   7.071  17.453  0.00  0.00    +0.000 A 
ATOM     13  C   UNL     1       4.952   5.873  18.076  0.00  0.00    +0.000 A 
ATOM     14  C   UNL     1       3.554   5.556  18.326  0.00  0.00    +0.000 A 
ATOM     15  C   UNL     1       3.285   4.274  18.953  0.00  0.00    +0.000 A 
ENDROOT
BRANCH  14  16
ATOM     16  N   UNL     1       2.563   6.543  18.011  0.00  0.00    +0.000 N 
ATOM     17  H   UNL     1       2.201   6.604  17.051  0.00  0.00    +0.000 HD
BRANCH  16  18
ATOM     18  C   UNL     1       2.211   7.683  18.828  0.00  0.00    +0.000 C 
BRANCH  18  19
ATOM     19  C   UNL     1       2.114   8.994  18.015  0.00  0.00    +0.000 C 
BRANCH  19  20
ATOM     20  C   UNL     1       0.702   9.612  17.974  0.00  0.00    +0.000 C 
BRANCH  20  21
ATOM     21  S   UNL     1       0.152  10.005  19.685  0.00  0.00    +0.000 S 
ATOM     22  C   UNL     1       1.067  11.579  19.849  0.00  0.00    +0.000 C 
ATOM     23  O   UNL     1      -1.278  10.803  19.162  0.00  0.00    +0.000 OA
ENDBRANCH  20  21
ENDBRANCH  19  20
ENDBRANCH  18  19
ENDBRANCH  16  18
ENDBRANCH  14  16
TORSDOF 5
ENDMDL
MODEL 6
REMARK VINA RESULT:      -6.6      3.596      5.813
REMARK  Name = 
REMARK  8 active torsions:
REMARK  status: ('A' for Active; 'I' for Inactive)
REMARK    1  A    between atoms: C_1  and  C_2
REMARK    2  A    between atoms: N_4  and  C_5
REMARK    3  A    between atoms: C_14  and  N_15
REMARK    4  A    between atoms: N_15  and  C_16
REMARK    5  A    between atoms: C_16  and  C_17
REMARK    6  A    between atoms: C_17  and  C_18
REMARK    7  A    between atoms: C_18  and  S_19
REMARK    8  A    between atoms: S_19  and  C_20
REMARK                            x       y       z     vdW  Elec       q    Type
REMARK                         _______ _______ _______ _____ _____    ______ ____
ROOT
ATOM      1  C   UNL     1       5.021   4.367  19.674  0.00  0.00    +0.000 C 
ATOM      2  C   UNL     1       5.699   5.106  18.552  0.00  0.00    +0.000 A 
ATOM      3  N   UNL     1       6.509   6.132  18.899  0.00  0.00    +0.000 NA
ATOM      4  N   UNL     1       7.140   6.566  17.824  0.00  0.00    +0.000 N 
ATOM      5  C   UNL     1       8.030   7.709  17.775  0.00  0.00    +0.000 C 
ATOM      6  C   UNL     1       6.798   5.795  16.794  0.00  0.00    +0.000 A 
ATOM      7  N   UNL     1       7.367   5.884  15.586  0.00  0.00    +0.000 NA
ATOM      8  C   UNL     1       6.968   5.074  14.589  0.00  0.00    +0.000 A 
ATOM      9  C   UNL     1       7.663   5.140  13.382  0.00  0.00    +0.000 A 
ATOM     10  C   UNL     1       7.258   4.373  12.299  0.00  0.00    +0.000 A 
ATOM     11  C   UNL     1       6.139   3.557  12.410  0.00  0.00    +0.000 A 
ATOM     12  C   UNL     1       5.441   3.464  13.623  0.00  0.00    +0.000 A 
ATOM     13  C   UNL     1       5.857   4.195  14.771  0.00  0.00    +0.000 A 
ATOM     14  C   UNL     1       5.217   4.105  16.076  0.00  0.00    +0.000 A 
ATOM     15  C   UNL     1       5.796   4.912  17.135  0.00  0.00    +0.000 A 
ENDROOT
BRANCH  14  16
ATOM     16  N   UNL     1       4.036   3.303  16.203  0.00  0.00    +0.000 N 
ATOM     17  H   UNL     1       3.194   3.561  15.673  0.00  0.00    +0.000 HD
BRANCH  16  18
ATOM     18  C   UNL     1       3.786   2.317  17.230  0.00  0.00    +0.000 C 
BRANCH  18  19
ATOM     19  C   UNL     1       2.329   2.347  17.746  0.00  0.00    +0.000 C 
BRANCH  19  20
ATOM     20  C   UNL     1       2.181   2.032  19.248  0.00  0.00    +0.000 C 
BRANCH  20  21
ATOM     21  S   UNL     1       1.002   3.218  20.013  0.00  0.00    +0.000 S 
ATOM     22  C   UNL     1       1.989   3.568  21.511  0.00  0.00    +0.000 C 
ATOM     23  O   UNL     1       1.650   4.574  19.177  0.00  0.00    +0.000 OA
ENDBRANCH  20  21
ENDBRANCH  19  20
ENDBRANCH  18  19
ENDBRANCH  16  18
ENDBRANCH  14  16
TORSDOF 5
ENDMDL
MODEL 7
REMARK VINA RESULT:      -6.5      3.262      5.598
REMARK  Name = 
REMARK  8 active torsions:
REMARK  status: ('A' for Active; 'I' for Inactive)
REMARK    1  A    between atoms: C_1  and  C_2
REMARK    2  A    between atoms: N_4  and  C_5
REMARK    3  A    between atoms: C_14  and  N_15
REMARK    4  A    between atoms: N_15  and  C_16
REMARK    5  A    between atoms: C_16  and  C_17
REMARK    6  A    between atoms: C_17  and  C_18
REMARK    7  A    between atoms: C_18  and  S_19
REMARK    8  A    between atoms: S_19  and  C_20
REMARK                            x       y       z     vdW  Elec       q    Type
REMARK                         _______ _______ _______ _____ _____    ______ ____
ROOT
ATOM      1  C   UNL     1       2.300   9.281  17.411  0.00  0.00    +0.000 C 
ATOM      2  C   UNL     1       2.127   8.483  18.675  0.00  0.00    +0.000 A 
ATOM      3  N   UNL     1       1.603   9.134  19.739  0.00  0.00    +0.000 NA
ATOM      4  N   UNL     1       1.374   8.263  20.705  0.00  0.00    +0.000 N 
ATOM      5  C   UNL     1       0.894   8.588  22.034  0.00  0.00    +0.000 C 
ATOM      6  C   UNL     1       1.684   7.047  20.261  0.00  0.00    +0.000 A 
ATOM      7  N   UNL     1       1.439   5.926  20.949  0.00  0.00    +0.000 NA
ATOM      8  C   UNL     1       1.784   4.731  20.439  0.00  0.00    +0.000 A 
ATOM      9  C   UNL     1       1.414   3.591  21.151  0.00  0.00    +0.000 A 
ATOM     10  C   UNL     1       1.796   2.333  20.706  0.00  0.00    +0.000 A 
ATOM     11  C   UNL     1       2.572   2.212  19.560  0.00  0.00    +0.000 A 
ATOM     12  C   UNL     1       2.935   3.347  18.820  0.00  0.00    +0.000 A 
ATOM     13  C   UNL     1       2.518   4.650  19.217  0.00  0.00    +0.000 A 
ATOM     14  C   UNL     1       2.809   5.865  18.470  0.00  0.00    +0.000 A 
ATOM     15  C   UNL     1       2.282   7.101  19.020  0.00  0.00    +0.000 A 
ENDROOT
BRANCH  14  16
ATOM     16  N   UNL     1       3.643   5.769  17.308  0.00  0.00    +0.000 N 
ATOM     17  H   UNL     1       3.845   4.844  16.909  0.00  0.00    +0.000 HD
BRANCH  16  18
ATOM     18  C   UNL     1       4.494   6.815  16.785  0.00  0.00    +0.000 C 
BRANCH  18  19
ATOM     19  C   UNL     1       5.924   6.772  17.371  0.00  0.00    +0.000 C 
BRANCH  19  20
ATOM     20  C   UNL     1       6.873   5.790  16.654  0.00  0.00    +0.000 C 
BRANCH  20  21
ATOM     21  S   UNL     1       7.620   4.646  17.885  0.00  0.00    +0.000 S 
ATOM     22  C   UNL     1       7.971   5.905  19.164  0.00  0.00    +0.000 C 
ATOM     23  O   UNL     1       6.106   4.240  18.593  0.00  0.00    +0.000 OA
ENDBRANCH  20  21
ENDBRANCH  19  20
ENDBRANCH  18  19
ENDBRANCH  16  18
ENDBRANCH  14  16
TORSDOF 5
ENDMDL
MODEL 8
REMARK VINA RESULT:      -6.5      2.322      4.657
REMARK  Name = 
REMARK  8 active torsions:
REMARK  status: ('A' for Active; 'I' for Inactive)
REMARK    1  A    between atoms: C_1  and  C_2
REMARK    2  A    between atoms: N_4  and  C_5
REMARK    3  A    between atoms: C_14  and  N_15
REMARK    4  A    between atoms: N_15  and  C_16
REMARK    5  A    between atoms: C_16  and  C_17
REMARK    6  A    between atoms: C_17  and  C_18
REMARK    7  A    between atoms: C_18  and  S_19
REMARK    8  A    between atoms: S_19  and  C_20
REMARK                            x       y       z     vdW  Elec       q    Type
REMARK                         _______ _______ _______ _____ _____    ______ ____
ROOT
ATOM      1  C   UNL     1       0.912   3.202  18.727  0.00  0.00    +0.000 C 
ATOM      2  C   UNL     1       2.353   3.299  19.150  0.00  0.00    +0.000 A 
ATOM      3  N   UNL     1       2.856   2.253  19.846  0.00  0.00    +0.000 NA
ATOM      4  N   UNL     1       4.156   2.424  20.001  0.00  0.00    +0.000 N 
ATOM      5  C   UNL     1       5.033   1.559  20.765  0.00  0.00    +0.000 C 
ATOM      6  C   UNL     1       4.515   3.535  19.362  0.00  0.00    +0.000 A 
ATOM      7  N   UNL     1       5.788   3.920  19.211  0.00  0.00    +0.000 NA
ATOM      8  C   UNL     1       6.076   5.059  18.556  0.00  0.00    +0.000 A 
ATOM      9  C   UNL     1       7.420   5.359  18.339  0.00  0.00    +0.000 A 
ATOM     10  C   UNL     1       7.782   6.550  17.725  0.00  0.00    +0.000 A 
ATOM     11  C   UNL     1       6.799   7.458  17.348  0.00  0.00    +0.000 A 
ATOM     12  C   UNL     1       5.442   7.162  17.540  0.00  0.00    +0.000 A 
ATOM     13  C   UNL     1       5.031   5.928  18.120  0.00  0.00    +0.000 A 
ATOM     14  C   UNL     1       3.642   5.530  18.298  0.00  0.00    +0.000 A 
ATOM     15  C   UNL     1       3.417   4.223  18.889  0.00  0.00    +0.000 A 
ENDROOT
BRANCH  14  16
ATOM     16  N   UNL     1       2.613   6.467  17.956  0.00  0.00    +0.000 N 
ATOM     17  H   UNL     1       2.221   6.458  17.006  0.00  0.00    +0.000 HD
BRANCH  16  18
ATOM     18  C   UNL     1       2.252   7.645  18.712  0.00  0.00    +0.000 C 
BRANCH  18  19
ATOM     19  C   UNL     1       2.099   7.362  20.224  0.00  0.00    +0.000 C 
BRANCH  19  20
ATOM     20  C   UNL     1       0.795   7.907  20.842  0.00  0.00    +0.000 C 
BRANCH  20  21
ATOM     21  S   UNL     1       1.200   9.175  22.111  0.00  0.00    +0.000 S 
ATOM     22  C   UNL     1       0.789  10.637  21.094  0.00  0.00    +0.000 C 
ATOM     23  O   UNL     1      -0.368   9.132  22.816  0.00  0.00    +0.000 OA
ENDBRANCH  20  21
ENDBRANCH  19  20
ENDBRANCH  18  19
ENDBRANCH  16  18
ENDBRANCH  14  16
TORSDOF 5
ENDMDL
MODEL 9
REMARK VINA RESULT:      -6.4      2.014      4.300
REMARK  Name = 
REMARK  8 active torsions:
REMARK  status: ('A' for Active; 'I' for Inactive)
REMARK    1  A    between atoms: C_1  and  C_2
REMARK    2  A    between atoms: N_4  and  C_5
REMARK    3  A    between atoms: C_14  and  N_15
REMARK    4  A    between atoms: N_15  and  C_16
REMARK    5  A    between atoms: C_16  and  C_17
REMARK    6  A    between atoms: C_17  and  C_18
REMARK    7  A    between atoms: C_18  and  S_19
REMARK    8  A    between atoms: S_19  and  C_20
REMARK                            x       y       z     vdW  Elec       q    Type
REMARK                         _______ _______ _______ _____ _____    ______ ____
ROOT
ATOM      1  C   UNL     1       0.718   3.583  20.096  0.00  0.00    +0.000 C 
ATOM      2  C   UNL     1       2.214   3.495  19.948  0.00  0.00    +0.000 A 
ATOM      3  N   UNL     1       2.836   2.502  20.624  0.00  0.00    +0.000 NA
ATOM      4  N   UNL     1       4.106   2.468  20.266  0.00  0.00    +0.000 N 
ATOM      5  C   UNL     1       5.117   1.597  20.832  0.00  0.00    +0.000 C 
ATOM      6  C   UNL     1       4.304   3.385  19.321  0.00  0.00    +0.000 A 
ATOM      7  N   UNL     1       5.453   3.515  18.649  0.00  0.00    +0.000 NA
ATOM      8  C   UNL     1       5.583   4.468  17.709  0.00  0.00    +0.000 A 
ATOM      9  C   UNL     1       6.764   4.493  16.969  0.00  0.00    +0.000 A 
ATOM     10  C   UNL     1       6.981   5.490  16.029  0.00  0.00    +0.000 A 
ATOM     11  C   UNL     1       6.025   6.483  15.843  0.00  0.00    +0.000 A 
ATOM     12  C   UNL     1       4.823   6.460  16.564  0.00  0.00    +0.000 A 
ATOM     13  C   UNL     1       4.543   5.424  17.499  0.00  0.00    +0.000 A 
ATOM     14  C   UNL     1       3.296   5.305  18.241  0.00  0.00    +0.000 A 
ATOM     15  C   UNL     1       3.184   4.168  19.136  0.00  0.00    +0.000 A 
ENDROOT
BRANCH  14  16
ATOM     16  N   UNL     1       2.315   6.340  18.097  0.00  0.00    +0.000 N 
ATOM     17  H   UNL     1       1.631   6.282  17.330  0.00  0.00    +0.000 HD
BRANCH  16  18
ATOM     18  C   UNL     1       2.348   7.637  18.736  0.00  0.00    +0.000 C 
BRANCH  18  19
ATOM     19  C   UNL     1       1.823   8.768  17.822  0.00  0.00    +0.000 C 
BRANCH  19  20
ATOM     20  C   UNL     1       1.558  10.101  18.552  0.00  0.00    +0.000 C 
BRANCH  20  21
ATOM     21  S   UNL     1      -0.253  10.406  18.637  0.00  0.00    +0.000 S 
ATOM     22  C   UNL     1      -0.415  10.236  20.450  0.00  0.00    +0.000 C 
ATOM     23  O   UNL     1      -0.074  12.113  18.738  0.00  0.00    +0.000 OA
ENDBRANCH  20  21
ENDBRANCH  19  20
ENDBRANCH  18  19
ENDBRANCH  16  18
ENDBRANCH  14  16
TORSDOF 5
ENDMDL
