MODEL 1
REMARK VINA RESULT:      -9.2      0.000      0.000
REMARK  Name = 
REMARK  4 active torsions:
REMARK  status: ('A' for Active; 'I' for Inactive)
REMARK    1  A    between atoms: C_2  and  C_3
REMARK    2  A    between atoms: C_4  and  C_5
REMARK    3  A    between atoms: N_14  and  S_15
REMARK    4  A    between atoms: S_15  and  C_18
REMARK                            x       y       z     vdW  Elec       q    Type
REMARK                         _______ _______ _______ _____ _____    ______ ____
ROOT
ATOM      1  O   UNL     1       7.900   6.693  18.890  0.00  0.00    +0.000 OA
ATOM      2  C   UNL     1       7.814   7.436  17.927  0.00  0.00    +0.000 C 
ATOM      3  N   UNL     1       7.269   7.065  16.699  0.00  0.00    +0.000 N 
ATOM      4  H   UNL     1       7.142   7.725  15.941  0.00  0.00    +0.000 HD
ENDROOT
BRANCH   3   5
ATOM      5  S   UNL     1       6.746   5.538  16.307  0.00  0.00    +0.000 S 
ATOM      6  O   UNL     1       6.260   5.646  14.945  0.00  0.00    +0.000 OA
ATOM      7  O   UNL     1       7.778   4.584  16.643  0.00  0.00    +0.000 OA
BRANCH   5   8
ATOM      8  C   UNL     1       5.332   5.259  17.348  0.00  0.00    +0.000 A 
ATOM      9  C   UNL     1       5.325   4.186  18.247  0.00  0.00    +0.000 A 
ATOM     10  C   UNL     1       4.235   4.013  19.105  0.00  0.00    +0.000 A 
ATOM     11  C   UNL     1       3.171   4.917  19.069  0.00  0.00    +0.000 A 
ATOM     12 CL   UNL     1       1.833   4.702  20.130  0.00  0.00    +0.000 Cl
ATOM     13  C   UNL     1       3.185   5.995  18.185  0.00  0.00    +0.000 A 
ATOM     14  C   UNL     1       4.273   6.173  17.328  0.00  0.00    +0.000 A 
ENDBRANCH   5   8
ENDBRANCH   3   5
BRANCH   2  15
ATOM     15  C   UNL     1       8.255   8.853  17.957  0.00  0.00    +0.000 C 
ATOM     16  C   UNL     1       9.009   9.295  18.975  0.00  0.00    +0.000 C 
BRANCH  16  17
ATOM     17  C   UNL     1       9.458  10.685  19.052  0.00  0.00    +0.000 A 
ATOM     18  C   UNL     1       9.451  11.361  20.291  0.00  0.00    +0.000 A 
ATOM     19  C   UNL     1       9.871  12.694  20.380  0.00  0.00    +0.000 A 
ATOM     20  C   UNL     1      10.286  13.315  19.222  0.00  0.00    +0.000 A 
ATOM     21  C   UNL     1      10.296  12.658  18.014  0.00  0.00    +0.000 A 
ATOM     22  C   UNL     1       9.892  11.344  17.894  0.00  0.00    +0.000 A 
ATOM     23  O   UNL     1      10.735  13.450  16.999  0.00  0.00    +0.000 OA
ATOM     24  C   UNL     1      10.964  14.690  17.700  0.00  0.00    +0.000 C 
ATOM     25  O   UNL     1      10.718  14.599  19.119  0.00  0.00    +0.000 OA
ENDBRANCH  16  17
ENDBRANCH   2  15
TORSDOF 4
ENDMDL
MODEL 2
REMARK VINA RESULT:      -9.0      0.801      1.210
REMARK  Name = 
REMARK  4 active torsions:
REMARK  status: ('A' for Active; 'I' for Inactive)
REMARK    1  A    between atoms: C_2  and  C_3
REMARK    2  A    between atoms: C_4  and  C_5
REMARK    3  A    between atoms: N_14  and  S_15
REMARK    4  A    between atoms: S_15  and  C_18
REMARK                            x       y       z     vdW  Elec       q    Type
REMARK                         _______ _______ _______ _____ _____    ______ ____
ROOT
ATOM      1  O   UNL     1       7.974   6.834  18.809  0.00  0.00    +0.000 OA
ATOM      2  C   UNL     1       7.785   7.514  17.815  0.00  0.00    +0.000 C 
ATOM      3  N   UNL     1       7.161   7.054  16.657  0.00  0.00    +0.000 N 
ATOM      4  H   UNL     1       6.952   7.662  15.875  0.00  0.00    +0.000 HD
ENDROOT
BRANCH   3   5
ATOM      5  S   UNL     1       6.666   5.489  16.396  0.00  0.00    +0.000 S 
ATOM      6  O   UNL     1       6.117   5.489  15.054  0.00  0.00    +0.000 OA
ATOM      7  O   UNL     1       7.739   4.589  16.749  0.00  0.00    +0.000 OA
BRANCH   5   8
ATOM      8  C   UNL     1       5.308   5.249  17.518  0.00  0.00    +0.000 A 
ATOM      9  C   UNL     1       5.363   4.227  18.474  0.00  0.00    +0.000 A 
ATOM     10  C   UNL     1       4.318   4.087  19.392  0.00  0.00    +0.000 A 
ATOM     11  C   UNL     1       3.237   4.970  19.357  0.00  0.00    +0.000 A 
ATOM     12 CL   UNL     1       1.955   4.796  20.492  0.00  0.00    +0.000 Cl
ATOM     13  C   UNL     1       3.190   5.997  18.415  0.00  0.00    +0.000 A 
ATOM     14  C   UNL     1       4.233   6.144  17.498  0.00  0.00    +0.000 A 
ENDBRANCH   5   8
ENDBRANCH   3   5
BRANCH   2  15
ATOM     15  C   UNL     1       8.176   8.944  17.728  0.00  0.00    +0.000 C 
ATOM     16  C   UNL     1       8.930   9.489  18.695  0.00  0.00    +0.000 C 
BRANCH  16  17
ATOM     17  C   UNL     1       9.329  10.895  18.658  0.00  0.00    +0.000 A 
ATOM     18  C   UNL     1       8.620  11.810  17.850  0.00  0.00    +0.000 A 
ATOM     19  C   UNL     1       8.993  13.158  17.798  0.00  0.00    +0.000 A 
ATOM     20  C   UNL     1      10.072  13.554  18.558  0.00  0.00    +0.000 A 
ATOM     21  C   UNL     1      10.765  12.667  19.348  0.00  0.00    +0.000 A 
ATOM     22  C   UNL     1      10.419  11.333  19.424  0.00  0.00    +0.000 A 
ATOM     23  O   UNL     1      11.794  13.259  20.011  0.00  0.00    +0.000 OA
ATOM     24  C   UNL     1      11.693  14.611  19.519  0.00  0.00    +0.000 C 
ATOM     25  O   UNL     1      10.578  14.814  18.626  0.00  0.00    +0.000 OA
ENDBRANCH  16  17
ENDBRANCH   2  15
TORSDOF 4
ENDMDL
MODEL 3
REMARK VINA RESULT:      -9.0      0.809      1.619
REMARK  Name = 
REMARK  4 active torsions:
REMARK  status: ('A' for Active; 'I' for Inactive)
REMARK    1  A    between atoms: C_2  and  C_3
REMARK    2  A    between atoms: C_4  and  C_5
REMARK    3  A    between atoms: N_14  and  S_15
REMARK    4  A    between atoms: S_15  and  C_18
REMARK                            x       y       z     vdW  Elec       q    Type
REMARK                         _______ _______ _______ _____ _____    ______ ____
ROOT
ATOM      1  O   UNL     1       8.091   6.782  18.808  0.00  0.00    +0.000 OA
ATOM      2  C   UNL     1       7.828   7.488  17.849  0.00  0.00    +0.000 C 
ATOM      3  N   UNL     1       7.181   7.038  16.699  0.00  0.00    +0.000 N 
ATOM      4  H   UNL     1       6.910   7.663  15.950  0.00  0.00    +0.000 HD
ENDROOT
BRANCH   3   5
ATOM      5  S   UNL     1       6.756   5.461  16.397  0.00  0.00    +0.000 S 
ATOM      6  O   UNL     1       6.287   5.455  15.025  0.00  0.00    +0.000 OA
ATOM      7  O   UNL     1       7.836   4.593  16.807  0.00  0.00    +0.000 OA
BRANCH   5   8
ATOM      8  C   UNL     1       5.342   5.164  17.434  0.00  0.00    +0.000 A 
ATOM      9  C   UNL     1       4.180   5.925  17.267  0.00  0.00    +0.000 A 
ATOM     10  C   UNL     1       3.053   5.642  18.045  0.00  0.00    +0.000 A 
ATOM     11  C   UNL     1       3.092   4.598  18.970  0.00  0.00    +0.000 A 
ATOM     12 CL   UNL     1       1.701   4.250  19.923  0.00  0.00    +0.000 Cl
ATOM     13  C   UNL     1       4.245   3.829  19.126  0.00  0.00    +0.000 A 
ATOM     14  C   UNL     1       5.371   4.106  18.349  0.00  0.00    +0.000 A 
ENDBRANCH   5   8
ENDBRANCH   3   5
BRANCH   2  15
ATOM     15  C   UNL     1       8.142   8.938  17.802  0.00  0.00    +0.000 C 
ATOM     16  C   UNL     1       8.945   9.476  18.734  0.00  0.00    +0.000 C 
BRANCH  16  17
ATOM     17  C   UNL     1       9.273  10.902  18.734  0.00  0.00    +0.000 A 
ATOM     18  C   UNL     1       8.656  11.769  17.807  0.00  0.00    +0.000 A 
ATOM     19  C   UNL     1       8.964  13.134  17.790  0.00  0.00    +0.000 A 
ATOM     20  C   UNL     1       9.885  13.595  18.705  0.00  0.00    +0.000 A 
ATOM     21  C   UNL     1      10.487  12.754  19.612  0.00  0.00    +0.000 A 
ATOM     22  C   UNL     1      10.201  11.405  19.656  0.00  0.00    +0.000 A 
ATOM     23  O   UNL     1      11.364  13.407  20.420  0.00  0.00    +0.000 OA
ATOM     24  C   UNL     1      11.275  14.747  19.893  0.00  0.00    +0.000 C 
ATOM     25  O   UNL     1      10.309  14.881  18.830  0.00  0.00    +0.000 OA
ENDBRANCH  16  17
ENDBRANCH   2  15
TORSDOF 4
ENDMDL
MODEL 4
REMARK VINA RESULT:      -9.0      1.235      1.243
REMARK  Name = 
REMARK  4 active torsions:
REMARK  status: ('A' for Active; 'I' for Inactive)
REMARK    1  A    between atoms: C_2  and  C_3
REMARK    2  A    between atoms: C_4  and  C_5
REMARK    3  A    between atoms: N_14  and  S_15
REMARK    4  A    between atoms: S_15  and  C_18
REMARK                            x       y       z     vdW  Elec       q    Type
REMARK                         _______ _______ _______ _____ _____    ______ ____
ROOT
ATOM      1  O   UNL     1       7.995   6.669  18.884  0.00  0.00    +0.000 OA
ATOM      2  C   UNL     1       7.888   7.365  17.889  0.00  0.00    +0.000 C 
ATOM      3  N   UNL     1       7.484   6.891  16.642  0.00  0.00    +0.000 N 
ATOM      4  H   UNL     1       7.333   7.506  15.851  0.00  0.00    +0.000 HD
ENDROOT
BRANCH   3   5
ATOM      5  S   UNL     1       7.184   5.299  16.275  0.00  0.00    +0.000 S 
ATOM      6  O   UNL     1       7.220   5.235  14.827  0.00  0.00    +0.000 OA
ATOM      7  O   UNL     1       8.053   4.460  17.068  0.00  0.00    +0.000 OA
BRANCH   5   8
ATOM      8  C   UNL     1       5.498   5.028  16.771  0.00  0.00    +0.000 A 
ATOM      9  C   UNL     1       4.921   3.761  16.623  0.00  0.00    +0.000 A 
ATOM     10  C   UNL     1       3.616   3.542  17.074  0.00  0.00    +0.000 A 
ATOM     11  C   UNL     1       2.905   4.582  17.677  0.00  0.00    +0.000 A 
ATOM     12 CL   UNL     1       1.300   4.307  18.234  0.00  0.00    +0.000 Cl
ATOM     13  C   UNL     1       3.486   5.839  17.838  0.00  0.00    +0.000 A 
ATOM     14  C   UNL     1       4.790   6.062  17.393  0.00  0.00    +0.000 A 
ENDBRANCH   5   8
ENDBRANCH   3   5
BRANCH   2  15
ATOM     15  C   UNL     1       8.148   8.826  17.893  0.00  0.00    +0.000 C 
ATOM     16  C   UNL     1       9.025   9.345  18.767  0.00  0.00    +0.000 C 
BRANCH  16  17
ATOM     17  C   UNL     1       9.304  10.780  18.815  0.00  0.00    +0.000 A 
ATOM     18  C   UNL     1      10.380  11.264  19.589  0.00  0.00    +0.000 A 
ATOM     19  C   UNL     1      10.657  12.635  19.651  0.00  0.00    +0.000 A 
ATOM     20  C   UNL     1       9.843  13.487  18.935  0.00  0.00    +0.000 A 
ATOM     21  C   UNL     1       8.795  13.018  18.178  0.00  0.00    +0.000 A 
ATOM     22  C   UNL     1       8.500  11.673  18.093  0.00  0.00    +0.000 A 
ATOM     23  O   UNL     1       8.118  14.021  17.556  0.00  0.00    +0.000 OA
ATOM     24  C   UNL     1       8.837  15.175  18.038  0.00  0.00    +0.000 C 
ATOM     25  O   UNL     1       9.957  14.840  18.883  0.00  0.00    +0.000 OA
ENDBRANCH  16  17
ENDBRANCH   2  15
TORSDOF 4
ENDMDL
MODEL 5
REMARK VINA RESULT:      -8.9      0.780      1.259
REMARK  Name = 
REMARK  4 active torsions:
REMARK  status: ('A' for Active; 'I' for Inactive)
REMARK    1  A    between atoms: C_2  and  C_3
REMARK    2  A    between atoms: C_4  and  C_5
REMARK    3  A    between atoms: N_14  and  S_15
REMARK    4  A    between atoms: S_15  and  C_18
REMARK                            x       y       z     vdW  Elec       q    Type
REMARK                         _______ _______ _______ _____ _____    ______ ____
ROOT
ATOM      1  O   UNL     1       8.155   6.899  18.819  0.00  0.00    +0.000 OA
ATOM      2  C   UNL     1       7.883   7.708  17.948  0.00  0.00    +0.000 C 
ATOM      3  N   UNL     1       7.090   7.426  16.837  0.00  0.00    +0.000 N 
ATOM      4  H   UNL     1       6.820   8.138  16.169  0.00  0.00    +0.000 HD
ENDROOT
BRANCH   3   5
ATOM      5  S   UNL     1       6.473   5.931  16.458  0.00  0.00    +0.000 S 
ATOM      6  O   UNL     1       5.800   6.115  15.187  0.00  0.00    +0.000 OA
ATOM      7  O   UNL     1       7.515   4.940  16.599  0.00  0.00    +0.000 OA
BRANCH   5   8
ATOM      8  C   UNL     1       5.215   5.635  17.679  0.00  0.00    +0.000 A 
ATOM      9  C   UNL     1       4.093   6.469  17.744  0.00  0.00    +0.000 A 
ATOM     10  C   UNL     1       3.080   6.190  18.666  0.00  0.00    +0.000 A 
ATOM     11  C   UNL     1       3.189   5.077  19.502  0.00  0.00    +0.000 A 
ATOM     12 CL   UNL     1       1.936   4.734  20.633  0.00  0.00    +0.000 Cl
ATOM     13  C   UNL     1       4.299   4.236  19.426  0.00  0.00    +0.000 A 
ATOM     14  C   UNL     1       5.311   4.510  18.505  0.00  0.00    +0.000 A 
ENDBRANCH   5   8
ENDBRANCH   3   5
BRANCH   2  15
ATOM     15  C   UNL     1       8.344   9.119  17.983  0.00  0.00    +0.000 C 
ATOM     16  C   UNL     1       9.079   9.555  19.019  0.00  0.00    +0.000 C 
BRANCH  16  17
ATOM     17  C   UNL     1       9.545  10.938  19.102  0.00  0.00    +0.000 A 
ATOM     18  C   UNL     1      10.554  11.290  20.024  0.00  0.00    +0.000 A 
ATOM     19  C   UNL     1      11.007  12.611  20.120  0.00  0.00    +0.000 A 
ATOM     20  C   UNL     1      10.432  13.548  19.288  0.00  0.00    +0.000 A 
ATOM     21  C   UNL     1       9.450  13.209  18.387  0.00  0.00    +0.000 A 
ATOM     22  C   UNL     1       8.986  11.915  18.266  0.00  0.00    +0.000 A 
ATOM     23  O   UNL     1       9.017  14.279  17.668  0.00  0.00    +0.000 OA
ATOM     24  C   UNL     1       9.811  15.336  18.246  0.00  0.00    +0.000 C 
ATOM     25  O   UNL     1      10.739  14.871  19.248  0.00  0.00    +0.000 OA
ENDBRANCH  16  17
ENDBRANCH   2  15
TORSDOF 4
ENDMDL
MODEL 6
REMARK VINA RESULT:      -8.7      1.271      1.702
REMARK  Name = 
REMARK  4 active torsions:
REMARK  status: ('A' for Active; 'I' for Inactive)
REMARK    1  A    between atoms: C_2  and  C_3
REMARK    2  A    between atoms: C_4  and  C_5
REMARK    3  A    between atoms: N_14  and  S_15
REMARK    4  A    between atoms: S_15  and  C_18
REMARK                            x       y       z     vdW  Elec       q    Type
REMARK                         _______ _______ _______ _____ _____    ______ ____
ROOT
ATOM      1  O   UNL     1       7.899   5.624  18.909  0.00  0.00    +0.000 OA
ATOM      2  C   UNL     1       7.849   6.619  18.207  0.00  0.00    +0.000 C 
ATOM      3  N   UNL     1       7.346   6.637  16.907  0.00  0.00    +0.000 N 
ATOM      4  H   UNL     1       7.249   7.493  16.374  0.00  0.00    +0.000 HD
ENDROOT
BRANCH   3   5
ATOM      5  S   UNL     1       6.831   5.301  16.064  0.00  0.00    +0.000 S 
ATOM      6  O   UNL     1       6.621   5.772  14.708  0.00  0.00    +0.000 OA
ATOM      7  O   UNL     1       7.730   4.201  16.326  0.00  0.00    +0.000 OA
BRANCH   5   8
ATOM      8  C   UNL     1       5.231   4.924  16.741  0.00  0.00    +0.000 A 
ATOM      9  C   UNL     1       4.800   3.594  16.819  0.00  0.00    +0.000 A 
ATOM     10  C   UNL     1       3.568   3.304  17.411  0.00  0.00    +0.000 A 
ATOM     11  C   UNL     1       2.785   4.336  17.930  0.00  0.00    +0.000 A 
ATOM     12 CL   UNL     1       1.269   3.973  18.662  0.00  0.00    +0.000 Cl
ATOM     13  C   UNL     1       3.221   5.659  17.867  0.00  0.00    +0.000 A 
ATOM     14  C   UNL     1       4.453   5.954  17.279  0.00  0.00    +0.000 A 
ENDBRANCH   5   8
ENDBRANCH   3   5
BRANCH   2  15
ATOM     15  C   UNL     1       8.296   7.958  18.669  0.00  0.00    +0.000 C 
ATOM     16  C   UNL     1       8.232   9.007  17.834  0.00  0.00    +0.000 C 
BRANCH  16  17
ATOM     17  C   UNL     1       8.671  10.341  18.242  0.00  0.00    +0.000 A 
ATOM     18  C   UNL     1       8.224  11.478  17.536  0.00  0.00    +0.000 A 
ATOM     19  C   UNL     1       8.640  12.761  17.910  0.00  0.00    +0.000 A 
ATOM     20  C   UNL     1       9.499  12.870  18.982  0.00  0.00    +0.000 A 
ATOM     21  C   UNL     1       9.936  11.765  19.674  0.00  0.00    +0.000 A 
ATOM     22  C   UNL     1       9.539  10.488  19.333  0.00  0.00    +0.000 A 
ATOM     23  O   UNL     1      10.777  12.090  20.692  0.00  0.00    +0.000 OA
ATOM     24  C   UNL     1      10.849  13.523  20.538  0.00  0.00    +0.000 C 
ATOM     25  O   UNL     1      10.009  14.028  19.479  0.00  0.00    +0.000 OA
ENDBRANCH  16  17
ENDBRANCH   2  15
TORSDOF 4
ENDMDL
MODEL 7
REMARK VINA RESULT:      -8.7      0.968      1.071
REMARK  Name = 
REMARK  4 active torsions:
REMARK  status: ('A' for Active; 'I' for Inactive)
REMARK    1  A    between atoms: C_2  and  C_3
REMARK    2  A    between atoms: C_4  and  C_5
REMARK    3  A    between atoms: N_14  and  S_15
REMARK    4  A    between atoms: S_15  and  C_18
REMARK                            x       y       z     vdW  Elec       q    Type
REMARK                         _______ _______ _______ _____ _____    ______ ____
ROOT
ATOM      1  O   UNL     1       7.660   5.679  18.524  0.00  0.00    +0.000 OA
ATOM      2  C   UNL     1       7.619   6.815  18.083  0.00  0.00    +0.000 C 
ATOM      3  N   UNL     1       6.754   7.231  17.072  0.00  0.00    +0.000 N 
ATOM      4  H   UNL     1       6.690   8.199  16.777  0.00  0.00    +0.000 HD
ENDROOT
BRANCH   3   5
ATOM      5  S   UNL     1       5.718   6.241  16.232  0.00  0.00    +0.000 S 
ATOM      6  O   UNL     1       5.116   7.095  15.227  0.00  0.00    +0.000 OA
ATOM      7  O   UNL     1       6.422   5.039  15.847  0.00  0.00    +0.000 OA
BRANCH   5   8
ATOM      8  C   UNL     1       4.443   5.823  17.398  0.00  0.00    +0.000 A 
ATOM      9  C   UNL     1       4.353   4.520  17.899  0.00  0.00    +0.000 A 
ATOM     10  C   UNL     1       3.386   4.217  18.862  0.00  0.00    +0.000 A 
ATOM     11  C   UNL     1       2.529   5.217  19.325  0.00  0.00    +0.000 A 
ATOM     12 CL   UNL     1       1.342   4.841  20.514  0.00  0.00    +0.000 Cl
ATOM     13  C   UNL     1       2.628   6.520  18.837  0.00  0.00    +0.000 A 
ATOM     14  C   UNL     1       3.594   6.827  17.877  0.00  0.00    +0.000 A 
ENDBRANCH   5   8
ENDBRANCH   3   5
BRANCH   2  15
ATOM     15  C   UNL     1       8.474   7.914  18.598  0.00  0.00    +0.000 C 
ATOM     16  C   UNL     1       8.293   9.166  18.149  0.00  0.00    +0.000 C 
BRANCH  16  17
ATOM     17  C   UNL     1       9.119  10.277  18.619  0.00  0.00    +0.000 A 
ATOM     18  C   UNL     1       9.261  10.515  20.003  0.00  0.00    +0.000 A 
ATOM     19  C   UNL     1      10.043  11.579  20.469  0.00  0.00    +0.000 A 
ATOM     20  C   UNL     1      10.661  12.380  19.533  0.00  0.00    +0.000 A 
ATOM     21  C   UNL     1      10.526  12.150  18.184  0.00  0.00    +0.000 A 
ATOM     22  C   UNL     1       9.767  11.107  17.694  0.00  0.00    +0.000 A 
ATOM     23  O   UNL     1      11.212  13.054  17.434  0.00  0.00    +0.000 OA
ATOM     24  C   UNL     1      11.761  13.901  18.464  0.00  0.00    +0.000 C 
ATOM     25  O   UNL     1      11.447  13.455  19.800  0.00  0.00    +0.000 OA
ENDBRANCH  16  17
ENDBRANCH   2  15
TORSDOF 4
ENDMDL
MODEL 8
REMARK VINA RESULT:      -8.6      1.201      1.312
REMARK  Name = 
REMARK  4 active torsions:
REMARK  status: ('A' for Active; 'I' for Inactive)
REMARK    1  A    between atoms: C_2  and  C_3
REMARK    2  A    between atoms: C_4  and  C_5
REMARK    3  A    between atoms: N_14  and  S_15
REMARK    4  A    between atoms: S_15  and  C_18
REMARK                            x       y       z     vdW  Elec       q    Type
REMARK                         _______ _______ _______ _____ _____    ______ ____
ROOT
ATOM      1  O   UNL     1       5.846   7.365  16.679  0.00  0.00    +0.000 OA
ATOM      2  C   UNL     1       6.944   7.488  17.195  0.00  0.00    +0.000 C 
ATOM      3  N   UNL     1       7.818   6.431  17.439  0.00  0.00    +0.000 N 
ATOM      4  H   UNL     1       8.754   6.572  17.800  0.00  0.00    +0.000 HD
ENDROOT
BRANCH   3   5
ATOM      5  S   UNL     1       7.477   4.827  17.169  0.00  0.00    +0.000 S 
ATOM      6  O   UNL     1       7.406   4.697  15.726  0.00  0.00    +0.000 OA
ATOM      7  O   UNL     1       8.395   4.014  17.933  0.00  0.00    +0.000 OA
BRANCH   5   8
ATOM      8  C   UNL     1       5.830   4.600  17.798  0.00  0.00    +0.000 A 
ATOM      9  C   UNL     1       5.530   4.956  19.118  0.00  0.00    +0.000 A 
ATOM     10  C   UNL     1       4.218   4.832  19.583  0.00  0.00    +0.000 A 
ATOM     11  C   UNL     1       3.217   4.368  18.727  0.00  0.00    +0.000 A 
ATOM     12 CL   UNL     1       1.602   4.221  19.304  0.00  0.00    +0.000 Cl
ATOM     13  C   UNL     1       3.513   4.027  17.408  0.00  0.00    +0.000 A 
ATOM     14  C   UNL     1       4.822   4.152  16.938  0.00  0.00    +0.000 A 
ENDBRANCH   5   8
ENDBRANCH   3   5
BRANCH   2  15
ATOM     15  C   UNL     1       7.502   8.802  17.602  0.00  0.00    +0.000 C 
ATOM     16  C   UNL     1       8.555   8.851  18.433  0.00  0.00    +0.000 C 
BRANCH  16  17
ATOM     17  C   UNL     1       9.131  10.122  18.870  0.00  0.00    +0.000 A 
ATOM     18  C   UNL     1       9.315  10.378  20.246  0.00  0.00    +0.000 A 
ATOM     19  C   UNL     1       9.860  11.592  20.681  0.00  0.00    +0.000 A 
ATOM     20  C   UNL     1      10.203  12.521  19.723  0.00  0.00    +0.000 A 
ATOM     21  C   UNL     1      10.027  12.274  18.381  0.00  0.00    +0.000 A 
ATOM     22  C   UNL     1       9.498  11.086  17.921  0.00  0.00    +0.000 A 
ATOM     23  O   UNL     1      10.426  13.319  17.607  0.00  0.00    +0.000 OA
ATOM     24  C   UNL     1      10.837  14.264  18.616  0.00  0.00    +0.000 C 
ATOM     25  O   UNL     1      10.735  13.749  19.960  0.00  0.00    +0.000 OA
ENDBRANCH  16  17
ENDBRANCH   2  15
TORSDOF 4
ENDMDL
MODEL 9
REMARK VINA RESULT:      -8.6      1.571      2.158
REMARK  Name = 
REMARK  4 active torsions:
REMARK  status: ('A' for Active; 'I' for Inactive)
REMARK    1  A    between atoms: C_2  and  C_3
REMARK    2  A    between atoms: C_4  and  C_5
REMARK    3  A    between atoms: N_14  and  S_15
REMARK    4  A    between atoms: S_15  and  C_18
REMARK                            x       y       z     vdW  Elec       q    Type
REMARK                         _______ _______ _______ _____ _____    ______ ____
ROOT
ATOM      1  O   UNL     1       7.525   6.880  16.442  0.00  0.00    +0.000 OA
ATOM      2  C   UNL     1       7.740   7.470  17.487  0.00  0.00    +0.000 C 
ATOM      3  N   UNL     1       7.779   6.857  18.738  0.00  0.00    +0.000 N 
ATOM      4  H   UNL     1       8.033   7.359  19.581  0.00  0.00    +0.000 HD
ENDROOT
BRANCH   3   5
ATOM      5  S   UNL     1       7.439   5.257  19.030  0.00  0.00    +0.000 S 
ATOM      6  O   UNL     1       8.227   4.523  18.059  0.00  0.00    +0.000 OA
ATOM      7  O   UNL     1       7.585   4.993  20.444  0.00  0.00    +0.000 OA
BRANCH   5   8
ATOM      8  C   UNL     1       5.731   5.064  18.573  0.00  0.00    +0.000 A 
ATOM      9  C   UNL     1       5.394   4.373  17.404  0.00  0.00    +0.000 A 
ATOM     10  C   UNL     1       4.048   4.172  17.086  0.00  0.00    +0.000 A 
ATOM     11  C   UNL     1       3.053   4.650  17.942  0.00  0.00    +0.000 A 
ATOM     12 CL   UNL     1       1.396   4.396  17.549  0.00  0.00    +0.000 Cl
ATOM     13  C   UNL     1       3.389   5.324  19.115  0.00  0.00    +0.000 A 
ATOM     14  C   UNL     1       4.733   5.524  19.438  0.00  0.00    +0.000 A 
ENDBRANCH   5   8
ENDBRANCH   3   5
BRANCH   2  15
ATOM     15  C   UNL     1       8.023   8.926  17.550  0.00  0.00    +0.000 C 
ATOM     16  C   UNL     1       8.825   9.408  18.512  0.00  0.00    +0.000 C 
BRANCH  16  17
ATOM     17  C   UNL     1       9.122  10.836  18.620  0.00  0.00    +0.000 A 
ATOM     18  C   UNL     1       8.543  11.749  17.713  0.00  0.00    +0.000 A 
ATOM     19  C   UNL     1       8.822  13.118  17.799  0.00  0.00    +0.000 A 
ATOM     20  C   UNL     1       9.679  13.536  18.794  0.00  0.00    +0.000 A 
ATOM     21  C   UNL     1      10.244  12.650  19.681  0.00  0.00    +0.000 A 
ATOM     22  C   UNL     1       9.985  11.296  19.624  0.00  0.00    +0.000 A 
ATOM     23  O   UNL     1      11.060  13.266  20.578  0.00  0.00    +0.000 OA
ATOM     24  C   UNL     1      10.973  14.635  20.131  0.00  0.00    +0.000 C 
ATOM     25  O   UNL     1      10.067  14.818  19.022  0.00  0.00    +0.000 OA
ENDBRANCH  16  17
ENDBRANCH   2  15
TORSDOF 4
ENDMDL
