MODEL 1
REMARK VINA RESULT:      -7.7      0.000      0.000
REMARK  Name = 
REMARK  7 active torsions:
REMARK  status: ('A' for Active; 'I' for Inactive)
REMARK    1  A    between atoms: C_2  and  O_3
REMARK    2  A    between atoms: O_3  and  C_4
REMARK    3  A    between atoms: C_4  and  C_5
REMARK    4  A    between atoms: C_14  and  N_15
REMARK    5  A    between atoms: C_18  and  C_19
REMARK    6  A    between atoms: C_22  and  O_23
REMARK    7  A    between atoms: C_24  and  O_25
REMARK                            x       y       z     vdW  Elec       q    Type
REMARK                         _______ _______ _______ _____ _____    ______ ____
ROOT
ATOM      1  N   UNL     1       1.434   7.100  21.320  0.00  0.00    +0.000 N 
ATOM      2  C   UNL     1       1.926   6.235  20.404  0.00  0.00    +0.000 A 
ATOM      3  N   UNL     1       3.031   6.416  19.715  0.00  0.00    +0.000 NA
ATOM      4  C   UNL     1       3.209   5.391  18.803  0.00  0.00    +0.000 A 
ATOM      5  C   UNL     1       2.221   4.428  18.816  0.00  0.00    +0.000 A 
ATOM      6  S   UNL     1       1.061   4.798  20.020  0.00  0.00    +0.000 S 
ATOM      7  H   UNL     1       0.472   6.927  21.594  0.00  0.00    +0.000 HD
ENDROOT
BRANCH   1  13
ATOM      8  O   UNL     1      -1.726  11.428  22.000  0.00  0.00    +0.000 OA
ATOM      9  C   UNL     1      -1.040  10.919  21.124  0.00  0.00    +0.000 C 
ATOM     10  N   UNL     1      -0.082   9.969  21.375  0.00  0.00    +0.000 N 
ATOM     11  C   UNL     1       0.306   9.590  22.713  0.00  0.00    +0.000 C 
ATOM     12  C   UNL     1       1.767   9.196  22.554  0.00  0.00    +0.000 C 
ATOM     13  C   UNL     1       1.800   8.513  21.181  0.00  0.00    +0.000 C 
ATOM     14  C   UNL     1       0.755   9.316  20.374  0.00  0.00    +0.000 C 
BRANCH   9  15
ATOM     15  O   UNL     1      -1.136  11.216  19.801  0.00  0.00    +0.000 OA
BRANCH  15  16
ATOM     16  C   UNL     1      -2.344  11.873  19.394  0.00  0.00    +0.000 C 
BRANCH  16  17
ATOM     17  C   UNL     1      -2.860  11.366  18.067  0.00  0.00    +0.000 A 
ATOM     18  C   UNL     1      -4.148  11.702  17.624  0.00  0.00    +0.000 A 
ATOM     19  C   UNL     1      -4.609  11.271  16.378  0.00  0.00    +0.000 A 
ATOM     20  C   UNL     1      -3.791  10.496  15.557  0.00  0.00    +0.000 A 
ATOM     21  C   UNL     1      -2.508  10.154  15.987  0.00  0.00    +0.000 A 
ATOM     22  C   UNL     1      -2.046  10.583  17.234  0.00  0.00    +0.000 A 
ENDBRANCH  16  17
ENDBRANCH  15  16
ENDBRANCH   9  15
ENDBRANCH   1  13
BRANCH   4  23
ATOM     23  C   UNL     1       4.374   5.356  17.928  0.00  0.00    +0.000 A 
ATOM     24  C   UNL     1       4.322   6.014  16.684  0.00  0.00    +0.000 A 
ATOM     25  C   UNL     1       5.426   6.020  15.823  0.00  0.00    +0.000 A 
ATOM     26  C   UNL     1       6.583   5.356  16.210  0.00  0.00    +0.000 A 
ATOM     27  C   UNL     1       6.636   4.691  17.430  0.00  0.00    +0.000 A 
ATOM     28  C   UNL     1       5.548   4.683  18.294  0.00  0.00    +0.000 A 
BRANCH  26  29
ATOM     29  O   UNL     1       7.698   5.326  15.422  0.00  0.00    +0.000 OA
ATOM     30  H   UNL     1       7.511   5.834  14.614  0.00  0.00    +0.000 HD
ENDBRANCH  26  29
BRANCH  27  31
ATOM     31  O   UNL     1       7.774   4.029  17.798  0.00  0.00    +0.000 OA
ATOM     32  H   UNL     1       7.450   3.218  18.246  0.00  0.00    +0.000 HD
ENDBRANCH  27  31
ENDBRANCH   4  23
TORSDOF 7
ENDMDL
MODEL 2
REMARK VINA RESULT:      -7.5      1.936      2.736
REMARK  Name = 
REMARK  7 active torsions:
REMARK  status: ('A' for Active; 'I' for Inactive)
REMARK    1  A    between atoms: C_2  and  O_3
REMARK    2  A    between atoms: O_3  and  C_4
REMARK    3  A    between atoms: C_4  and  C_5
REMARK    4  A    between atoms: C_14  and  N_15
REMARK    5  A    between atoms: C_18  and  C_19
REMARK    6  A    between atoms: C_22  and  O_23
REMARK    7  A    between atoms: C_24  and  O_25
REMARK                            x       y       z     vdW  Elec       q    Type
REMARK                         _______ _______ _______ _____ _____    ______ ____
ROOT
ATOM      1  N   UNL     1       1.309   8.768  19.732  0.00  0.00    +0.000 N 
ATOM      2  C   UNL     1       2.023   7.640  19.512  0.00  0.00    +0.000 A 
ATOM      3  N   UNL     1       2.968   7.509  18.608  0.00  0.00    +0.000 NA
ATOM      4  C   UNL     1       3.440   6.209  18.581  0.00  0.00    +0.000 A 
ATOM      5  C   UNL     1       2.837   5.357  19.483  0.00  0.00    +0.000 A 
ATOM      6  S   UNL     1       1.678   6.211  20.408  0.00  0.00    +0.000 S 
ATOM      7  H   UNL     1       0.477   8.641  20.298  0.00  0.00    +0.000 HD
ENDROOT
BRANCH   1  13
ATOM      8  O   UNL     1      -2.443  12.596  19.066  0.00  0.00    +0.000 OA
ATOM      9  C   UNL     1      -2.033  11.599  18.487  0.00  0.00    +0.000 C 
ATOM     10  N   UNL     1      -0.823  11.013  18.761  0.00  0.00    +0.000 N 
ATOM     11  C   UNL     1       0.143  11.605  19.656  0.00  0.00    +0.000 C 
ATOM     12  C   UNL     1       1.475  11.132  19.092  0.00  0.00    +0.000 C 
ATOM     13  C   UNL     1       1.169   9.706  18.615  0.00  0.00    +0.000 C 
ATOM     14  C   UNL     1      -0.289   9.817  18.116  0.00  0.00    +0.000 C 
BRANCH   9  15
ATOM     15  O   UNL     1      -2.714  10.943  17.511  0.00  0.00    +0.000 OA
BRANCH  15  16
ATOM     16  C   UNL     1      -3.893  10.243  17.933  0.00  0.00    +0.000 C 
BRANCH  16  17
ATOM     17  C   UNL     1      -5.111  11.137  17.978  0.00  0.00    +0.000 A 
ATOM     18  C   UNL     1      -5.323  12.107  16.988  0.00  0.00    +0.000 A 
ATOM     19  C   UNL     1      -6.471  12.903  17.003  0.00  0.00    +0.000 A 
ATOM     20  C   UNL     1      -7.422  12.744  18.010  0.00  0.00    +0.000 A 
ATOM     21  C   UNL     1      -7.222  11.783  19.002  0.00  0.00    +0.000 A 
ATOM     22  C   UNL     1      -6.073  10.987  18.989  0.00  0.00    +0.000 A 
ENDBRANCH  16  17
ENDBRANCH  15  16
ENDBRANCH   9  15
ENDBRANCH   1  13
BRANCH   4  23
ATOM     23  C   UNL     1       4.507   5.815  17.669  0.00  0.00    +0.000 A 
ATOM     24  C   UNL     1       4.375   4.625  16.928  0.00  0.00    +0.000 A 
ATOM     25  C   UNL     1       5.369   4.222  16.027  0.00  0.00    +0.000 A 
ATOM     26  C   UNL     1       6.501   5.012  15.878  0.00  0.00    +0.000 A 
ATOM     27  C   UNL     1       6.645   6.180  16.619  0.00  0.00    +0.000 A 
ATOM     28  C   UNL     1       5.663   6.592  17.511  0.00  0.00    +0.000 A 
BRANCH  26  29
ATOM     29  O   UNL     1       7.505   4.680  15.014  0.00  0.00    +0.000 OA
ATOM     30  H   UNL     1       7.116   4.545  14.135  0.00  0.00    +0.000 HD
ENDBRANCH  26  29
BRANCH  27  31
ATOM     31  O   UNL     1       7.768   6.946  16.476  0.00  0.00    +0.000 OA
ATOM     32  H   UNL     1       8.458   6.463  16.980  0.00  0.00    +0.000 HD
ENDBRANCH  27  31
ENDBRANCH   4  23
TORSDOF 7
ENDMDL
MODEL 3
REMARK VINA RESULT:      -7.5      3.802     10.403
REMARK  Name = 
REMARK  7 active torsions:
REMARK  status: ('A' for Active; 'I' for Inactive)
REMARK    1  A    between atoms: C_2  and  O_3
REMARK    2  A    between atoms: O_3  and  C_4
REMARK    3  A    between atoms: C_4  and  C_5
REMARK    4  A    between atoms: C_14  and  N_15
REMARK    5  A    between atoms: C_18  and  C_19
REMARK    6  A    between atoms: C_22  and  O_23
REMARK    7  A    between atoms: C_24  and  O_25
REMARK                            x       y       z     vdW  Elec       q    Type
REMARK                         _______ _______ _______ _____ _____    ______ ____
ROOT
ATOM      1  N   UNL     1      -0.944  11.623  18.068  0.00  0.00    +0.000 N 
ATOM      2  C   UNL     1      -2.223  11.821  18.460  0.00  0.00    +0.000 A 
ATOM      3  N   UNL     1      -2.589  12.285  19.634  0.00  0.00    +0.000 NA
ATOM      4  C   UNL     1      -3.967  12.287  19.750  0.00  0.00    +0.000 A 
ATOM      5  C   UNL     1      -4.641  11.818  18.641  0.00  0.00    +0.000 A 
ATOM      6  S   UNL     1      -3.523  11.398  17.414  0.00  0.00    +0.000 S 
ATOM      7  H   UNL     1      -0.838  11.055  17.233  0.00  0.00    +0.000 HD
ENDROOT
BRANCH   1  13
ATOM      8  O   UNL     1       3.239   8.206  17.955  0.00  0.00    +0.000 OA
ATOM      9  C   UNL     1       2.237   8.411  18.626  0.00  0.00    +0.000 C 
ATOM     10  N   UNL     1       1.529   9.586  18.585  0.00  0.00    +0.000 N 
ATOM     11  C   UNL     1       1.988  10.745  17.854  0.00  0.00    +0.000 C 
ATOM     12  C   UNL     1       1.422  11.908  18.655  0.00  0.00    +0.000 C 
ATOM     13  C   UNL     1       0.054  11.387  19.115  0.00  0.00    +0.000 C 
ATOM     14  C   UNL     1       0.322   9.883  19.348  0.00  0.00    +0.000 C 
BRANCH   9  15
ATOM     15  O   UNL     1       1.691   7.512  19.488  0.00  0.00    +0.000 OA
BRANCH  15  16
ATOM     16  C   UNL     1       2.549   6.438  19.897  0.00  0.00    +0.000 C 
BRANCH  16  17
ATOM     17  C   UNL     1       1.972   5.080  19.570  0.00  0.00    +0.000 A 
ATOM     18  C   UNL     1       2.014   4.582  18.260  0.00  0.00    +0.000 A 
ATOM     19  C   UNL     1       1.522   3.308  17.964  0.00  0.00    +0.000 A 
ATOM     20  C   UNL     1       0.977   2.516  18.973  0.00  0.00    +0.000 A 
ATOM     21  C   UNL     1       0.928   3.001  20.281  0.00  0.00    +0.000 A 
ATOM     22  C   UNL     1       1.419   4.275  20.578  0.00  0.00    +0.000 A 
ENDBRANCH  16  17
ENDBRANCH  15  16
ENDBRANCH   9  15
ENDBRANCH   1  13
BRANCH   4  23
ATOM     23  C   UNL     1      -4.620  12.773  20.959  0.00  0.00    +0.000 A 
ATOM     24  C   UNL     1      -3.919  12.746  22.180  0.00  0.00    +0.000 A 
ATOM     25  C   UNL     1      -4.504  13.221  23.360  0.00  0.00    +0.000 A 
ATOM     26  C   UNL     1      -5.800  13.717  23.314  0.00  0.00    +0.000 A 
ATOM     27  C   UNL     1      -6.505  13.733  22.114  0.00  0.00    +0.000 A 
ATOM     28  C   UNL     1      -5.931  13.267  20.937  0.00  0.00    +0.000 A 
BRANCH  26  29
ATOM     29  O   UNL     1      -6.429  14.201  24.425  0.00  0.00    +0.000 OA
ATOM     30  H   UNL     1      -6.101  15.100  24.592  0.00  0.00    +0.000 HD
ENDBRANCH  26  29
BRANCH  27  31
ATOM     31  O   UNL     1      -7.785  14.210  22.080  0.00  0.00    +0.000 OA
ATOM     32  H   UNL     1      -7.814  14.770  21.275  0.00  0.00    +0.000 HD
ENDBRANCH  27  31
ENDBRANCH   4  23
TORSDOF 7
ENDMDL
MODEL 4
REMARK VINA RESULT:      -7.5      2.236      3.117
REMARK  Name = 
REMARK  7 active torsions:
REMARK  status: ('A' for Active; 'I' for Inactive)
REMARK    1  A    between atoms: C_2  and  O_3
REMARK    2  A    between atoms: O_3  and  C_4
REMARK    3  A    between atoms: C_4  and  C_5
REMARK    4  A    between atoms: C_14  and  N_15
REMARK    5  A    between atoms: C_18  and  C_19
REMARK    6  A    between atoms: C_22  and  O_23
REMARK    7  A    between atoms: C_24  and  O_25
REMARK                            x       y       z     vdW  Elec       q    Type
REMARK                         _______ _______ _______ _____ _____    ______ ____
ROOT
ATOM      1  N   UNL     1       1.561   6.941  21.017  0.00  0.00    +0.000 N 
ATOM      2  C   UNL     1       2.047   6.098  20.077  0.00  0.00    +0.000 A 
ATOM      3  N   UNL     1       3.144   6.298  19.380  0.00  0.00    +0.000 NA
ATOM      4  C   UNL     1       3.316   5.295  18.444  0.00  0.00    +0.000 A 
ATOM      5  C   UNL     1       2.332   4.328  18.445  0.00  0.00    +0.000 A 
ATOM      6  S   UNL     1       1.183   4.666  19.669  0.00  0.00    +0.000 S 
ATOM      7  H   UNL     1       0.603   6.758  21.296  0.00  0.00    +0.000 HD
ENDROOT
BRANCH   1  13
ATOM      8  O   UNL     1      -1.758  11.189  20.675  0.00  0.00    +0.000 OA
ATOM      9  C   UNL     1      -0.863  10.666  20.025  0.00  0.00    +0.000 C 
ATOM     10  N   UNL     1       0.021   9.759  20.552  0.00  0.00    +0.000 N 
ATOM     11  C   UNL     1       0.067   9.449  21.962  0.00  0.00    +0.000 C 
ATOM     12  C   UNL     1       1.530   9.095  22.193  0.00  0.00    +0.000 C 
ATOM     13  C   UNL     1       1.921   8.357  20.906  0.00  0.00    +0.000 C 
ATOM     14  C   UNL     1       1.096   9.093  19.825  0.00  0.00    +0.000 C 
BRANCH   9  15
ATOM     15  O   UNL     1      -0.629  10.906  18.707  0.00  0.00    +0.000 OA
BRANCH  15  16
ATOM     16  C   UNL     1      -0.959  12.222  18.242  0.00  0.00    +0.000 C 
BRANCH  16  17
ATOM     17  C   UNL     1       0.160  13.212  18.466  0.00  0.00    +0.000 A 
ATOM     18  C   UNL     1       1.500  12.818  18.334  0.00  0.00    +0.000 A 
ATOM     19  C   UNL     1       2.535  13.743  18.496  0.00  0.00    +0.000 A 
ATOM     20  C   UNL     1       2.246  15.073  18.797  0.00  0.00    +0.000 A 
ATOM     21  C   UNL     1       0.918  15.477  18.933  0.00  0.00    +0.000 A 
ATOM     22  C   UNL     1      -0.119  14.553  18.772  0.00  0.00    +0.000 A 
ENDBRANCH  16  17
ENDBRANCH  15  16
ENDBRANCH   9  15
ENDBRANCH   1  13
BRANCH   4  23
ATOM     23  C   UNL     1       4.473   5.284  17.557  0.00  0.00    +0.000 A 
ATOM     24  C   UNL     1       4.609   4.248  16.614  0.00  0.00    +0.000 A 
ATOM     25  C   UNL     1       5.695   4.211  15.731  0.00  0.00    +0.000 A 
ATOM     26  C   UNL     1       6.651   5.216  15.802  0.00  0.00    +0.000 A 
ATOM     27  C   UNL     1       6.532   6.234  16.742  0.00  0.00    +0.000 A 
ATOM     28  C   UNL     1       5.456   6.281  17.620  0.00  0.00    +0.000 A 
BRANCH  26  29
ATOM     29  O   UNL     1       7.733   5.245  14.969  0.00  0.00    +0.000 OA
ATOM     30  H   UNL     1       8.007   4.329  14.797  0.00  0.00    +0.000 HD
ENDBRANCH  26  29
BRANCH  27  31
ATOM     31  O   UNL     1       7.485   7.212  16.815  0.00  0.00    +0.000 OA
ATOM     32  H   UNL     1       7.705   7.267  17.770  0.00  0.00    +0.000 HD
ENDBRANCH  27  31
ENDBRANCH   4  23
TORSDOF 7
ENDMDL
MODEL 5
REMARK VINA RESULT:      -7.4      4.164      6.799
REMARK  Name = 
REMARK  7 active torsions:
REMARK  status: ('A' for Active; 'I' for Inactive)
REMARK    1  A    between atoms: C_2  and  O_3
REMARK    2  A    between atoms: O_3  and  C_4
REMARK    3  A    between atoms: C_4  and  C_5
REMARK    4  A    between atoms: C_14  and  N_15
REMARK    5  A    between atoms: C_18  and  C_19
REMARK    6  A    between atoms: C_22  and  O_23
REMARK    7  A    between atoms: C_24  and  O_25
REMARK                            x       y       z     vdW  Elec       q    Type
REMARK                         _______ _______ _______ _____ _____    ______ ____
ROOT
ATOM      1  N   UNL     1      -2.546  12.160  17.480  0.00  0.00    +0.000 N 
ATOM      2  C   UNL     1      -1.348  11.859  18.030  0.00  0.00    +0.000 A 
ATOM      3  N   UNL     1      -0.892  10.641  18.225  0.00  0.00    +0.000 NA
ATOM      4  C   UNL     1       0.323  10.676  18.884  0.00  0.00    +0.000 A 
ATOM      5  C   UNL     1       0.783  11.942  19.182  0.00  0.00    +0.000 A 
ATOM      6  S   UNL     1      -0.316  13.116  18.594  0.00  0.00    +0.000 S 
ATOM      7  H   UNL     1      -2.842  13.123  17.605  0.00  0.00    +0.000 HD
ENDROOT
BRANCH   1  13
ATOM      8  O   UNL     1      -7.779  12.989  18.533  0.00  0.00    +0.000 OA
ATOM      9  C   UNL     1      -6.831  12.378  19.008  0.00  0.00    +0.000 C 
ATOM     10  N   UNL     1      -5.684  12.104  18.307  0.00  0.00    +0.000 N 
ATOM     11  C   UNL     1      -5.550  12.383  16.896  0.00  0.00    +0.000 C 
ATOM     12  C   UNL     1      -4.588  11.305  16.418  0.00  0.00    +0.000 C 
ATOM     13  C   UNL     1      -3.611  11.159  17.592  0.00  0.00    +0.000 C 
ATOM     14  C   UNL     1      -4.517  11.396  18.822  0.00  0.00    +0.000 C 
BRANCH   9  15
ATOM     15  O   UNL     1      -6.783  11.901  20.280  0.00  0.00    +0.000 OA
BRANCH  15  16
ATOM     16  C   UNL     1      -7.011  12.864  21.319  0.00  0.00    +0.000 C 
BRANCH  16  17
ATOM     17  C   UNL     1      -5.968  12.796  22.410  0.00  0.00    +0.000 A 
ATOM     18  C   UNL     1      -6.346  12.655  23.753  0.00  0.00    +0.000 A 
ATOM     19  C   UNL     1      -5.382  12.547  24.759  0.00  0.00    +0.000 A 
ATOM     20  C   UNL     1      -4.026  12.582  24.436  0.00  0.00    +0.000 A 
ATOM     21  C   UNL     1      -3.637  12.723  23.104  0.00  0.00    +0.000 A 
ATOM     22  C   UNL     1      -4.600  12.833  22.097  0.00  0.00    +0.000 A 
ENDBRANCH  16  17
ENDBRANCH  15  16
ENDBRANCH   9  15
ENDBRANCH   1  13
BRANCH   4  23
ATOM     23  C   UNL     1       1.041   9.448  19.203  0.00  0.00    +0.000 A 
ATOM     24  C   UNL     1       0.907   8.884  20.486  0.00  0.00    +0.000 A 
ATOM     25  C   UNL     1       1.565   7.696  20.826  0.00  0.00    +0.000 A 
ATOM     26  C   UNL     1       2.367   7.078  19.875  0.00  0.00    +0.000 A 
ATOM     27  C   UNL     1       2.517   7.637  18.611  0.00  0.00    +0.000 A 
ATOM     28  C   UNL     1       1.865   8.814  18.263  0.00  0.00    +0.000 A 
BRANCH  26  29
ATOM     29  O   UNL     1       3.033   5.915  20.137  0.00  0.00    +0.000 OA
ATOM     30  H   UNL     1       3.007   5.364  19.338  0.00  0.00    +0.000 HD
ENDBRANCH  26  29
BRANCH  27  31
ATOM     31  O   UNL     1       3.318   7.029  17.685  0.00  0.00    +0.000 OA
ATOM     32  H   UNL     1       3.206   6.070  17.858  0.00  0.00    +0.000 HD
ENDBRANCH  27  31
ENDBRANCH   4  23
TORSDOF 7
ENDMDL
MODEL 6
REMARK VINA RESULT:      -7.4      3.754     10.355
REMARK  Name = 
REMARK  7 active torsions:
REMARK  status: ('A' for Active; 'I' for Inactive)
REMARK    1  A    between atoms: C_2  and  O_3
REMARK    2  A    between atoms: O_3  and  C_4
REMARK    3  A    between atoms: C_4  and  C_5
REMARK    4  A    between atoms: C_14  and  N_15
REMARK    5  A    between atoms: C_18  and  C_19
REMARK    6  A    between atoms: C_22  and  O_23
REMARK    7  A    between atoms: C_24  and  O_25
REMARK                            x       y       z     vdW  Elec       q    Type
REMARK                         _______ _______ _______ _____ _____    ______ ____
ROOT
ATOM      1  N   UNL     1      -0.912  11.407  18.051  0.00  0.00    +0.000 N 
ATOM      2  C   UNL     1      -2.165  11.707  18.462  0.00  0.00    +0.000 A 
ATOM      3  N   UNL     1      -2.466  12.278  19.607  0.00  0.00    +0.000 NA
ATOM      4  C   UNL     1      -3.838  12.368  19.760  0.00  0.00    +0.000 A 
ATOM      5  C   UNL     1      -4.572  11.858  18.709  0.00  0.00    +0.000 A 
ATOM      6  S   UNL     1      -3.519  11.284  17.487  0.00  0.00    +0.000 S 
ATOM      7  H   UNL     1      -0.864  10.774  17.259  0.00  0.00    +0.000 HD
ENDROOT
BRANCH   1  13
ATOM      8  O   UNL     1       3.328   8.064  17.890  0.00  0.00    +0.000 OA
ATOM      9  C   UNL     1       2.332   8.253  18.575  0.00  0.00    +0.000 C 
ATOM     10  N   UNL     1       1.604   9.416  18.540  0.00  0.00    +0.000 N 
ATOM     11  C   UNL     1       2.032  10.579  17.799  0.00  0.00    +0.000 C 
ATOM     12  C   UNL     1       1.457  11.736  18.605  0.00  0.00    +0.000 C 
ATOM     13  C   UNL     1       0.105  11.192  19.084  0.00  0.00    +0.000 C 
ATOM     14  C   UNL     1       0.401   9.693  19.318  0.00  0.00    +0.000 C 
BRANCH   9  15
ATOM     15  O   UNL     1       1.814   7.347  19.446  0.00  0.00    +0.000 OA
BRANCH  15  16
ATOM     16  C   UNL     1       2.703   6.301  19.862  0.00  0.00    +0.000 C 
BRANCH  16  17
ATOM     17  C   UNL     1       2.125   4.925  19.628  0.00  0.00    +0.000 A 
ATOM     18  C   UNL     1       1.499   4.225  20.670  0.00  0.00    +0.000 A 
ATOM     19  C   UNL     1       0.924   2.971  20.444  0.00  0.00    +0.000 A 
ATOM     20  C   UNL     1       0.971   2.398  19.174  0.00  0.00    +0.000 A 
ATOM     21  C   UNL     1       1.593   3.083  18.129  0.00  0.00    +0.000 A 
ATOM     22  C   UNL     1       2.169   4.337  18.354  0.00  0.00    +0.000 A 
ENDBRANCH  16  17
ENDBRANCH  15  16
ENDBRANCH   9  15
ENDBRANCH   1  13
BRANCH   4  23
ATOM     23  C   UNL     1      -4.424  12.980  20.947  0.00  0.00    +0.000 A 
ATOM     24  C   UNL     1      -3.731  14.015  21.602  0.00  0.00    +0.000 A 
ATOM     25  C   UNL     1      -4.268  14.641  22.734  0.00  0.00    +0.000 A 
ATOM     26  C   UNL     1      -5.502  14.219  23.212  0.00  0.00    +0.000 A 
ATOM     27  C   UNL     1      -6.184  13.185  22.580  0.00  0.00    +0.000 A 
ATOM     28  C   UNL     1      -5.662  12.560  21.454  0.00  0.00    +0.000 A 
BRANCH  26  29
ATOM     29  O   UNL     1      -6.086  14.788  24.308  0.00  0.00    +0.000 OA
ATOM     30  H   UNL     1      -5.471  14.707  25.055  0.00  0.00    +0.000 HD
ENDBRANCH  26  29
BRANCH  27  31
ATOM     31  O   UNL     1      -7.392  12.766  23.065  0.00  0.00    +0.000 OA
ATOM     32  H   UNL     1      -7.407  13.089  23.991  0.00  0.00    +0.000 HD
ENDBRANCH  27  31
ENDBRANCH   4  23
TORSDOF 7
ENDMDL
MODEL 7
REMARK VINA RESULT:      -7.4      3.723     10.321
REMARK  Name = 
REMARK  7 active torsions:
REMARK  status: ('A' for Active; 'I' for Inactive)
REMARK    1  A    between atoms: C_2  and  O_3
REMARK    2  A    between atoms: O_3  and  C_4
REMARK    3  A    between atoms: C_4  and  C_5
REMARK    4  A    between atoms: C_14  and  N_15
REMARK    5  A    between atoms: C_18  and  C_19
REMARK    6  A    between atoms: C_22  and  O_23
REMARK    7  A    between atoms: C_24  and  O_25
REMARK                            x       y       z     vdW  Elec       q    Type
REMARK                         _______ _______ _______ _____ _____    ______ ____
ROOT
ATOM      1  N   UNL     1      -0.934  11.188  18.238  0.00  0.00    +0.000 N 
ATOM      2  C   UNL     1      -2.110  11.663  18.709  0.00  0.00    +0.000 A 
ATOM      3  N   UNL     1      -2.259  12.323  19.836  0.00  0.00    +0.000 NA
ATOM      4  C   UNL     1      -3.595  12.593  20.069  0.00  0.00    +0.000 A 
ATOM      5  C   UNL     1      -4.457  12.129  19.096  0.00  0.00    +0.000 A 
ATOM      6  S   UNL     1      -3.570  11.367  17.846  0.00  0.00    +0.000 S 
ATOM      7  H   UNL     1      -1.020  10.516  17.482  0.00  0.00    +0.000 HD
ENDROOT
BRANCH   1  13
ATOM      8  O   UNL     1       3.565   8.287  17.512  0.00  0.00    +0.000 OA
ATOM      9  C   UNL     1       2.570   8.279  18.225  0.00  0.00    +0.000 C 
ATOM     10  N   UNL     1       1.747   9.365  18.383  0.00  0.00    +0.000 N 
ATOM     11  C   UNL     1       2.063  10.665  17.837  0.00  0.00    +0.000 C 
ATOM     12  C   UNL     1       1.410  11.624  18.823  0.00  0.00    +0.000 C 
ATOM     13  C   UNL     1       0.117  10.897  19.217  0.00  0.00    +0.000 C 
ATOM     14  C   UNL     1       0.542   9.411  19.204  0.00  0.00    +0.000 C 
BRANCH   9  15
ATOM     15  O   UNL     1       2.147   7.204  18.942  0.00  0.00    +0.000 OA
BRANCH  15  16
ATOM     16  C   UNL     1       2.361   5.923  18.334  0.00  0.00    +0.000 C 
BRANCH  16  17
ATOM     17  C   UNL     1       2.033   4.779  19.265  0.00  0.00    +0.000 A 
ATOM     18  C   UNL     1       2.418   4.821  20.613  0.00  0.00    +0.000 A 
ATOM     19  C   UNL     1       2.075   3.785  21.486  0.00  0.00    +0.000 A 
ATOM     20  C   UNL     1       1.346   2.690  21.023  0.00  0.00    +0.000 A 
ATOM     21  C   UNL     1       0.958   2.636  19.684  0.00  0.00    +0.000 A 
ATOM     22  C   UNL     1       1.301   3.671  18.809  0.00  0.00    +0.000 A 
ENDBRANCH  16  17
ENDBRANCH  15  16
ENDBRANCH   9  15
ENDBRANCH   1  13
BRANCH   4  23
ATOM     23  C   UNL     1      -4.019  13.331  21.253  0.00  0.00    +0.000 A 
ATOM     24  C   UNL     1      -4.455  14.662  21.116  0.00  0.00    +0.000 A 
ATOM     25  C   UNL     1      -4.887  15.398  22.225  0.00  0.00    +0.000 A 
ATOM     26  C   UNL     1      -4.873  14.797  23.477  0.00  0.00    +0.000 A 
ATOM     27  C   UNL     1      -4.427  13.488  23.622  0.00  0.00    +0.000 A 
ATOM     28  C   UNL     1      -4.001  12.747  22.527  0.00  0.00    +0.000 A 
BRANCH  26  29
ATOM     29  O   UNL     1      -5.285  15.456  24.600  0.00  0.00    +0.000 OA
ATOM     30  H   UNL     1      -4.922  14.992  25.373  0.00  0.00    +0.000 HD
ENDBRANCH  26  29
BRANCH  27  31
ATOM     31  O   UNL     1      -4.404  12.907  24.860  0.00  0.00    +0.000 OA
ATOM     32  H   UNL     1      -5.158  12.280  24.849  0.00  0.00    +0.000 HD
ENDBRANCH  27  31
ENDBRANCH   4  23
TORSDOF 7
ENDMDL
MODEL 8
REMARK VINA RESULT:      -7.3      2.092      9.403
REMARK  Name = 
REMARK  7 active torsions:
REMARK  status: ('A' for Active; 'I' for Inactive)
REMARK    1  A    between atoms: C_2  and  O_3
REMARK    2  A    between atoms: O_3  and  C_4
REMARK    3  A    between atoms: C_4  and  C_5
REMARK    4  A    between atoms: C_14  and  N_15
REMARK    5  A    between atoms: C_18  and  C_19
REMARK    6  A    between atoms: C_22  and  O_23
REMARK    7  A    between atoms: C_24  and  O_25
REMARK                            x       y       z     vdW  Elec       q    Type
REMARK                         _______ _______ _______ _____ _____    ______ ____
ROOT
ATOM      1  N   UNL     1       1.825   7.118  20.922  0.00  0.00    +0.000 N 
ATOM      2  C   UNL     1       1.194   8.313  20.859  0.00  0.00    +0.000 A 
ATOM      3  N   UNL     1       0.253   8.625  19.996  0.00  0.00    +0.000 NA
ATOM      4  C   UNL     1      -0.122   9.948  20.142  0.00  0.00    +0.000 A 
ATOM      5  C   UNL     1       0.549  10.634  21.133  0.00  0.00    +0.000 A 
ATOM      6  S   UNL     1       1.651   9.588  21.922  0.00  0.00    +0.000 S 
ATOM      7  H   UNL     1       2.670   7.112  21.484  0.00  0.00    +0.000 HD
ENDROOT
BRANCH   1  13
ATOM      8  O   UNL     1       5.518   3.426  19.540  0.00  0.00    +0.000 OA
ATOM      9  C   UNL     1       5.070   4.483  19.115  0.00  0.00    +0.000 C 
ATOM     10  N   UNL     1       3.883   5.023  19.541  0.00  0.00    +0.000 N 
ATOM     11  C   UNL     1       2.981   4.320  20.424  0.00  0.00    +0.000 C 
ATOM     12  C   UNL     1       1.613   4.847  20.015  0.00  0.00    +0.000 C 
ATOM     13  C   UNL     1       1.886   6.322  19.693  0.00  0.00    +0.000 C 
ATOM     14  C   UNL     1       3.306   6.283  19.084  0.00  0.00    +0.000 C 
BRANCH   9  15
ATOM     15  O   UNL     1       5.682   5.257  18.180  0.00  0.00    +0.000 OA
BRANCH  15  16
ATOM     16  C   UNL     1       6.831   4.680  17.545  0.00  0.00    +0.000 C 
BRANCH  16  17
ATOM     17  C   UNL     1       6.661   4.551  16.049  0.00  0.00    +0.000 A 
ATOM     18  C   UNL     1       7.580   5.146  15.171  0.00  0.00    +0.000 A 
ATOM     19  C   UNL     1       7.450   4.990  13.789  0.00  0.00    +0.000 A 
ATOM     20  C   UNL     1       6.398   4.241  13.264  0.00  0.00    +0.000 A 
ATOM     21  C   UNL     1       5.477   3.646  14.126  0.00  0.00    +0.000 A 
ATOM     22  C   UNL     1       5.605   3.802  15.509  0.00  0.00    +0.000 A 
ENDBRANCH  16  17
ENDBRANCH  15  16
ENDBRANCH   9  15
ENDBRANCH   1  13
BRANCH   4  23
ATOM     23  C   UNL     1      -1.166  10.531  19.306  0.00  0.00    +0.000 A 
ATOM     24  C   UNL     1      -1.295  10.107  17.970  0.00  0.00    +0.000 A 
ATOM     25  C   UNL     1      -2.296  10.628  17.141  0.00  0.00    +0.000 A 
ATOM     26  C   UNL     1      -3.163  11.584  17.654  0.00  0.00    +0.000 A 
ATOM     27  C   UNL     1      -3.030  12.019  18.968  0.00  0.00    +0.000 A 
ATOM     28  C   UNL     1      -2.043  11.505  19.801  0.00  0.00    +0.000 A 
BRANCH  26  29
ATOM     29  O   UNL     1      -4.164  12.130  16.902  0.00  0.00    +0.000 OA
ATOM     30  H   UNL     1      -4.113  11.751  16.010  0.00  0.00    +0.000 HD
ENDBRANCH  26  29
BRANCH  27  31
ATOM     31  O   UNL     1      -3.879  12.971  19.462  0.00  0.00    +0.000 OA
ATOM     32  H   UNL     1      -3.739  12.941  20.433  0.00  0.00    +0.000 HD
ENDBRANCH  27  31
ENDBRANCH   4  23
TORSDOF 7
ENDMDL
MODEL 9
REMARK VINA RESULT:      -7.3      1.059      1.625
REMARK  Name = 
REMARK  7 active torsions:
REMARK  status: ('A' for Active; 'I' for Inactive)
REMARK    1  A    between atoms: C_2  and  O_3
REMARK    2  A    between atoms: O_3  and  C_4
REMARK    3  A    between atoms: C_4  and  C_5
REMARK    4  A    between atoms: C_14  and  N_15
REMARK    5  A    between atoms: C_18  and  C_19
REMARK    6  A    between atoms: C_22  and  O_23
REMARK    7  A    between atoms: C_24  and  O_25
REMARK                            x       y       z     vdW  Elec       q    Type
REMARK                         _______ _______ _______ _____ _____    ______ ____
ROOT
ATOM      1  N   UNL     1       1.526   7.010  21.088  0.00  0.00    +0.000 N 
ATOM      2  C   UNL     1       2.014   6.142  20.173  0.00  0.00    +0.000 A 
ATOM      3  N   UNL     1       3.094   6.338  19.449  0.00  0.00    +0.000 NA
ATOM      4  C   UNL     1       3.272   5.302  18.550  0.00  0.00    +0.000 A 
ATOM      5  C   UNL     1       2.310   4.314  18.608  0.00  0.00    +0.000 A 
ATOM      6  S   UNL     1       1.176   4.676  19.839  0.00  0.00    +0.000 S 
ATOM      7  H   UNL     1       0.577   6.818  21.393  0.00  0.00    +0.000 HD
ENDROOT
BRANCH   1  13
ATOM      8  O   UNL     1      -1.679  11.276  21.930  0.00  0.00    +0.000 OA
ATOM      9  C   UNL     1      -1.038  10.773  21.017  0.00  0.00    +0.000 C 
ATOM     10  N   UNL     1      -0.046   9.847  21.214  0.00  0.00    +0.000 N 
ATOM     11  C   UNL     1       0.434   9.489  22.529  0.00  0.00    +0.000 C 
ATOM     12  C   UNL     1       1.891   9.124  22.281  0.00  0.00    +0.000 C 
ATOM     13  C   UNL     1       1.851   8.429  20.914  0.00  0.00    +0.000 C 
ATOM     14  C   UNL     1       0.741   9.202  20.168  0.00  0.00    +0.000 C 
BRANCH   9  15
ATOM     15  O   UNL     1      -1.224  11.056  19.700  0.00  0.00    +0.000 OA
BRANCH  15  16
ATOM     16  C   UNL     1      -1.935  12.269  19.415  0.00  0.00    +0.000 C 
BRANCH  16  17
ATOM     17  C   UNL     1      -3.314  12.012  18.854  0.00  0.00    +0.000 A 
ATOM     18  C   UNL     1      -3.474  11.410  17.597  0.00  0.00    +0.000 A 
ATOM     19  C   UNL     1      -4.749  11.131  17.096  0.00  0.00    +0.000 A 
ATOM     20  C   UNL     1      -5.881  11.452  17.843  0.00  0.00    +0.000 A 
ATOM     21  C   UNL     1      -5.735  12.053  19.094  0.00  0.00    +0.000 A 
ATOM     22  C   UNL     1      -4.461  12.334  19.596  0.00  0.00    +0.000 A 
ENDBRANCH  16  17
ENDBRANCH  15  16
ENDBRANCH   9  15
ENDBRANCH   1  13
BRANCH   4  23
ATOM     23  C   UNL     1       4.413   5.281  17.642  0.00  0.00    +0.000 A 
ATOM     24  C   UNL     1       4.544   4.222  16.724  0.00  0.00    +0.000 A 
ATOM     25  C   UNL     1       5.614   4.175  15.823  0.00  0.00    +0.000 A 
ATOM     26  C   UNL     1       6.560   5.192  15.851  0.00  0.00    +0.000 A 
ATOM     27  C   UNL     1       6.446   6.233  16.766  0.00  0.00    +0.000 A 
ATOM     28  C   UNL     1       5.385   6.290  17.662  0.00  0.00    +0.000 A 
BRANCH  26  29
ATOM     29  O   UNL     1       7.626   5.211  14.997  0.00  0.00    +0.000 OA
ATOM     30  H   UNL     1       7.747   4.314  14.644  0.00  0.00    +0.000 HD
ENDBRANCH  26  29
BRANCH  27  31
ATOM     31  O   UNL     1       7.388   7.223  16.796  0.00  0.00    +0.000 OA
ATOM     32  H   UNL     1       7.161   7.797  16.034  0.00  0.00    +0.000 HD
ENDBRANCH  27  31
ENDBRANCH   4  23
TORSDOF 7
ENDMDL
