MODEL 1
REMARK VINA RESULT:      -7.2      0.000      0.000
REMARK  Name = 
REMARK  14 active torsions:
REMARK  status: ('A' for Active; 'I' for Inactive)
REMARK    1  A    between atoms: C_1  and  C_2
REMARK    2  A    between atoms: C_2  and  C_3
REMARK    3  A    between atoms: C_7  and  C_8
REMARK    4  A    between atoms: C_9  and  C_10
REMARK    5  A    between atoms: N_12  and  O_13
REMARK    6  A    between atoms: C_17  and  C_18
REMARK    7  A    between atoms: C_18  and  N_19
REMARK    8  A    between atoms: N_19  and  C_20
REMARK    9  A    between atoms: N_19  and  C_22
REMARK   10  A    between atoms: C_20  and  C_21
REMARK   11  A    between atoms: C_22  and  C_23
REMARK   12  A    between atoms: C_23  and  C_24
REMARK   13  A    between atoms: C_24  and  C_25
REMARK   14  A    between atoms: C_24  and  C_26
REMARK                            x       y       z     vdW  Elec       q    Type
REMARK                         _______ _______ _______ _____ _____    ______ ____
ROOT
ATOM      1  C   UNL     1       5.666   4.756  15.223  0.00  0.00    +0.000 A 
ATOM      2  N   UNL     1       6.355   5.947  15.198  0.00  0.00    +0.000 NA
ATOM      3  C   UNL     1       6.771   6.139  16.431  0.00  0.00    +0.000 A 
ATOM      4  C   UNL     1       7.493   7.218  17.026  0.00  0.00    +0.000 A 
ATOM      5  C   UNL     1       7.898   7.160  18.321  0.00  0.00    +0.000 A 
ATOM      6  C   UNL     1       7.682   5.908  19.066  0.00  0.00    +0.000 A 
ATOM      7  C   UNL     1       6.942   4.923  18.535  0.00  0.00    +0.000 A 
ATOM      8  N   UNL     1       6.442   5.062  17.247  0.00  0.00    +0.000 N 
ATOM      9  C   UNL     1       5.605   4.250  16.511  0.00  0.00    +0.000 A 
ENDROOT
BRANCH   1  11
ATOM     10  C   UNL     1       6.208   3.606  13.078  0.00  0.00    +0.000 C 
ATOM     11  C   UNL     1       5.112   4.173  13.969  0.00  0.00    +0.000 C 
ENDBRANCH   1  11
BRANCH   5  12
ATOM     12  C   UNL     1       8.586   8.313  18.898  0.00  0.00    +0.000 C 
ATOM     13  C   UNL     1       8.632   9.517  18.302  0.00  0.00    +0.000 C 
BRANCH  13  14
ATOM     14  C   UNL     1       9.334  10.655  18.933  0.00  0.00    +0.000 C 
ATOM     15  O   UNL     1       9.686  11.662  18.325  0.00  0.00    +0.000 OA
ATOM     16  N   UNL     1       9.577  10.467  20.270  0.00  0.00    +0.000 N 
ATOM     17  H   UNL     1       9.380   9.626  20.800  0.00  0.00    +0.000 HD
BRANCH  16  18
ATOM     18  O   UNL     1      10.322  11.471  20.924  0.00  0.00    +0.000 OA
ATOM     19  H   UNL     1      10.316  11.163  21.857  0.00  0.00    +0.000 HD
ENDBRANCH  16  18
ENDBRANCH  13  14
ENDBRANCH   5  12
BRANCH   9  20
ATOM     20  C   UNL     1       4.874   3.069  17.050  0.00  0.00    +0.000 C 
BRANCH  20  21
ATOM     21  N   UNL     1       3.495   3.356  17.487  0.00  0.00    +0.000 NA
BRANCH  21  22
ATOM     22  C   UNL     1       2.727   2.168  17.918  0.00  0.00    +0.000 C 
ATOM     23  C   UNL     1       1.306   2.395  18.430  0.00  0.00    +0.000 C 
ENDBRANCH  21  22
BRANCH  21  24
ATOM     24  C   UNL     1       3.472   4.394  18.537  0.00  0.00    +0.000 C 
BRANCH  24  25
ATOM     25  C   UNL     1       2.719   5.683  18.168  0.00  0.00    +0.000 C 
BRANCH  25  26
ATOM     26  C   UNL     1       2.666   6.750  19.275  0.00  0.00    +0.000 C 
ATOM     27  C   UNL     1       2.103   8.077  18.768  0.00  0.00    +0.000 C 
ATOM     28  C   UNL     1       1.827   6.232  20.445  0.00  0.00    +0.000 C 
ENDBRANCH  25  26
ENDBRANCH  24  25
ENDBRANCH  21  24
ENDBRANCH  20  21
ENDBRANCH   9  20
TORSDOF 10
ENDMDL
MODEL 2
REMARK VINA RESULT:      -7.1      5.478      8.782
REMARK  Name = 
REMARK  14 active torsions:
REMARK  status: ('A' for Active; 'I' for Inactive)
REMARK    1  A    between atoms: C_1  and  C_2
REMARK    2  A    between atoms: C_2  and  C_3
REMARK    3  A    between atoms: C_7  and  C_8
REMARK    4  A    between atoms: C_9  and  C_10
REMARK    5  A    between atoms: N_12  and  O_13
REMARK    6  A    between atoms: C_17  and  C_18
REMARK    7  A    between atoms: C_18  and  N_19
REMARK    8  A    between atoms: N_19  and  C_20
REMARK    9  A    between atoms: N_19  and  C_22
REMARK   10  A    between atoms: C_20  and  C_21
REMARK   11  A    between atoms: C_22  and  C_23
REMARK   12  A    between atoms: C_23  and  C_24
REMARK   13  A    between atoms: C_24  and  C_25
REMARK   14  A    between atoms: C_24  and  C_26
REMARK                            x       y       z     vdW  Elec       q    Type
REMARK                         _______ _______ _______ _____ _____    ______ ____
ROOT
ATOM      1  C   UNL     1       0.724   9.596  20.865  0.00  0.00    +0.000 A 
ATOM      2  N   UNL     1       1.188   8.383  21.320  0.00  0.00    +0.000 NA
ATOM      3  C   UNL     1       1.777   7.821  20.286  0.00  0.00    +0.000 A 
ATOM      4  C   UNL     1       2.401   6.546  20.134  0.00  0.00    +0.000 A 
ATOM      5  C   UNL     1       3.030   6.208  18.979  0.00  0.00    +0.000 A 
ATOM      6  C   UNL     1       3.160   7.230  17.927  0.00  0.00    +0.000 A 
ATOM      7  C   UNL     1       2.514   8.401  18.038  0.00  0.00    +0.000 A 
ATOM      8  N   UNL     1       1.780   8.671  19.185  0.00  0.00    +0.000 N 
ATOM      9  C   UNL     1       0.974   9.742  19.510  0.00  0.00    +0.000 A 
ENDROOT
BRANCH   1  11
ATOM     10  C   UNL     1      -0.437   9.861  23.055  0.00  0.00    +0.000 C 
ATOM     11  C   UNL     1       0.064  10.554  21.795  0.00  0.00    +0.000 C 
ENDBRANCH   1  11
BRANCH   5  12
ATOM     12  C   UNL     1       3.607   4.870  18.855  0.00  0.00    +0.000 C 
ATOM     13  C   UNL     1       3.016   3.766  19.343  0.00  0.00    +0.000 C 
BRANCH  13  14
ATOM     14  C   UNL     1       3.637   2.433  19.182  0.00  0.00    +0.000 C 
ATOM     15  O   UNL     1       3.214   1.572  18.416  0.00  0.00    +0.000 OA
ATOM     16  N   UNL     1       4.725   2.241  19.994  0.00  0.00    +0.000 N 
ATOM     17  H   UNL     1       5.065   2.886  20.698  0.00  0.00    +0.000 HD
BRANCH  16  18
ATOM     18  O   UNL     1       5.319   0.962  19.963  0.00  0.00    +0.000 OA
ATOM     19  H   UNL     1       6.023   1.040  20.644  0.00  0.00    +0.000 HD
ENDBRANCH  16  18
ENDBRANCH  13  14
ENDBRANCH   5  12
BRANCH   9  20
ATOM     20  C   UNL     1       0.558  10.813  18.562  0.00  0.00    +0.000 C 
BRANCH  20  21
ATOM     21  N   UNL     1      -0.649  11.553  18.977  0.00  0.00    +0.000 NA
BRANCH  21  22
ATOM     22  C   UNL     1      -0.709  12.950  18.494  0.00  0.00    +0.000 C 
ATOM     23  C   UNL     1      -0.291  14.051  19.467  0.00  0.00    +0.000 C 
ENDBRANCH  21  22
BRANCH  21  24
ATOM     24  C   UNL     1      -1.878  10.825  18.604  0.00  0.00    +0.000 C 
BRANCH  24  25
ATOM     25  C   UNL     1      -1.794  10.028  17.292  0.00  0.00    +0.000 C 
BRANCH  25  26
ATOM     26  C   UNL     1      -3.110   9.928  16.501  0.00  0.00    +0.000 C 
ATOM     27  C   UNL     1      -4.138  10.959  16.964  0.00  0.00    +0.000 C 
ATOM     28  C   UNL     1      -2.826  10.097  15.008  0.00  0.00    +0.000 C 
ENDBRANCH  25  26
ENDBRANCH  24  25
ENDBRANCH  21  24
ENDBRANCH  20  21
ENDBRANCH   9  20
TORSDOF 10
ENDMDL
MODEL 3
REMARK VINA RESULT:      -7.1      1.280      1.616
REMARK  Name = 
REMARK  14 active torsions:
REMARK  status: ('A' for Active; 'I' for Inactive)
REMARK    1  A    between atoms: C_1  and  C_2
REMARK    2  A    between atoms: C_2  and  C_3
REMARK    3  A    between atoms: C_7  and  C_8
REMARK    4  A    between atoms: C_9  and  C_10
REMARK    5  A    between atoms: N_12  and  O_13
REMARK    6  A    between atoms: C_17  and  C_18
REMARK    7  A    between atoms: C_18  and  N_19
REMARK    8  A    between atoms: N_19  and  C_20
REMARK    9  A    between atoms: N_19  and  C_22
REMARK   10  A    between atoms: C_20  and  C_21
REMARK   11  A    between atoms: C_22  and  C_23
REMARK   12  A    between atoms: C_23  and  C_24
REMARK   13  A    between atoms: C_24  and  C_25
REMARK   14  A    between atoms: C_24  and  C_26
REMARK                            x       y       z     vdW  Elec       q    Type
REMARK                         _______ _______ _______ _____ _____    ______ ____
ROOT
ATOM      1  C   UNL     1       5.882   4.653  15.379  0.00  0.00    +0.000 A 
ATOM      2  N   UNL     1       6.599   5.815  15.202  0.00  0.00    +0.000 NA
ATOM      3  C   UNL     1       6.933   6.209  16.413  0.00  0.00    +0.000 A 
ATOM      4  C   UNL     1       7.638   7.366  16.867  0.00  0.00    +0.000 A 
ATOM      5  C   UNL     1       7.949   7.525  18.178  0.00  0.00    +0.000 A 
ATOM      6  C   UNL     1       7.652   6.422  19.108  0.00  0.00    +0.000 A 
ATOM      7  C   UNL     1       6.927   5.369  18.699  0.00  0.00    +0.000 A 
ATOM      8  N   UNL     1       6.522   5.292  17.373  0.00  0.00    +0.000 N 
ATOM      9  C   UNL     1       5.719   4.376  16.727  0.00  0.00    +0.000 A 
ENDROOT
BRANCH   1  11
ATOM     10  C   UNL     1       6.360   3.981  13.027  0.00  0.00    +0.000 C 
ATOM     11  C   UNL     1       5.403   3.871  14.206  0.00  0.00    +0.000 C 
ENDBRANCH   1  11
BRANCH   5  12
ATOM     12  C   UNL     1       8.623   8.752  18.600  0.00  0.00    +0.000 C 
ATOM     13  C   UNL     1       8.737   9.836  17.814  0.00  0.00    +0.000 C 
BRANCH  13  14
ATOM     14  C   UNL     1       9.421  11.057  18.292  0.00  0.00    +0.000 C 
ATOM     15  O   UNL     1      10.488  11.049  18.900  0.00  0.00    +0.000 OA
ATOM     16  N   UNL     1       8.732  12.209  18.010  0.00  0.00    +0.000 N 
ATOM     17  H   UNL     1       7.814  12.266  17.583  0.00  0.00    +0.000 HD
BRANCH  16  18
ATOM     18  O   UNL     1       9.276  13.411  18.511  0.00  0.00    +0.000 OA
ATOM     19  H   UNL     1       8.716  13.582  19.299  0.00  0.00    +0.000 HD
ENDBRANCH  16  18
ENDBRANCH  13  14
ENDBRANCH   5  12
BRANCH   9  20
ATOM     20  C   UNL     1       4.925   3.313  17.403  0.00  0.00    +0.000 C 
BRANCH  20  21
ATOM     21  N   UNL     1       3.475   3.379  17.139  0.00  0.00    +0.000 NA
BRANCH  21  22
ATOM     22  C   UNL     1       2.707   2.215  17.634  0.00  0.00    +0.000 C 
ATOM     23  C   UNL     1       3.412   1.265  18.600  0.00  0.00    +0.000 C 
ENDBRANCH  21  22
BRANCH  21  24
ATOM     24  C   UNL     1       2.894   4.636  17.652  0.00  0.00    +0.000 C 
BRANCH  24  25
ATOM     25  C   UNL     1       1.533   4.489  18.353  0.00  0.00    +0.000 C 
BRANCH  25  26
ATOM     26  C   UNL     1       1.553   4.710  19.875  0.00  0.00    +0.000 C 
ATOM     27  C   UNL     1       0.978   3.517  20.637  0.00  0.00    +0.000 C 
ATOM     28  C   UNL     1       2.985   4.990  20.333  0.00  0.00    +0.000 C 
ENDBRANCH  25  26
ENDBRANCH  24  25
ENDBRANCH  21  24
ENDBRANCH  20  21
ENDBRANCH   9  20
TORSDOF 10
ENDMDL
MODEL 4
REMARK VINA RESULT:      -7.1      1.320      1.962
REMARK  Name = 
REMARK  14 active torsions:
REMARK  status: ('A' for Active; 'I' for Inactive)
REMARK    1  A    between atoms: C_1  and  C_2
REMARK    2  A    between atoms: C_2  and  C_3
REMARK    3  A    between atoms: C_7  and  C_8
REMARK    4  A    between atoms: C_9  and  C_10
REMARK    5  A    between atoms: N_12  and  O_13
REMARK    6  A    between atoms: C_17  and  C_18
REMARK    7  A    between atoms: C_18  and  N_19
REMARK    8  A    between atoms: N_19  and  C_20
REMARK    9  A    between atoms: N_19  and  C_22
REMARK   10  A    between atoms: C_20  and  C_21
REMARK   11  A    between atoms: C_22  and  C_23
REMARK   12  A    between atoms: C_23  and  C_24
REMARK   13  A    between atoms: C_24  and  C_25
REMARK   14  A    between atoms: C_24  and  C_26
REMARK                            x       y       z     vdW  Elec       q    Type
REMARK                         _______ _______ _______ _____ _____    ______ ____
ROOT
ATOM      1  C   UNL     1       5.648   4.739  15.275  0.00  0.00    +0.000 A 
ATOM      2  N   UNL     1       6.307   5.947  15.225  0.00  0.00    +0.000 NA
ATOM      3  C   UNL     1       6.763   6.148  16.443  0.00  0.00    +0.000 A 
ATOM      4  C   UNL     1       7.480   7.244  17.012  0.00  0.00    +0.000 A 
ATOM      5  C   UNL     1       7.932   7.196  18.292  0.00  0.00    +0.000 A 
ATOM      6  C   UNL     1       7.772   5.940  19.044  0.00  0.00    +0.000 A 
ATOM      7  C   UNL     1       7.037   4.938  18.540  0.00  0.00    +0.000 A 
ATOM      8  N   UNL     1       6.488   5.065  17.270  0.00  0.00    +0.000 N 
ATOM      9  C   UNL     1       5.644   4.233  16.564  0.00  0.00    +0.000 A 
ENDROOT
BRANCH   1  11
ATOM     10  C   UNL     1       6.142   3.716  13.056  0.00  0.00    +0.000 C 
ATOM     11  C   UNL     1       5.063   4.143  14.041  0.00  0.00    +0.000 C 
ENDBRANCH   1  11
BRANCH   5  12
ATOM     12  C   UNL     1       8.613   8.366  18.845  0.00  0.00    +0.000 C 
ATOM     13  C   UNL     1       8.592   9.574  18.258  0.00  0.00    +0.000 C 
BRANCH  13  14
ATOM     14  C   UNL     1       9.291  10.729  18.864  0.00  0.00    +0.000 C 
ATOM     15  O   UNL     1       9.504  10.844  20.068  0.00  0.00    +0.000 OA
ATOM     16  N   UNL     1       9.660  11.680  17.947  0.00  0.00    +0.000 N 
ATOM     17  H   UNL     1       9.440  11.672  16.958  0.00  0.00    +0.000 HD
BRANCH  16  18
ATOM     18  O   UNL     1      10.254  12.854  18.458  0.00  0.00    +0.000 OA
ATOM     19  H   UNL     1      10.277  12.674  19.423  0.00  0.00    +0.000 HD
ENDBRANCH  16  18
ENDBRANCH  13  14
ENDBRANCH   5  12
BRANCH   9  20
ATOM     20  C   UNL     1       4.961   3.035  17.128  0.00  0.00    +0.000 C 
BRANCH  20  21
ATOM     21  N   UNL     1       3.798   3.345  17.979  0.00  0.00    +0.000 NA
BRANCH  21  22
ATOM     22  C   UNL     1       2.565   3.687  17.234  0.00  0.00    +0.000 C 
ATOM     23  C   UNL     1       1.847   4.980  17.616  0.00  0.00    +0.000 C 
ENDBRANCH  21  22
BRANCH  21  24
ATOM     24  C   UNL     1       3.533   2.258  18.942  0.00  0.00    +0.000 C 
BRANCH  24  25
ATOM     25  C   UNL     1       2.232   2.400  19.749  0.00  0.00    +0.000 C 
BRANCH  25  26
ATOM     26  C   UNL     1       2.388   3.050  21.134  0.00  0.00    +0.000 C 
ATOM     27  C   UNL     1       2.204   4.566  21.081  0.00  0.00    +0.000 C 
ATOM     28  C   UNL     1       1.386   2.429  22.108  0.00  0.00    +0.000 C 
ENDBRANCH  25  26
ENDBRANCH  24  25
ENDBRANCH  21  24
ENDBRANCH  20  21
ENDBRANCH   9  20
TORSDOF 10
ENDMDL
MODEL 5
REMARK VINA RESULT:      -7.1      5.082      7.495
REMARK  Name = 
REMARK  14 active torsions:
REMARK  status: ('A' for Active; 'I' for Inactive)
REMARK    1  A    between atoms: C_1  and  C_2
REMARK    2  A    between atoms: C_2  and  C_3
REMARK    3  A    between atoms: C_7  and  C_8
REMARK    4  A    between atoms: C_9  and  C_10
REMARK    5  A    between atoms: N_12  and  O_13
REMARK    6  A    between atoms: C_17  and  C_18
REMARK    7  A    between atoms: C_18  and  N_19
REMARK    8  A    between atoms: N_19  and  C_20
REMARK    9  A    between atoms: N_19  and  C_22
REMARK   10  A    between atoms: C_20  and  C_21
REMARK   11  A    between atoms: C_22  and  C_23
REMARK   12  A    between atoms: C_23  and  C_24
REMARK   13  A    between atoms: C_24  and  C_25
REMARK   14  A    between atoms: C_24  and  C_26
REMARK                            x       y       z     vdW  Elec       q    Type
REMARK                         _______ _______ _______ _____ _____    ______ ____
ROOT
ATOM      1  C   UNL     1       3.735   7.189  17.513  0.00  0.00    +0.000 A 
ATOM      2  N   UNL     1       2.955   8.195  16.989  0.00  0.00    +0.000 NA
ATOM      3  C   UNL     1       2.118   8.527  17.949  0.00  0.00    +0.000 A 
ATOM      4  C   UNL     1       1.047   9.471  17.981  0.00  0.00    +0.000 A 
ATOM      5  C   UNL     1       0.361   9.713  19.127  0.00  0.00    +0.000 A 
ATOM      6  C   UNL     1       0.822   9.068  20.368  0.00  0.00    +0.000 A 
ATOM      7  C   UNL     1       1.778   8.128  20.328  0.00  0.00    +0.000 A 
ATOM      8  N   UNL     1       2.382   7.819  19.115  0.00  0.00    +0.000 N 
ATOM      9  C   UNL     1       3.315   6.857  18.791  0.00  0.00    +0.000 A 
ENDROOT
BRANCH   1  11
ATOM     10  C   UNL     1       6.211   7.085  17.249  0.00  0.00    +0.000 C 
ATOM     11  C   UNL     1       4.861   6.614  16.727  0.00  0.00    +0.000 C 
ENDBRANCH   1  11
BRANCH   5  12
ATOM     12  C   UNL     1      -0.762  10.649  19.095  0.00  0.00    +0.000 C 
ATOM     13  C   UNL     1      -1.816  10.504  18.275  0.00  0.00    +0.000 C 
BRANCH  13  14
ATOM     14  C   UNL     1      -2.933  11.475  18.288  0.00  0.00    +0.000 C 
ATOM     15  O   UNL     1      -3.315  12.062  19.296  0.00  0.00    +0.000 OA
ATOM     16  N   UNL     1      -3.520  11.641  17.059  0.00  0.00    +0.000 N 
ATOM     17  H   UNL     1      -3.295  11.125  16.216  0.00  0.00    +0.000 HD
BRANCH  16  18
ATOM     18  O   UNL     1      -4.649  12.485  17.007  0.00  0.00    +0.000 OA
ATOM     19  H   UNL     1      -5.345  11.883  16.662  0.00  0.00    +0.000 HD
ENDBRANCH  16  18
ENDBRANCH  13  14
ENDBRANCH   5  12
BRANCH   9  20
ATOM     20  C   UNL     1       3.763   5.764  19.699  0.00  0.00    +0.000 C 
BRANCH  20  21
ATOM     21  N   UNL     1       2.837   4.618  19.769  0.00  0.00    +0.000 NA
BRANCH  21  22
ATOM     22  C   UNL     1       2.035   4.551  21.012  0.00  0.00    +0.000 C 
ATOM     23  C   UNL     1       2.039   3.233  21.783  0.00  0.00    +0.000 C 
ENDBRANCH  21  22
BRANCH  21  24
ATOM     24  C   UNL     1       1.956   4.567  18.585  0.00  0.00    +0.000 C 
BRANCH  24  25
ATOM     25  C   UNL     1       2.425   3.627  17.461  0.00  0.00    +0.000 C 
BRANCH  25  26
ATOM     26  C   UNL     1       2.277   2.125  17.761  0.00  0.00    +0.000 C 
ATOM     27  C   UNL     1       3.514   1.553  18.453  0.00  0.00    +0.000 C 
ATOM     28  C   UNL     1       1.034   1.894  18.621  0.00  0.00    +0.000 C 
ENDBRANCH  25  26
ENDBRANCH  24  25
ENDBRANCH  21  24
ENDBRANCH  20  21
ENDBRANCH   9  20
TORSDOF 10
ENDMDL
MODEL 6
REMARK VINA RESULT:      -7.0      4.152      7.043
REMARK  Name = 
REMARK  14 active torsions:
REMARK  status: ('A' for Active; 'I' for Inactive)
REMARK    1  A    between atoms: C_1  and  C_2
REMARK    2  A    between atoms: C_2  and  C_3
REMARK    3  A    between atoms: C_7  and  C_8
REMARK    4  A    between atoms: C_9  and  C_10
REMARK    5  A    between atoms: N_12  and  O_13
REMARK    6  A    between atoms: C_17  and  C_18
REMARK    7  A    between atoms: C_18  and  N_19
REMARK    8  A    between atoms: N_19  and  C_20
REMARK    9  A    between atoms: N_19  and  C_22
REMARK   10  A    between atoms: C_20  and  C_21
REMARK   11  A    between atoms: C_22  and  C_23
REMARK   12  A    between atoms: C_23  and  C_24
REMARK   13  A    between atoms: C_24  and  C_25
REMARK   14  A    between atoms: C_24  and  C_26
REMARK                            x       y       z     vdW  Elec       q    Type
REMARK                         _______ _______ _______ _____ _____    ______ ____
ROOT
ATOM      1  C   UNL     1       3.475   3.950  18.388  0.00  0.00    +0.000 A 
ATOM      2  N   UNL     1       2.771   4.111  19.560  0.00  0.00    +0.000 NA
ATOM      3  C   UNL     1       2.529   5.402  19.649  0.00  0.00    +0.000 A 
ATOM      4  C   UNL     1       1.881   6.171  20.663  0.00  0.00    +0.000 A 
ATOM      5  C   UNL     1       1.664   7.501  20.500  0.00  0.00    +0.000 A 
ATOM      6  C   UNL     1       2.002   8.113  19.203  0.00  0.00    +0.000 A 
ATOM      7  C   UNL     1       2.675   7.410  18.279  0.00  0.00    +0.000 A 
ATOM      8  N   UNL     1       2.986   6.080  18.525  0.00  0.00    +0.000 N 
ATOM      9  C   UNL     1       3.725   5.175  17.791  0.00  0.00    +0.000 A 
ENDROOT
BRANCH   1  11
ATOM     10  C   UNL     1       3.500   1.517  18.932  0.00  0.00    +0.000 C 
ATOM     11  C   UNL     1       3.856   2.590  17.913  0.00  0.00    +0.000 C 
ENDBRANCH   1  11
BRANCH   5  12
ATOM     12  C   UNL     1       1.045   8.255  21.589  0.00  0.00    +0.000 C 
ATOM     13  C   UNL     1       0.439   9.441  21.412  0.00  0.00    +0.000 C 
BRANCH  13  14
ATOM     14  C   UNL     1      -0.180  10.160  22.547  0.00  0.00    +0.000 C 
ATOM     15  O   UNL     1       0.064   9.915  23.725  0.00  0.00    +0.000 OA
ATOM     16  N   UNL     1      -1.080  11.118  22.154  0.00  0.00    +0.000 N 
ATOM     17  H   UNL     1      -1.376  11.304  21.203  0.00  0.00    +0.000 HD
BRANCH  16  18
ATOM     18  O   UNL     1      -1.779  11.787  23.181  0.00  0.00    +0.000 OA
ATOM     19  H   UNL     1      -1.049  12.127  23.745  0.00  0.00    +0.000 HD
ENDBRANCH  16  18
ENDBRANCH  13  14
ENDBRANCH   5  12
BRANCH   9  20
ATOM     20  C   UNL     1       4.542   5.515  16.593  0.00  0.00    +0.000 C 
BRANCH  20  21
ATOM     21  N   UNL     1       5.997   5.510  16.831  0.00  0.00    +0.000 NA
BRANCH  21  22
ATOM     22  C   UNL     1       6.391   5.769  18.234  0.00  0.00    +0.000 C 
ATOM     23  C   UNL     1       7.809   5.382  18.650  0.00  0.00    +0.000 C 
ENDBRANCH  21  22
BRANCH  21  24
ATOM     24  C   UNL     1       6.616   4.261  16.344  0.00  0.00    +0.000 C 
BRANCH  24  25
ATOM     25  C   UNL     1       5.943   3.635  15.111  0.00  0.00    +0.000 C 
BRANCH  25  26
ATOM     26  C   UNL     1       6.194   4.373  13.784  0.00  0.00    +0.000 C 
ATOM     27  C   UNL     1       7.594   4.983  13.721  0.00  0.00    +0.000 C 
ATOM     28  C   UNL     1       5.983   3.410  12.615  0.00  0.00    +0.000 C 
ENDBRANCH  25  26
ENDBRANCH  24  25
ENDBRANCH  21  24
ENDBRANCH  20  21
ENDBRANCH   9  20
TORSDOF 10
ENDMDL
MODEL 7
REMARK VINA RESULT:      -7.0      1.434      2.540
REMARK  Name = 
REMARK  14 active torsions:
REMARK  status: ('A' for Active; 'I' for Inactive)
REMARK    1  A    between atoms: C_1  and  C_2
REMARK    2  A    between atoms: C_2  and  C_3
REMARK    3  A    between atoms: C_7  and  C_8
REMARK    4  A    between atoms: C_9  and  C_10
REMARK    5  A    between atoms: N_12  and  O_13
REMARK    6  A    between atoms: C_17  and  C_18
REMARK    7  A    between atoms: C_18  and  N_19
REMARK    8  A    between atoms: N_19  and  C_20
REMARK    9  A    between atoms: N_19  and  C_22
REMARK   10  A    between atoms: C_20  and  C_21
REMARK   11  A    between atoms: C_22  and  C_23
REMARK   12  A    between atoms: C_23  and  C_24
REMARK   13  A    between atoms: C_24  and  C_25
REMARK   14  A    between atoms: C_24  and  C_26
REMARK                            x       y       z     vdW  Elec       q    Type
REMARK                         _______ _______ _______ _____ _____    ______ ____
ROOT
ATOM      1  C   UNL     1       5.815   5.099  16.111  0.00  0.00    +0.000 A 
ATOM      2  N   UNL     1       6.398   6.309  15.811  0.00  0.00    +0.000 NA
ATOM      3  C   UNL     1       6.986   6.701  16.921  0.00  0.00    +0.000 A 
ATOM      4  C   UNL     1       7.708   7.892  17.236  0.00  0.00    +0.000 A 
ATOM      5  C   UNL     1       8.313   8.046  18.442  0.00  0.00    +0.000 A 
ATOM      6  C   UNL     1       8.312   6.907  19.376  0.00  0.00    +0.000 A 
ATOM      7  C   UNL     1       7.576   5.817  19.113  0.00  0.00    +0.000 A 
ATOM      8  N   UNL     1       6.872   5.740  17.919  0.00  0.00    +0.000 N 
ATOM      9  C   UNL     1       5.994   4.785  17.449  0.00  0.00    +0.000 A 
ENDROOT
BRANCH   1  11
ATOM     10  C   UNL     1       6.063   3.911  13.934  0.00  0.00    +0.000 C 
ATOM     11  C   UNL     1       5.117   4.311  15.057  0.00  0.00    +0.000 C 
ENDBRANCH   1  11
BRANCH   5  12
ATOM     12  C   UNL     1       8.993   9.306  18.736  0.00  0.00    +0.000 C 
ATOM     13  C   UNL     1       8.973  10.364  17.907  0.00  0.00    +0.000 C 
BRANCH  13  14
ATOM     14  C   UNL     1       9.670  11.621  18.255  0.00  0.00    +0.000 C 
ATOM     15  O   UNL     1       9.240  12.438  19.064  0.00  0.00    +0.000 OA
ATOM     16  N   UNL     1      10.841  11.799  17.564  0.00  0.00    +0.000 N 
ATOM     17  H   UNL     1      11.199  11.198  16.832  0.00  0.00    +0.000 HD
BRANCH  16  18
ATOM     18  O   UNL     1      11.521  13.018  17.776  0.00  0.00    +0.000 OA
ATOM     19  H   UNL     1      11.676  13.334  16.859  0.00  0.00    +0.000 HD
ENDBRANCH  16  18
ENDBRANCH  13  14
ENDBRANCH   5  12
BRANCH   9  20
ATOM     20  C   UNL     1       5.449   3.658  18.255  0.00  0.00    +0.000 C 
BRANCH  20  21
ATOM     21  N   UNL     1       4.553   4.074  19.351  0.00  0.00    +0.000 NA
BRANCH  21  22
ATOM     22  C   UNL     1       3.519   5.057  18.959  0.00  0.00    +0.000 C 
ATOM     23  C   UNL     1       2.686   5.685  20.074  0.00  0.00    +0.000 C 
ENDBRANCH  21  22
BRANCH  21  24
ATOM     24  C   UNL     1       3.932   2.906  20.007  0.00  0.00    +0.000 C 
BRANCH  24  25
ATOM     25  C   UNL     1       2.932   2.123  19.140  0.00  0.00    +0.000 C 
BRANCH  25  26
ATOM     26  C   UNL     1       1.505   2.031  19.708  0.00  0.00    +0.000 C 
ATOM     27  C   UNL     1       1.408   2.619  21.115  0.00  0.00    +0.000 C 
ATOM     28  C   UNL     1       0.532   2.744  18.768  0.00  0.00    +0.000 C 
ENDBRANCH  25  26
ENDBRANCH  24  25
ENDBRANCH  21  24
ENDBRANCH  20  21
ENDBRANCH   9  20
TORSDOF 10
ENDMDL
MODEL 8
REMARK VINA RESULT:      -7.0      3.963      6.446
REMARK  Name = 
REMARK  14 active torsions:
REMARK  status: ('A' for Active; 'I' for Inactive)
REMARK    1  A    between atoms: C_1  and  C_2
REMARK    2  A    between atoms: C_2  and  C_3
REMARK    3  A    between atoms: C_7  and  C_8
REMARK    4  A    between atoms: C_9  and  C_10
REMARK    5  A    between atoms: N_12  and  O_13
REMARK    6  A    between atoms: C_17  and  C_18
REMARK    7  A    between atoms: C_18  and  N_19
REMARK    8  A    between atoms: N_19  and  C_20
REMARK    9  A    between atoms: N_19  and  C_22
REMARK   10  A    between atoms: C_20  and  C_21
REMARK   11  A    between atoms: C_22  and  C_23
REMARK   12  A    between atoms: C_23  and  C_24
REMARK   13  A    between atoms: C_24  and  C_25
REMARK   14  A    between atoms: C_24  and  C_26
REMARK                            x       y       z     vdW  Elec       q    Type
REMARK                         _______ _______ _______ _____ _____    ______ ____
ROOT
ATOM      1  C   UNL     1       3.311   3.629  18.002  0.00  0.00    +0.000 A 
ATOM      2  N   UNL     1       2.631   3.852  19.177  0.00  0.00    +0.000 NA
ATOM      3  C   UNL     1       2.548   5.160  19.292  0.00  0.00    +0.000 A 
ATOM      4  C   UNL     1       1.997   5.983  20.321  0.00  0.00    +0.000 A 
ATOM      5  C   UNL     1       1.943   7.333  20.184  0.00  0.00    +0.000 A 
ATOM      6  C   UNL     1       2.354   7.923  18.899  0.00  0.00    +0.000 A 
ATOM      7  C   UNL     1       2.938   7.162  17.960  0.00  0.00    +0.000 A 
ATOM      8  N   UNL     1       3.085   5.799  18.181  0.00  0.00    +0.000 N 
ATOM      9  C   UNL     1       3.709   4.825  17.429  0.00  0.00    +0.000 A 
ENDROOT
BRANCH   1  11
ATOM     10  C   UNL     1       3.696   1.250  18.642  0.00  0.00    +0.000 C 
ATOM     11  C   UNL     1       3.525   2.242  17.500  0.00  0.00    +0.000 C 
ENDBRANCH   1  11
BRANCH   5  12
ATOM     12  C   UNL     1       1.419   8.135  21.288  0.00  0.00    +0.000 C 
ATOM     13  C   UNL     1       0.567   9.159  21.114  0.00  0.00    +0.000 C 
BRANCH  13  14
ATOM     14  C   UNL     1       0.059   9.934  22.267  0.00  0.00    +0.000 C 
ATOM     15  O   UNL     1      -0.218   9.437  23.355  0.00  0.00    +0.000 OA
ATOM     16  N   UNL     1      -0.097  11.269  21.995  0.00  0.00    +0.000 N 
ATOM     17  H   UNL     1       0.041  11.715  21.095  0.00  0.00    +0.000 HD
BRANCH  16  18
ATOM     18  O   UNL     1      -0.661  12.061  23.018  0.00  0.00    +0.000 OA
ATOM     19  H   UNL     1      -0.797  12.923  22.565  0.00  0.00    +0.000 HD
ENDBRANCH  16  18
ENDBRANCH  13  14
ENDBRANCH   5  12
BRANCH   9  20
ATOM     20  C   UNL     1       4.563   5.087  16.236  0.00  0.00    +0.000 C 
BRANCH  20  21
ATOM     21  N   UNL     1       5.739   4.203  16.128  0.00  0.00    +0.000 NA
BRANCH  21  22
ATOM     22  C   UNL     1       5.816   3.435  14.865  0.00  0.00    +0.000 C 
ATOM     23  C   UNL     1       6.262   4.185  13.611  0.00  0.00    +0.000 C 
ENDBRANCH  21  22
BRANCH  21  24
ATOM     24  C   UNL     1       6.992   4.949  16.355  0.00  0.00    +0.000 C 
BRANCH  24  25
ATOM     25  C   UNL     1       7.746   4.586  17.645  0.00  0.00    +0.000 C 
BRANCH  25  26
ATOM     26  C   UNL     1       7.707   5.658  18.749  0.00  0.00    +0.000 C 
ATOM     27  C   UNL     1       7.836   7.071  18.182  0.00  0.00    +0.000 C 
ATOM     28  C   UNL     1       6.410   5.524  19.547  0.00  0.00    +0.000 C 
ENDBRANCH  25  26
ENDBRANCH  24  25
ENDBRANCH  21  24
ENDBRANCH  20  21
ENDBRANCH   9  20
TORSDOF 10
ENDMDL
MODEL 9
REMARK VINA RESULT:      -6.9      4.240      6.928
REMARK  Name = 
REMARK  14 active torsions:
REMARK  status: ('A' for Active; 'I' for Inactive)
REMARK    1  A    between atoms: C_1  and  C_2
REMARK    2  A    between atoms: C_2  and  C_3
REMARK    3  A    between atoms: C_7  and  C_8
REMARK    4  A    between atoms: C_9  and  C_10
REMARK    5  A    between atoms: N_12  and  O_13
REMARK    6  A    between atoms: C_17  and  C_18
REMARK    7  A    between atoms: C_18  and  N_19
REMARK    8  A    between atoms: N_19  and  C_20
REMARK    9  A    between atoms: N_19  and  C_22
REMARK   10  A    between atoms: C_20  and  C_21
REMARK   11  A    between atoms: C_22  and  C_23
REMARK   12  A    between atoms: C_23  and  C_24
REMARK   13  A    between atoms: C_24  and  C_25
REMARK   14  A    between atoms: C_24  and  C_26
REMARK                            x       y       z     vdW  Elec       q    Type
REMARK                         _______ _______ _______ _____ _____    ______ ____
ROOT
ATOM      1  C   UNL     1       2.617   4.659  20.648  0.00  0.00    +0.000 A 
ATOM      2  N   UNL     1       1.683   5.577  21.073  0.00  0.00    +0.000 NA
ATOM      3  C   UNL     1       1.836   6.622  20.288  0.00  0.00    +0.000 A 
ATOM      4  C   UNL     1       1.188   7.894  20.274  0.00  0.00    +0.000 A 
ATOM      5  C   UNL     1       1.450   8.803  19.300  0.00  0.00    +0.000 A 
ATOM      6  C   UNL     1       2.329   8.404  18.188  0.00  0.00    +0.000 A 
ATOM      7  C   UNL     1       2.994   7.240  18.235  0.00  0.00    +0.000 A 
ATOM      8  N   UNL     1       2.792   6.381  19.307  0.00  0.00    +0.000 N 
ATOM      9  C   UNL     1       3.398   5.185  19.632  0.00  0.00    +0.000 A 
ENDROOT
BRANCH   1  11
ATOM     10  C   UNL     1       1.297   2.708  21.464  0.00  0.00    +0.000 C 
ATOM     11  C   UNL     1       2.683   3.304  21.264  0.00  0.00    +0.000 C 
ENDBRANCH   1  11
BRANCH   5  12
ATOM     12  C   UNL     1       0.801  10.112  19.362  0.00  0.00    +0.000 C 
ATOM     13  C   UNL     1      -0.343  10.396  18.717  0.00  0.00    +0.000 C 
BRANCH  13  14
ATOM     14  C   UNL     1      -0.965  11.734  18.819  0.00  0.00    +0.000 C 
ATOM     15  O   UNL     1      -1.992  11.963  19.452  0.00  0.00    +0.000 OA
ATOM     16  N   UNL     1      -0.292  12.699  18.114  0.00  0.00    +0.000 N 
ATOM     17  H   UNL     1       0.510  12.549  17.514  0.00  0.00    +0.000 HD
BRANCH  16  18
ATOM     18  O   UNL     1      -0.873  13.986  18.091  0.00  0.00    +0.000 OA
ATOM     19  H   UNL     1      -0.550  14.377  18.932  0.00  0.00    +0.000 HD
ENDBRANCH  16  18
ENDBRANCH  13  14
ENDBRANCH   5  12
BRANCH   9  20
ATOM     20  C   UNL     1       4.596   4.623  18.948  0.00  0.00    +0.000 C 
BRANCH  20  21
ATOM     21  N   UNL     1       4.288   3.803  17.762  0.00  0.00    +0.000 NA
BRANCH  21  22
ATOM     22  C   UNL     1       2.844   3.588  17.522  0.00  0.00    +0.000 C 
ATOM     23  C   UNL     1       2.293   2.182  17.752  0.00  0.00    +0.000 C 
ENDBRANCH  21  22
BRANCH  21  24
ATOM     24  C   UNL     1       4.936   4.347  16.552  0.00  0.00    +0.000 C 
BRANCH  24  25
ATOM     25  C   UNL     1       5.500   5.770  16.695  0.00  0.00    +0.000 C 
BRANCH  25  26
ATOM     26  C   UNL     1       7.035   5.873  16.659  0.00  0.00    +0.000 C 
ATOM     27  C   UNL     1       7.552   7.039  17.500  0.00  0.00    +0.000 C 
ATOM     28  C   UNL     1       7.648   4.558  17.143  0.00  0.00    +0.000 C 
ENDBRANCH  25  26
ENDBRANCH  24  25
ENDBRANCH  21  24
ENDBRANCH  20  21
ENDBRANCH   9  20
TORSDOF 10
ENDMDL
