MODEL 1
REMARK VINA RESULT:      -6.4      0.000      0.000
REMARK  Name = 
REMARK  5 active torsions:
REMARK  status: ('A' for Active; 'I' for Inactive)
REMARK    1  A    between atoms: C_1  and  N_2
REMARK    2  A    between atoms: N_2  and  C_3
REMARK    3  A    between atoms: N_2  and  N_4
REMARK    4  A    between atoms: N_5  and  C_6
REMARK    5  A    between atoms: C_9  and  C_10
REMARK                            x       y       z     vdW  Elec       q    Type
REMARK                         _______ _______ _______ _____ _____    ______ ____
ROOT
ATOM      1  C   UNL     1       4.019   5.433  17.946  0.00  0.00    +0.000 A 
ATOM      2  C   UNL     1       4.177   4.123  17.481  0.00  0.00    +0.000 A 
ATOM      3  C   UNL     1       4.851   3.855  16.283  0.00  0.00    +0.000 A 
ATOM      4  C   UNL     1       5.381   4.887  15.491  0.00  0.00    +0.000 A 
ATOM      5  C   UNL     1       5.205   6.202  15.961  0.00  0.00    +0.000 A 
ATOM      6  C   UNL     1       4.538   6.468  17.166  0.00  0.00    +0.000 A 
ENDROOT
BRANCH   4   7
ATOM      7  C   UNL     1       6.089   4.601  14.221  0.00  0.00    +0.000 A 
ATOM      8  C   UNL     1       7.259   5.297  13.859  0.00  0.00    +0.000 A 
ATOM      9  C   UNL     1       7.914   5.053  12.648  0.00  0.00    +0.000 A 
ATOM     10  C   UNL     1       7.424   4.090  11.772  0.00  0.00    +0.000 A 
ATOM     11  C   UNL     1       6.278   3.375  12.109  0.00  0.00    +0.000 A 
ATOM     12  C   UNL     1       5.618   3.631  13.316  0.00  0.00    +0.000 A 
ENDBRANCH   4   7
BRANCH   1  14
ATOM     13  N   UNL     1       3.072   4.561  19.746  0.00  0.00    +0.000 NA
ATOM     14  N   UNL     1       3.295   5.630  19.143  0.00  0.00    +0.000 NA
BRANCH  13  16
ATOM     15  C   UNL     1       2.099   3.495  21.630  0.00  0.00    +0.000 C 
ATOM     16  N   UNL     1       2.361   4.727  20.910  0.00  0.00    +0.000 N 
ATOM     17  C   UNL     1       1.434   5.840  21.055  0.00  0.00    +0.000 C 
ENDBRANCH  13  16
ENDBRANCH   1  14
TORSDOF 3
ENDMDL
MODEL 2
REMARK VINA RESULT:      -6.4      0.330      1.484
REMARK  Name = 
REMARK  5 active torsions:
REMARK  status: ('A' for Active; 'I' for Inactive)
REMARK    1  A    between atoms: C_1  and  N_2
REMARK    2  A    between atoms: N_2  and  C_3
REMARK    3  A    between atoms: N_2  and  N_4
REMARK    4  A    between atoms: N_5  and  C_6
REMARK    5  A    between atoms: C_9  and  C_10
REMARK                            x       y       z     vdW  Elec       q    Type
REMARK                         _______ _______ _______ _____ _____    ______ ____
ROOT
ATOM      1  C   UNL     1       4.197   5.082  18.115  0.00  0.00    +0.000 A 
ATOM      2  C   UNL     1       4.451   3.804  17.605  0.00  0.00    +0.000 A 
ATOM      3  C   UNL     1       5.070   3.629  16.361  0.00  0.00    +0.000 A 
ATOM      4  C   UNL     1       5.446   4.725  15.567  0.00  0.00    +0.000 A 
ATOM      5  C   UNL     1       5.175   6.006  16.083  0.00  0.00    +0.000 A 
ATOM      6  C   UNL     1       4.564   6.179  17.334  0.00  0.00    +0.000 A 
ENDROOT
BRANCH   4   7
ATOM      7  C   UNL     1       6.097   4.537  14.248  0.00  0.00    +0.000 A 
ATOM      8  C   UNL     1       5.594   3.619  13.306  0.00  0.00    +0.000 A 
ATOM      9  C   UNL     1       6.221   3.415  12.072  0.00  0.00    +0.000 A 
ATOM     10  C   UNL     1       7.361   4.140  11.742  0.00  0.00    +0.000 A 
ATOM     11  C   UNL     1       7.873   5.065  12.646  0.00  0.00    +0.000 A 
ATOM     12  C   UNL     1       7.249   5.258  13.885  0.00  0.00    +0.000 A 
ENDBRANCH   4   7
BRANCH   1  14
ATOM     13  N   UNL     1       2.511   4.471  19.410  0.00  0.00    +0.000 NA
ATOM     14  N   UNL     1       3.535   5.181  19.359  0.00  0.00    +0.000 NA
BRANCH  13  16
ATOM     15  C   UNL     1       1.449   5.905  20.976  0.00  0.00    +0.000 C 
ATOM     16  N   UNL     1       1.845   4.559  20.609  0.00  0.00    +0.000 N 
ATOM     17  C   UNL     1       2.092   3.585  21.662  0.00  0.00    +0.000 C 
ENDBRANCH  13  16
ENDBRANCH   1  14
TORSDOF 3
ENDMDL
MODEL 3
REMARK VINA RESULT:      -6.4      2.891      7.300
REMARK  Name = 
REMARK  5 active torsions:
REMARK  status: ('A' for Active; 'I' for Inactive)
REMARK    1  A    between atoms: C_1  and  N_2
REMARK    2  A    between atoms: N_2  and  C_3
REMARK    3  A    between atoms: N_2  and  N_4
REMARK    4  A    between atoms: N_5  and  C_6
REMARK    5  A    between atoms: C_9  and  C_10
REMARK                            x       y       z     vdW  Elec       q    Type
REMARK                         _______ _______ _______ _____ _____    ______ ____
ROOT
ATOM      1  C   UNL     1       5.344   5.234  15.761  0.00  0.00    +0.000 A 
ATOM      2  C   UNL     1       5.168   3.884  16.081  0.00  0.00    +0.000 A 
ATOM      3  C   UNL     1       4.411   3.495  17.193  0.00  0.00    +0.000 A 
ATOM      4  C   UNL     1       3.812   4.440  18.041  0.00  0.00    +0.000 A 
ATOM      5  C   UNL     1       4.006   5.796  17.718  0.00  0.00    +0.000 A 
ATOM      6  C   UNL     1       4.757   6.184  16.598  0.00  0.00    +0.000 A 
ENDROOT
BRANCH   4   7
ATOM      7  C   UNL     1       3.015   4.026  19.221  0.00  0.00    +0.000 A 
ATOM      8  C   UNL     1       3.488   3.050  20.119  0.00  0.00    +0.000 A 
ATOM      9  C   UNL     1       2.727   2.632  21.216  0.00  0.00    +0.000 A 
ATOM     10  C   UNL     1       1.478   3.195  21.453  0.00  0.00    +0.000 A 
ATOM     11  C   UNL     1       0.991   4.173  20.591  0.00  0.00    +0.000 A 
ATOM     12  C   UNL     1       1.749   4.579  19.487  0.00  0.00    +0.000 A 
ENDBRANCH   4   7
BRANCH   1  14
ATOM     13  N   UNL     1       6.415   4.554  13.948  0.00  0.00    +0.000 NA
ATOM     14  N   UNL     1       6.152   5.553  14.647  0.00  0.00    +0.000 NA
BRANCH  13  16
ATOM     15  C   UNL     1       7.144   3.850  11.802  0.00  0.00    +0.000 C 
ATOM     16  N   UNL     1       7.208   4.838  12.863  0.00  0.00    +0.000 N 
ATOM     17  C   UNL     1       8.422   5.624  13.022  0.00  0.00    +0.000 C 
ENDBRANCH  13  16
ENDBRANCH   1  14
TORSDOF 3
ENDMDL
MODEL 4
REMARK VINA RESULT:      -6.4      2.894      7.319
REMARK  Name = 
REMARK  5 active torsions:
REMARK  status: ('A' for Active; 'I' for Inactive)
REMARK    1  A    between atoms: C_1  and  N_2
REMARK    2  A    between atoms: N_2  and  C_3
REMARK    3  A    between atoms: N_2  and  N_4
REMARK    4  A    between atoms: N_5  and  C_6
REMARK    5  A    between atoms: C_9  and  C_10
REMARK                            x       y       z     vdW  Elec       q    Type
REMARK                         _______ _______ _______ _____ _____    ______ ____
ROOT
ATOM      1  C   UNL     1       5.376   5.145  15.798  0.00  0.00    +0.000 A 
ATOM      2  C   UNL     1       5.129   3.795  16.069  0.00  0.00    +0.000 A 
ATOM      3  C   UNL     1       4.353   3.405  17.167  0.00  0.00    +0.000 A 
ATOM      4  C   UNL     1       3.804   4.349  18.051  0.00  0.00    +0.000 A 
ATOM      5  C   UNL     1       4.069   5.704  17.778  0.00  0.00    +0.000 A 
ATOM      6  C   UNL     1       4.839   6.093  16.671  0.00  0.00    +0.000 A 
ENDROOT
BRANCH   4   7
ATOM      7  C   UNL     1       2.987   3.934  19.217  0.00  0.00    +0.000 A 
ATOM      8  C   UNL     1       1.684   4.431  19.414  0.00  0.00    +0.000 A 
ATOM      9  C   UNL     1       0.920   4.067  20.528  0.00  0.00    +0.000 A 
ATOM     10  C   UNL     1       1.436   3.180  21.466  0.00  0.00    +0.000 A 
ATOM     11  C   UNL     1       2.715   2.660  21.290  0.00  0.00    +0.000 A 
ATOM     12  C   UNL     1       3.481   3.036  20.181  0.00  0.00    +0.000 A 
ENDBRANCH   4   7
BRANCH   1  14
ATOM     13  N   UNL     1       6.348   4.495  13.920  0.00  0.00    +0.000 NA
ATOM     14  N   UNL     1       6.199   5.461  14.695  0.00  0.00    +0.000 NA
BRANCH  13  16
ATOM     15  C   UNL     1       7.163   3.748  11.820  0.00  0.00    +0.000 C 
ATOM     16  N   UNL     1       7.153   4.777  12.843  0.00  0.00    +0.000 N 
ATOM     17  C   UNL     1       8.325   5.626  13.000  0.00  0.00    +0.000 C 
ENDBRANCH  13  16
ENDBRANCH   1  14
TORSDOF 3
ENDMDL
MODEL 5
REMARK VINA RESULT:      -6.3      3.109      7.349
REMARK  Name = 
REMARK  5 active torsions:
REMARK  status: ('A' for Active; 'I' for Inactive)
REMARK    1  A    between atoms: C_1  and  N_2
REMARK    2  A    between atoms: N_2  and  C_3
REMARK    3  A    between atoms: N_2  and  N_4
REMARK    4  A    between atoms: N_5  and  C_6
REMARK    5  A    between atoms: C_9  and  C_10
REMARK                            x       y       z     vdW  Elec       q    Type
REMARK                         _______ _______ _______ _____ _____    ______ ____
ROOT
ATOM      1  C   UNL     1       5.350   4.584  15.633  0.00  0.00    +0.000 A 
ATOM      2  C   UNL     1       5.317   5.982  15.667  0.00  0.00    +0.000 A 
ATOM      3  C   UNL     1       4.542   6.666  16.612  0.00  0.00    +0.000 A 
ATOM      4  C   UNL     1       3.755   5.981  17.552  0.00  0.00    +0.000 A 
ATOM      5  C   UNL     1       3.785   4.575  17.501  0.00  0.00    +0.000 A 
ATOM      6  C   UNL     1       4.570   3.891  16.560  0.00  0.00    +0.000 A 
ENDROOT
BRANCH   4   7
ATOM      7  C   UNL     1       2.931   6.707  18.548  0.00  0.00    +0.000 A 
ATOM      8  C   UNL     1       2.478   8.019  18.309  0.00  0.00    +0.000 A 
ATOM      9  C   UNL     1       1.727   8.721  19.257  0.00  0.00    +0.000 A 
ATOM     10  C   UNL     1       1.394   8.120  20.466  0.00  0.00    +0.000 A 
ATOM     11  C   UNL     1       1.814   6.818  20.724  0.00  0.00    +0.000 A 
ATOM     12  C   UNL     1       2.576   6.124  19.778  0.00  0.00    +0.000 A 
ENDBRANCH   4   7
BRANCH   1  14
ATOM     13  N   UNL     1       5.532   3.917  13.532  0.00  0.00    +0.000 NA
ATOM     14  N   UNL     1       6.125   3.963  14.628  0.00  0.00    +0.000 NA
BRANCH  13  16
ATOM     15  C   UNL     1       7.346   4.118  12.014  0.00  0.00    +0.000 C 
ATOM     16  N   UNL     1       6.263   3.308  12.540  0.00  0.00    +0.000 N 
ATOM     17  C   UNL     1       5.648   2.308  11.679  0.00  0.00    +0.000 C 
ENDBRANCH  13  16
ENDBRANCH   1  14
TORSDOF 3
ENDMDL
MODEL 6
REMARK VINA RESULT:      -6.3      3.074      7.402
REMARK  Name = 
REMARK  5 active torsions:
REMARK  status: ('A' for Active; 'I' for Inactive)
REMARK    1  A    between atoms: C_1  and  N_2
REMARK    2  A    between atoms: N_2  and  C_3
REMARK    3  A    between atoms: N_2  and  N_4
REMARK    4  A    between atoms: N_5  and  C_6
REMARK    5  A    between atoms: C_9  and  C_10
REMARK                            x       y       z     vdW  Elec       q    Type
REMARK                         _______ _______ _______ _____ _____    ______ ____
ROOT
ATOM      1  C   UNL     1       6.377   4.585  16.181  0.00  0.00    +0.000 A 
ATOM      2  C   UNL     1       5.048   4.210  15.961  0.00  0.00    +0.000 A 
ATOM      3  C   UNL     1       4.167   4.001  17.030  0.00  0.00    +0.000 A 
ATOM      4  C   UNL     1       4.583   4.142  18.364  0.00  0.00    +0.000 A 
ATOM      5  C   UNL     1       5.926   4.506  18.575  0.00  0.00    +0.000 A 
ATOM      6  C   UNL     1       6.804   4.725  17.502  0.00  0.00    +0.000 A 
ENDROOT
BRANCH   4   7
ATOM      7  C   UNL     1       3.650   3.915  19.493  0.00  0.00    +0.000 A 
ATOM      8  C   UNL     1       2.732   4.903  19.896  0.00  0.00    +0.000 A 
ATOM      9  C   UNL     1       1.870   4.706  20.981  0.00  0.00    +0.000 A 
ATOM     10  C   UNL     1       1.894   3.505  21.680  0.00  0.00    +0.000 A 
ATOM     11  C   UNL     1       2.780   2.503  21.295  0.00  0.00    +0.000 A 
ATOM     12  C   UNL     1       3.649   2.709  20.218  0.00  0.00    +0.000 A 
ENDBRANCH   4   7
BRANCH   1  14
ATOM     13  N   UNL     1       6.663   4.392  13.996  0.00  0.00    +0.000 NA
ATOM     14  N   UNL     1       7.218   4.741  15.057  0.00  0.00    +0.000 NA
BRANCH  13  16
ATOM     15  C   UNL     1       8.264   5.738  12.874  0.00  0.00    +0.000 C 
ATOM     16  N   UNL     1       7.465   4.527  12.888  0.00  0.00    +0.000 N 
ATOM     17  C   UNL     1       7.082   3.920  11.622  0.00  0.00    +0.000 C 
ENDBRANCH  13  16
ENDBRANCH   1  14
TORSDOF 3
ENDMDL
MODEL 7
REMARK VINA RESULT:      -6.2      3.923      5.675
REMARK  Name = 
REMARK  5 active torsions:
REMARK  status: ('A' for Active; 'I' for Inactive)
REMARK    1  A    between atoms: C_1  and  N_2
REMARK    2  A    between atoms: N_2  and  C_3
REMARK    3  A    between atoms: N_2  and  N_4
REMARK    4  A    between atoms: N_5  and  C_6
REMARK    5  A    between atoms: C_9  and  C_10
REMARK                            x       y       z     vdW  Elec       q    Type
REMARK                         _______ _______ _______ _____ _____    ______ ____
ROOT
ATOM      1  C   UNL     1       1.259   8.831  19.870  0.00  0.00    +0.000 A 
ATOM      2  C   UNL     1       1.636   9.168  18.565  0.00  0.00    +0.000 A 
ATOM      3  C   UNL     1       2.421   8.304  17.791  0.00  0.00    +0.000 A 
ATOM      4  C   UNL     1       2.877   7.075  18.296  0.00  0.00    +0.000 A 
ATOM      5  C   UNL     1       2.503   6.751  19.613  0.00  0.00    +0.000 A 
ATOM      6  C   UNL     1       1.708   7.613  20.383  0.00  0.00    +0.000 A 
ENDROOT
BRANCH   4   7
ATOM      7  C   UNL     1       3.713   6.165  17.476  0.00  0.00    +0.000 A 
ATOM      8  C   UNL     1       3.552   4.768  17.535  0.00  0.00    +0.000 A 
ATOM      9  C   UNL     1       4.358   3.903  16.787  0.00  0.00    +0.000 A 
ATOM     10  C   UNL     1       5.338   4.418  15.946  0.00  0.00    +0.000 A 
ATOM     11  C   UNL     1       5.511   5.796  15.855  0.00  0.00    +0.000 A 
ATOM     12  C   UNL     1       4.711   6.657  16.614  0.00  0.00    +0.000 A 
ENDBRANCH   4   7
BRANCH   1  14
ATOM     13  N   UNL     1      -0.287  10.413  19.881  0.00  0.00    +0.000 NA
ATOM     14  N   UNL     1       0.497   9.767  20.604  0.00  0.00    +0.000 NA
BRANCH  13  16
ATOM     15  C   UNL     1      -1.960  12.092  19.750  0.00  0.00    +0.000 C 
ATOM     16  N   UNL     1      -1.033  11.337  20.572  0.00  0.00    +0.000 N 
ATOM     17  C   UNL     1      -0.511  11.946  21.787  0.00  0.00    +0.000 C 
ENDBRANCH  13  16
ENDBRANCH   1  14
TORSDOF 3
ENDMDL
MODEL 8
REMARK VINA RESULT:      -6.2      4.027      5.826
REMARK  Name = 
REMARK  5 active torsions:
REMARK  status: ('A' for Active; 'I' for Inactive)
REMARK    1  A    between atoms: C_1  and  N_2
REMARK    2  A    between atoms: N_2  and  C_3
REMARK    3  A    between atoms: N_2  and  N_4
REMARK    4  A    between atoms: N_5  and  C_6
REMARK    5  A    between atoms: C_9  and  C_10
REMARK                            x       y       z     vdW  Elec       q    Type
REMARK                         _______ _______ _______ _____ _____    ______ ____
ROOT
ATOM      1  C   UNL     1       1.138   9.524  19.492  0.00  0.00    +0.000 A 
ATOM      2  C   UNL     1       1.453   8.394  20.254  0.00  0.00    +0.000 A 
ATOM      3  C   UNL     1       2.169   7.324  19.702  0.00  0.00    +0.000 A 
ATOM      4  C   UNL     1       2.584   7.332  18.360  0.00  0.00    +0.000 A 
ATOM      5  C   UNL     1       2.251   8.467  17.599  0.00  0.00    +0.000 A 
ATOM      6  C   UNL     1       1.542   9.543  18.157  0.00  0.00    +0.000 A 
ENDROOT
BRANCH   4   7
ATOM      7  C   UNL     1       3.337   6.195  17.777  0.00  0.00    +0.000 A 
ATOM      8  C   UNL     1       2.841   4.878  17.838  0.00  0.00    +0.000 A 
ATOM      9  C   UNL     1       3.562   3.798  17.317  0.00  0.00    +0.000 A 
ATOM     10  C   UNL     1       4.791   4.011  16.704  0.00  0.00    +0.000 A 
ATOM     11  C   UNL     1       5.300   5.304  16.615  0.00  0.00    +0.000 A 
ATOM     12  C   UNL     1       4.582   6.380  17.149  0.00  0.00    +0.000 A 
ENDBRANCH   4   7
BRANCH   1  14
ATOM     13  N   UNL     1       0.090  10.281  21.288  0.00  0.00    +0.000 NA
ATOM     14  N   UNL     1       0.381  10.548  20.105  0.00  0.00    +0.000 NA
BRANCH  13  16
ATOM     15  C   UNL     1      -1.235  10.859  23.171  0.00  0.00    +0.000 C 
ATOM     16  N   UNL     1      -0.654  11.259  21.902  0.00  0.00    +0.000 N 
ATOM     17  C   UNL     1      -1.322  12.283  21.112  0.00  0.00    +0.000 C 
ENDBRANCH  13  16
ENDBRANCH   1  14
TORSDOF 3
ENDMDL
MODEL 9
REMARK VINA RESULT:      -6.2      4.219      6.081
REMARK  Name = 
REMARK  5 active torsions:
REMARK  status: ('A' for Active; 'I' for Inactive)
REMARK    1  A    between atoms: C_1  and  N_2
REMARK    2  A    between atoms: N_2  and  C_3
REMARK    3  A    between atoms: N_2  and  N_4
REMARK    4  A    between atoms: N_5  and  C_6
REMARK    5  A    between atoms: C_9  and  C_10
REMARK                            x       y       z     vdW  Elec       q    Type
REMARK                         _______ _______ _______ _____ _____    ______ ____
ROOT
ATOM      1  C   UNL     1       0.982   9.538  19.733  0.00  0.00    +0.000 A 
ATOM      2  C   UNL     1       1.310   9.540  18.373  0.00  0.00    +0.000 A 
ATOM      3  C   UNL     1       2.001   8.469  17.791  0.00  0.00    +0.000 A 
ATOM      4  C   UNL     1       2.408   7.359  18.549  0.00  0.00    +0.000 A 
ATOM      5  C   UNL     1       2.085   7.372  19.919  0.00  0.00    +0.000 A 
ATOM      6  C   UNL     1       1.384   8.441  20.498  0.00  0.00    +0.000 A 
ENDROOT
BRANCH   4   7
ATOM      7  C   UNL     1       3.144   6.229  17.932  0.00  0.00    +0.000 A 
ATOM      8  C   UNL     1       4.407   6.414  17.337  0.00  0.00    +0.000 A 
ATOM      9  C   UNL     1       5.092   5.358  16.726  0.00  0.00    +0.000 A 
ATOM     10  C   UNL     1       4.536   4.084  16.711  0.00  0.00    +0.000 A 
ATOM     11  C   UNL     1       3.297   3.867  17.304  0.00  0.00    +0.000 A 
ATOM     12  C   UNL     1       2.609   4.929  17.903  0.00  0.00    +0.000 A 
ENDBRANCH   4   7
BRANCH   1  14
ATOM     13  N   UNL     1      -0.504  10.367  21.146  0.00  0.00    +0.000 NA
ATOM     14  N   UNL     1       0.318  10.669  20.258  0.00  0.00    +0.000 NA
BRANCH  13  16
ATOM     15  C   UNL     1      -0.977  12.682  20.924  0.00  0.00    +0.000 C 
ATOM     16  N   UNL     1      -1.170  11.450  21.666  0.00  0.00    +0.000 N 
ATOM     17  C   UNL     1      -1.459  11.524  23.091  0.00  0.00    +0.000 C 
ENDBRANCH  13  16
ENDBRANCH   1  14
TORSDOF 3
ENDMDL
