MODEL 1
REMARK VINA RESULT:      -6.9      0.000      0.000
REMARK  Name = 
REMARK  7 active torsions:
REMARK  status: ('A' for Active; 'I' for Inactive)
REMARK    1  A    between atoms: C_1  and  C_2
REMARK    2  A    between atoms: C_2  and  N_3
REMARK    3  A    between atoms: N_9  and  C_10
REMARK    4  A    between atoms: C_11  and  C_12
REMARK    5  A    between atoms: C_12  and  C_13
REMARK    6  A    between atoms: C_18  and  C_19
REMARK    7  A    between atoms: C_19  and  C_20
REMARK                            x       y       z     vdW  Elec       q    Type
REMARK                         _______ _______ _______ _____ _____    ______ ____
ROOT
ATOM      1  N   UNL     1       1.646   7.408  21.019  0.00  0.00    +0.000 N 
ATOM      2  C   UNL     1       2.291   7.305  19.829  0.00  0.00    +0.000 C 
ATOM      3  N   UNL     1       2.263   8.164  18.876  0.00  0.00    +0.000 NA
ATOM      4  N   UNL     1       3.060   6.215  19.550  0.00  0.00    +0.000 N 
ATOM      5  C   UNL     1       3.186   5.041  20.255  0.00  0.00    +0.000 C 
ATOM      6  O   UNL     1       2.597   4.809  21.312  0.00  0.00    +0.000 OA
ATOM      7  N   UNL     1       3.975   4.065  19.679  0.00  0.00    +0.000 N 
ATOM      8  H   UNL     1       1.704   6.549  21.572  0.00  0.00    +0.000 HD
ATOM      9  H   UNL     1       1.695   8.961  19.165  0.00  0.00    +0.000 HD
ATOM     10  H   UNL     1       3.453   6.266  18.623  0.00  0.00    +0.000 HD
ATOM     11  H   UNL     1       3.671   3.147  19.981  0.00  0.00    +0.000 HD
ENDROOT
BRANCH   7  12
ATOM     12  C   UNL     1       4.566   4.176  18.405  0.00  0.00    +0.000 A 
ATOM     13  C   UNL     1       3.867   3.646  17.284  0.00  0.00    +0.000 A 
ATOM     14  C   UNL     1       4.501   3.690  16.034  0.00  0.00    +0.000 A 
ATOM     15  C   UNL     1       5.770   4.245  15.896  0.00  0.00    +0.000 A 
ATOM     16 CL   UNL     1       6.528   4.269  14.352  0.00  0.00    +0.000 Cl
ATOM     17  C   UNL     1       6.427   4.790  16.994  0.00  0.00    +0.000 A 
ATOM     18  C   UNL     1       5.827   4.783  18.264  0.00  0.00    +0.000 A 
BRANCH  13  19
ATOM     19  C   UNL     1       2.453   3.110  17.441  0.00  0.00    +0.000 C 
ATOM     20  C   UNL     1       1.313   4.126  17.434  0.00  0.00    +0.000 C 
ENDBRANCH  13  19
BRANCH  18  21
ATOM     21  C   UNL     1       6.607   5.375  19.418  0.00  0.00    +0.000 C 
ATOM     22  C   UNL     1       7.862   6.120  18.980  0.00  0.00    +0.000 C 
ENDBRANCH  18  21
ENDBRANCH   7  12
BRANCH   1  24
ATOM     23  C   UNL     1       0.619   9.255  22.233  0.00  0.00    +0.000 C 
ATOM     24  C   UNL     1       0.420   8.157  21.203  0.00  0.00    +0.000 C 
ENDBRANCH   1  24
TORSDOF 4
ENDMDL
MODEL 2
REMARK VINA RESULT:      -6.6      0.240      2.981
REMARK  Name = 
REMARK  7 active torsions:
REMARK  status: ('A' for Active; 'I' for Inactive)
REMARK    1  A    between atoms: C_1  and  C_2
REMARK    2  A    between atoms: C_2  and  N_3
REMARK    3  A    between atoms: N_9  and  C_10
REMARK    4  A    between atoms: C_11  and  C_12
REMARK    5  A    between atoms: C_12  and  C_13
REMARK    6  A    between atoms: C_18  and  C_19
REMARK    7  A    between atoms: C_19  and  C_20
REMARK                            x       y       z     vdW  Elec       q    Type
REMARK                         _______ _______ _______ _____ _____    ______ ____
ROOT
ATOM      1  N   UNL     1       1.641   7.514  21.013  0.00  0.00    +0.000 N 
ATOM      2  C   UNL     1       2.263   7.382  19.814  0.00  0.00    +0.000 C 
ATOM      3  N   UNL     1       2.224   8.222  18.845  0.00  0.00    +0.000 NA
ATOM      4  N   UNL     1       3.019   6.281  19.543  0.00  0.00    +0.000 N 
ATOM      5  C   UNL     1       3.149   5.120  20.270  0.00  0.00    +0.000 C 
ATOM      6  O   UNL     1       2.578   4.914  21.342  0.00  0.00    +0.000 OA
ATOM      7  N   UNL     1       3.921   4.127  19.699  0.00  0.00    +0.000 N 
ATOM      8  H   UNL     1       1.704   6.666  21.583  0.00  0.00    +0.000 HD
ATOM      9  H   UNL     1       1.668   9.029  19.127  0.00  0.00    +0.000 HD
ATOM     10  H   UNL     1       3.395   6.310  18.609  0.00  0.00    +0.000 HD
ATOM     11  H   UNL     1       3.615   3.218  20.025  0.00  0.00    +0.000 HD
ENDROOT
BRANCH   7  12
ATOM     12  C   UNL     1       4.489   4.208  18.412  0.00  0.00    +0.000 A 
ATOM     13  C   UNL     1       5.763   4.825  18.270  0.00  0.00    +0.000 A 
ATOM     14  C   UNL     1       6.282   4.973  16.976  0.00  0.00    +0.000 A 
ATOM     15  C   UNL     1       5.573   4.517  15.868  0.00  0.00    +0.000 A 
ATOM     16 CL   UNL     1       6.229   4.727  14.290  0.00  0.00    +0.000 Cl
ATOM     17  C   UNL     1       4.344   3.885  16.024  0.00  0.00    +0.000 A 
ATOM     18  C   UNL     1       3.790   3.701  17.301  0.00  0.00    +0.000 A 
BRANCH  13  19
ATOM     19  C   UNL     1       6.554   5.251  19.498  0.00  0.00    +0.000 C 
ATOM     20  C   UNL     1       7.934   5.862  19.264  0.00  0.00    +0.000 C 
ENDBRANCH  13  19
BRANCH  18  21
ATOM     21  C   UNL     1       2.441   3.024  17.396  0.00  0.00    +0.000 C 
ATOM     22  C   UNL     1       1.277   4.003  17.478  0.00  0.00    +0.000 C 
ENDBRANCH  18  21
ENDBRANCH   7  12
BRANCH   1  24
ATOM     23  C   UNL     1       0.737   9.626  21.824  0.00  0.00    +0.000 C 
ATOM     24  C   UNL     1       0.425   8.276  21.205  0.00  0.00    +0.000 C 
ENDBRANCH   1  24
TORSDOF 4
ENDMDL
MODEL 3
REMARK VINA RESULT:      -6.5      1.166      3.193
REMARK  Name = 
REMARK  7 active torsions:
REMARK  status: ('A' for Active; 'I' for Inactive)
REMARK    1  A    between atoms: C_1  and  C_2
REMARK    2  A    between atoms: C_2  and  N_3
REMARK    3  A    between atoms: N_9  and  C_10
REMARK    4  A    between atoms: C_11  and  C_12
REMARK    5  A    between atoms: C_12  and  C_13
REMARK    6  A    between atoms: C_18  and  C_19
REMARK    7  A    between atoms: C_19  and  C_20
REMARK                            x       y       z     vdW  Elec       q    Type
REMARK                         _______ _______ _______ _____ _____    ______ ____
ROOT
ATOM      1  N   UNL     1       1.511   8.765  19.658  0.00  0.00    +0.000 N 
ATOM      2  C   UNL     1       2.192   8.237  18.610  0.00  0.00    +0.000 C 
ATOM      3  N   UNL     1       2.300   8.754  17.440  0.00  0.00    +0.000 NA
ATOM      4  N   UNL     1       2.848   7.049  18.737  0.00  0.00    +0.000 N 
ATOM      5  C   UNL     1       2.812   6.148  19.777  0.00  0.00    +0.000 C 
ATOM      6  O   UNL     1       2.156   6.313  20.805  0.00  0.00    +0.000 OA
ATOM      7  N   UNL     1       3.515   4.974  19.588  0.00  0.00    +0.000 N 
ATOM      8  H   UNL     1       1.450   8.121  20.451  0.00  0.00    +0.000 HD
ATOM      9  H   UNL     1       1.812   9.649  17.427  0.00  0.00    +0.000 HD
ATOM     10  H   UNL     1       3.284   6.772  17.873  0.00  0.00    +0.000 HD
ATOM     11  H   UNL     1       3.098   4.228  20.134  0.00  0.00    +0.000 HD
ENDROOT
BRANCH   7  12
ATOM     12  C   UNL     1       4.169   4.627  18.391  0.00  0.00    +0.000 A 
ATOM     13  C   UNL     1       5.550   4.945  18.255  0.00  0.00    +0.000 A 
ATOM     14  C   UNL     1       6.171   4.668  17.028  0.00  0.00    +0.000 A 
ATOM     15  C   UNL     1       5.457   4.089  15.982  0.00  0.00    +0.000 A 
ATOM     16 CL   UNL     1       6.243   3.777  14.484  0.00  0.00    +0.000 Cl
ATOM     17  C   UNL     1       4.117   3.753  16.141  0.00  0.00    +0.000 A 
ATOM     18  C   UNL     1       3.455   3.997  17.355  0.00  0.00    +0.000 A 
BRANCH  13  19
ATOM     19  C   UNL     1       6.330   5.510  19.432  0.00  0.00    +0.000 C 
ATOM     20  C   UNL     1       7.802   5.841  19.202  0.00  0.00    +0.000 C 
ENDBRANCH  13  19
BRANCH  18  21
ATOM     21  C   UNL     1       1.992   3.624  17.451  0.00  0.00    +0.000 C 
ATOM     22  C   UNL     1       1.742   2.363  18.268  0.00  0.00    +0.000 C 
ENDBRANCH  18  21
ENDBRANCH   7  12
BRANCH   1  24
ATOM     23  C   UNL     1       0.411  10.749  20.549  0.00  0.00    +0.000 C 
ATOM     24  C   UNL     1       0.367   9.643  19.511  0.00  0.00    +0.000 C 
ENDBRANCH   1  24
TORSDOF 4
ENDMDL
MODEL 4
REMARK VINA RESULT:      -6.3      1.326      1.425
REMARK  Name = 
REMARK  7 active torsions:
REMARK  status: ('A' for Active; 'I' for Inactive)
REMARK    1  A    between atoms: C_1  and  C_2
REMARK    2  A    between atoms: C_2  and  N_3
REMARK    3  A    between atoms: N_9  and  C_10
REMARK    4  A    between atoms: C_11  and  C_12
REMARK    5  A    between atoms: C_12  and  C_13
REMARK    6  A    between atoms: C_18  and  C_19
REMARK    7  A    between atoms: C_19  and  C_20
REMARK                            x       y       z     vdW  Elec       q    Type
REMARK                         _______ _______ _______ _____ _____    ______ ____
ROOT
ATOM      1  N   UNL     1       1.338   8.956  19.729  0.00  0.00    +0.000 N 
ATOM      2  C   UNL     1       2.026   8.436  18.681  0.00  0.00    +0.000 C 
ATOM      3  N   UNL     1       2.135   8.956  17.513  0.00  0.00    +0.000 NA
ATOM      4  N   UNL     1       2.689   7.252  18.807  0.00  0.00    +0.000 N 
ATOM      5  C   UNL     1       2.657   6.347  19.844  0.00  0.00    +0.000 C 
ATOM      6  O   UNL     1       1.995   6.505  20.871  0.00  0.00    +0.000 OA
ATOM      7  N   UNL     1       3.367   5.178  19.654  0.00  0.00    +0.000 N 
ATOM      8  H   UNL     1       1.278   8.309  20.519  0.00  0.00    +0.000 HD
ATOM      9  H   UNL     1       1.641   9.849  17.501  0.00  0.00    +0.000 HD
ATOM     10  H   UNL     1       3.131   6.980  17.943  0.00  0.00    +0.000 HD
ATOM     11  H   UNL     1       2.954   4.428  20.196  0.00  0.00    +0.000 HD
ENDROOT
BRANCH   7  12
ATOM     12  C   UNL     1       4.028   4.839  18.458  0.00  0.00    +0.000 A 
ATOM     13  C   UNL     1       3.276   4.226  17.417  0.00  0.00    +0.000 A 
ATOM     14  C   UNL     1       3.960   3.820  16.262  0.00  0.00    +0.000 A 
ATOM     15  C   UNL     1       5.332   4.021  16.139  0.00  0.00    +0.000 A 
ATOM     16 CL   UNL     1       6.147   3.496  14.717  0.00  0.00    +0.000 Cl
ATOM     17  C   UNL     1       6.049   4.651  17.150  0.00  0.00    +0.000 A 
ATOM     18  C   UNL     1       5.405   5.090  18.319  0.00  0.00    +0.000 A 
BRANCH  13  19
ATOM     19  C   UNL     1       1.767   4.081  17.540  0.00  0.00    +0.000 C 
ATOM     20  C   UNL     1       1.241   2.908  18.364  0.00  0.00    +0.000 C 
ENDBRANCH  13  19
BRANCH  18  21
ATOM     21  C   UNL     1       6.250   5.750  19.386  0.00  0.00    +0.000 C 
ATOM     22  C   UNL     1       7.725   5.843  19.018  0.00  0.00    +0.000 C 
ENDBRANCH  18  21
ENDBRANCH   7  12
BRANCH   1  24
ATOM     23  C   UNL     1       0.556  11.255  19.940  0.00  0.00    +0.000 C 
ATOM     24  C   UNL     1       0.189   9.826  19.580  0.00  0.00    +0.000 C 
ENDBRANCH   1  24
TORSDOF 4
ENDMDL
MODEL 5
REMARK VINA RESULT:      -6.3      1.130      1.322
REMARK  Name = 
REMARK  7 active torsions:
REMARK  status: ('A' for Active; 'I' for Inactive)
REMARK    1  A    between atoms: C_1  and  C_2
REMARK    2  A    between atoms: C_2  and  N_3
REMARK    3  A    between atoms: N_9  and  C_10
REMARK    4  A    between atoms: C_11  and  C_12
REMARK    5  A    between atoms: C_12  and  C_13
REMARK    6  A    between atoms: C_18  and  C_19
REMARK    7  A    between atoms: C_19  and  C_20
REMARK                            x       y       z     vdW  Elec       q    Type
REMARK                         _______ _______ _______ _____ _____    ______ ____
ROOT
ATOM      1  N   UNL     1       1.958   8.167  19.729  0.00  0.00    +0.000 N 
ATOM      2  C   UNL     1       2.551   7.868  18.545  0.00  0.00    +0.000 C 
ATOM      3  N   UNL     1       2.398   8.502  17.440  0.00  0.00    +0.000 NA
ATOM      4  N   UNL     1       3.402   6.808  18.444  0.00  0.00    +0.000 N 
ATOM      5  C   UNL     1       3.669   5.822  19.366  0.00  0.00    +0.000 C 
ATOM      6  O   UNL     1       3.156   5.771  20.485  0.00  0.00    +0.000 OA
ATOM      7  N   UNL     1       4.516   4.813  18.950  0.00  0.00    +0.000 N 
ATOM      8  H   UNL     1       2.121   7.451  20.441  0.00  0.00    +0.000 HD
ATOM      9  H   UNL     1       1.775   9.295  17.596  0.00  0.00    +0.000 HD
ATOM     10  H   UNL     1       3.743   6.694  17.504  0.00  0.00    +0.000 HD
ATOM     11  H   UNL     1       4.312   3.958  19.455  0.00  0.00    +0.000 HD
ENDROOT
BRANCH   7  12
ATOM     12  C   UNL     1       5.031   4.701  17.645  0.00  0.00    +0.000 A 
ATOM     13  C   UNL     1       4.278   3.978  16.678  0.00  0.00    +0.000 A 
ATOM     14  C   UNL     1       4.839   3.803  15.404  0.00  0.00    +0.000 A 
ATOM     15  C   UNL     1       6.089   4.332  15.097  0.00  0.00    +0.000 A 
ATOM     16 CL   UNL     1       6.758   4.087  13.530  0.00  0.00    +0.000 Cl
ATOM     17  C   UNL     1       6.799   5.065  16.041  0.00  0.00    +0.000 A 
ATOM     18  C   UNL     1       6.273   5.279  17.326  0.00  0.00    +0.000 A 
BRANCH  13  19
ATOM     19  C   UNL     1       2.884   3.470  17.010  0.00  0.00    +0.000 C 
ATOM     20  C   UNL     1       2.779   2.123  17.721  0.00  0.00    +0.000 C 
ENDBRANCH  13  19
BRANCH  18  21
ATOM     21  C   UNL     1       7.109   6.069  18.309  0.00  0.00    +0.000 C 
ATOM     22  C   UNL     1       7.634   7.381  17.740  0.00  0.00    +0.000 C 
ENDBRANCH  18  21
ENDBRANCH   7  12
BRANCH   1  24
ATOM     23  C   UNL     1       0.194   8.827  21.275  0.00  0.00    +0.000 C 
ATOM     24  C   UNL     1       0.679   8.838  19.837  0.00  0.00    +0.000 C 
ENDBRANCH   1  24
TORSDOF 4
ENDMDL
MODEL 6
REMARK VINA RESULT:      -5.9      4.944      8.525
REMARK  Name = 
REMARK  7 active torsions:
REMARK  status: ('A' for Active; 'I' for Inactive)
REMARK    1  A    between atoms: C_1  and  C_2
REMARK    2  A    between atoms: C_2  and  N_3
REMARK    3  A    between atoms: N_9  and  C_10
REMARK    4  A    between atoms: C_11  and  C_12
REMARK    5  A    between atoms: C_12  and  C_13
REMARK    6  A    between atoms: C_18  and  C_19
REMARK    7  A    between atoms: C_19  and  C_20
REMARK                            x       y       z     vdW  Elec       q    Type
REMARK                         _______ _______ _______ _____ _____    ______ ____
ROOT
ATOM      1  N   UNL     1       2.757   6.976  19.598  0.00  0.00    +0.000 N 
ATOM      2  C   UNL     1       1.838   7.809  20.150  0.00  0.00    +0.000 C 
ATOM      3  N   UNL     1       1.261   7.654  21.286  0.00  0.00    +0.000 NA
ATOM      4  N   UNL     1       1.442   8.937  19.495  0.00  0.00    +0.000 N 
ATOM      5  C   UNL     1       1.720   9.331  18.206  0.00  0.00    +0.000 C 
ATOM      6  O   UNL     1       2.423   8.685  17.427  0.00  0.00    +0.000 OA
ATOM      7  N   UNL     1       1.101  10.489  17.777  0.00  0.00    +0.000 N 
ATOM      8  H   UNL     1       2.983   7.227  18.632  0.00  0.00    +0.000 HD
ATOM      9  H   UNL     1       1.625   6.810  21.730  0.00  0.00    +0.000 HD
ATOM     10  H   UNL     1       0.740   9.440  20.012  0.00  0.00    +0.000 HD
ATOM     11  H   UNL     1       0.979  10.466  16.771  0.00  0.00    +0.000 HD
ENDROOT
BRANCH   7  12
ATOM     12  C   UNL     1       0.164  11.213  18.538  0.00  0.00    +0.000 A 
ATOM     13  C   UNL     1       0.641  12.212  19.432  0.00  0.00    +0.000 A 
ATOM     14  C   UNL     1      -0.295  12.871  20.243  0.00  0.00    +0.000 A 
ATOM     15  C   UNL     1      -1.650  12.561  20.164  0.00  0.00    +0.000 A 
ATOM     16 CL   UNL     1      -2.772  13.375  21.184  0.00  0.00    +0.000 Cl
ATOM     17  C   UNL     1      -2.106  11.606  19.262  0.00  0.00    +0.000 A 
ATOM     18  C   UNL     1      -1.209  10.930  18.418  0.00  0.00    +0.000 A 
BRANCH  13  19
ATOM     19  C   UNL     1       2.115  12.587  19.452  0.00  0.00    +0.000 C 
ATOM     20  C   UNL     1       2.577  13.664  18.473  0.00  0.00    +0.000 C 
ENDBRANCH  13  19
BRANCH  18  21
ATOM     21  C   UNL     1      -1.773   9.891  17.475  0.00  0.00    +0.000 C 
ATOM     22  C   UNL     1      -3.285   9.738  17.576  0.00  0.00    +0.000 C 
ENDBRANCH  18  21
ENDBRANCH   7  12
BRANCH   1  24
ATOM     23  C   UNL     1       2.396   4.755  18.664  0.00  0.00    +0.000 C 
ATOM     24  C   UNL     1       2.823   5.557  19.880  0.00  0.00    +0.000 C 
ENDBRANCH   1  24
TORSDOF 4
ENDMDL
MODEL 7
REMARK VINA RESULT:      -5.9      4.976      8.079
REMARK  Name = 
REMARK  7 active torsions:
REMARK  status: ('A' for Active; 'I' for Inactive)
REMARK    1  A    between atoms: C_1  and  C_2
REMARK    2  A    between atoms: C_2  and  N_3
REMARK    3  A    between atoms: N_9  and  C_10
REMARK    4  A    between atoms: C_11  and  C_12
REMARK    5  A    between atoms: C_12  and  C_13
REMARK    6  A    between atoms: C_18  and  C_19
REMARK    7  A    between atoms: C_19  and  C_20
REMARK                            x       y       z     vdW  Elec       q    Type
REMARK                         _______ _______ _______ _____ _____    ______ ____
ROOT
ATOM      1  N   UNL     1       2.778   7.015  19.499  0.00  0.00    +0.000 N 
ATOM      2  C   UNL     1       1.845   7.800  20.096  0.00  0.00    +0.000 C 
ATOM      3  N   UNL     1       1.283   7.580  21.228  0.00  0.00    +0.000 NA
ATOM      4  N   UNL     1       1.416   8.946  19.495  0.00  0.00    +0.000 N 
ATOM      5  C   UNL     1       1.672   9.403  18.223  0.00  0.00    +0.000 C 
ATOM      6  O   UNL     1       2.383   8.810  17.410  0.00  0.00    +0.000 OA
ATOM      7  N   UNL     1       1.022  10.564  17.852  0.00  0.00    +0.000 N 
ATOM      8  H   UNL     1       2.989   7.314  18.544  0.00  0.00    +0.000 HD
ATOM      9  H   UNL     1       1.671   6.727  21.631  0.00  0.00    +0.000 HD
ATOM     10  H   UNL     1       0.707   9.408  20.041  0.00  0.00    +0.000 HD
ATOM     11  H   UNL     1       0.891  10.583  16.847  0.00  0.00    +0.000 HD
ENDROOT
BRANCH   7  12
ATOM     12  C   UNL     1       0.075  11.231  18.652  0.00  0.00    +0.000 A 
ATOM     13  C   UNL     1      -1.303  10.924  18.471  0.00  0.00    +0.000 A 
ATOM     14  C   UNL     1      -2.243  11.652  19.216  0.00  0.00    +0.000 A 
ATOM     15  C   UNL     1      -1.834  12.637  20.111  0.00  0.00    +0.000 A 
ATOM     16 CL   UNL     1      -3.011  13.524  20.999  0.00  0.00    +0.000 Cl
ATOM     17  C   UNL     1      -0.482  12.903  20.302  0.00  0.00    +0.000 A 
ATOM     18  C   UNL     1       0.496  12.190  19.591  0.00  0.00    +0.000 A 
BRANCH  13  19
ATOM     19  C   UNL     1      -1.726   9.796  17.543  0.00  0.00    +0.000 C 
ATOM     20  C   UNL     1      -2.992  10.007  16.715  0.00  0.00    +0.000 C 
ENDBRANCH  13  19
BRANCH  18  21
ATOM     21  C   UNL     1       1.946  12.546  19.834  0.00  0.00    +0.000 C 
ATOM     22  C   UNL     1       2.434  13.712  18.984  0.00  0.00    +0.000 C 
ENDBRANCH  18  21
ENDBRANCH   7  12
BRANCH   1  24
ATOM     23  C   UNL     1       2.203   4.829  18.588  0.00  0.00    +0.000 C 
ATOM     24  C   UNL     1       2.881   5.586  19.716  0.00  0.00    +0.000 C 
ENDBRANCH   1  24
TORSDOF 4
ENDMDL
MODEL 8
REMARK VINA RESULT:      -5.9      0.977      3.102
REMARK  Name = 
REMARK  7 active torsions:
REMARK  status: ('A' for Active; 'I' for Inactive)
REMARK    1  A    between atoms: C_1  and  C_2
REMARK    2  A    between atoms: C_2  and  N_3
REMARK    3  A    between atoms: N_9  and  C_10
REMARK    4  A    between atoms: C_11  and  C_12
REMARK    5  A    between atoms: C_12  and  C_13
REMARK    6  A    between atoms: C_18  and  C_19
REMARK    7  A    between atoms: C_19  and  C_20
REMARK                            x       y       z     vdW  Elec       q    Type
REMARK                         _______ _______ _______ _____ _____    ______ ____
ROOT
ATOM      1  N   UNL     1       2.277   6.993  20.501  0.00  0.00    +0.000 N 
ATOM      2  C   UNL     1       2.819   6.922  19.259  0.00  0.00    +0.000 C 
ATOM      3  N   UNL     1       2.523   7.672  18.260  0.00  0.00    +0.000 NA
ATOM      4  N   UNL     1       3.774   5.993  18.971  0.00  0.00    +0.000 N 
ATOM      5  C   UNL     1       4.209   4.935  19.735  0.00  0.00    +0.000 C 
ATOM      6  O   UNL     1       3.781   4.679  20.861  0.00  0.00    +0.000 OA
ATOM      7  N   UNL     1       5.133   4.096  19.142  0.00  0.00    +0.000 N 
ATOM      8  H   UNL     1       2.566   6.216  21.100  0.00  0.00    +0.000 HD
ATOM      9  H   UNL     1       1.828   8.358  18.555  0.00  0.00    +0.000 HD
ATOM     10  H   UNL     1       4.062   6.043  18.007  0.00  0.00    +0.000 HD
ATOM     11  H   UNL     1       5.059   3.165  19.535  0.00  0.00    +0.000 HD
ENDROOT
BRANCH   7  12
ATOM     12  C   UNL     1       5.569   4.216  17.809  0.00  0.00    +0.000 A 
ATOM     13  C   UNL     1       6.748   4.968  17.545  0.00  0.00    +0.000 A 
ATOM     14  C   UNL     1       7.128   5.148  16.207  0.00  0.00    +0.000 A 
ATOM     15  C   UNL     1       6.377   4.597  15.172  0.00  0.00    +0.000 A 
ATOM     16 CL   UNL     1       6.859   4.848  13.540  0.00  0.00    +0.000 Cl
ATOM     17  C   UNL     1       5.246   3.835  15.447  0.00  0.00    +0.000 A 
ATOM     18  C   UNL     1       4.834   3.615  16.771  0.00  0.00    +0.000 A 
BRANCH  13  19
ATOM     19  C   UNL     1       7.594   5.502  18.690  0.00  0.00    +0.000 C 
ATOM     20  C   UNL     1       8.053   6.955  18.605  0.00  0.00    +0.000 C 
ENDBRANCH  13  19
BRANCH  18  21
ATOM     21  C   UNL     1       3.584   2.793  16.995  0.00  0.00    +0.000 C 
ATOM     22  C   UNL     1       2.310   3.628  17.033  0.00  0.00    +0.000 C 
ENDBRANCH  18  21
ENDBRANCH   7  12
BRANCH   1  24
ATOM     23  C   UNL     1       1.004   8.803  21.522  0.00  0.00    +0.000 C 
ATOM     24  C   UNL     1       0.942   7.488  20.766  0.00  0.00    +0.000 C 
ENDBRANCH   1  24
TORSDOF 4
ENDMDL
MODEL 9
REMARK VINA RESULT:      -5.7      3.182      6.164
REMARK  Name = 
REMARK  7 active torsions:
REMARK  status: ('A' for Active; 'I' for Inactive)
REMARK    1  A    between atoms: C_1  and  C_2
REMARK    2  A    between atoms: C_2  and  N_3
REMARK    3  A    between atoms: N_9  and  C_10
REMARK    4  A    between atoms: C_11  and  C_12
REMARK    5  A    between atoms: C_12  and  C_13
REMARK    6  A    between atoms: C_18  and  C_19
REMARK    7  A    between atoms: C_19  and  C_20
REMARK                            x       y       z     vdW  Elec       q    Type
REMARK                         _______ _______ _______ _____ _____    ______ ____
ROOT
ATOM      1  N   UNL     1       6.671   5.808  16.402  0.00  0.00    +0.000 N 
ATOM      2  C   UNL     1       6.065   5.057  17.356  0.00  0.00    +0.000 C 
ATOM      3  N   UNL     1       6.558   4.021  17.930  0.00  0.00    +0.000 NA
ATOM      4  N   UNL     1       4.814   5.373  17.797  0.00  0.00    +0.000 N 
ATOM      5  C   UNL     1       3.930   6.301  17.298  0.00  0.00    +0.000 C 
ATOM      6  O   UNL     1       4.172   7.031  16.336  0.00  0.00    +0.000 OA
ATOM      7  N   UNL     1       2.686   6.340  17.896  0.00  0.00    +0.000 N 
ATOM      8  H   UNL     1       6.042   6.506  15.994  0.00  0.00    +0.000 HD
ATOM      9  H   UNL     1       7.501   3.862  17.574  0.00  0.00    +0.000 HD
ATOM     10  H   UNL     1       4.485   4.714  18.484  0.00  0.00    +0.000 HD
ATOM     11  H   UNL     1       1.993   6.676  17.237  0.00  0.00    +0.000 HD
ENDROOT
BRANCH   7  12
ATOM     12  C   UNL     1       2.262   5.446  18.898  0.00  0.00    +0.000 A 
ATOM     13  C   UNL     1       2.058   5.948  20.214  0.00  0.00    +0.000 A 
ATOM     14  C   UNL     1       1.715   5.034  21.221  0.00  0.00    +0.000 A 
ATOM     15  C   UNL     1       1.568   3.680  20.935  0.00  0.00    +0.000 A 
ATOM     16 CL   UNL     1       1.162   2.580  22.195  0.00  0.00    +0.000 Cl
ATOM     17  C   UNL     1       1.737   3.208  19.637  0.00  0.00    +0.000 A 
ATOM     18  C   UNL     1       2.067   4.087  18.593  0.00  0.00    +0.000 A 
BRANCH  13  19
ATOM     19  C   UNL     1       2.152   7.440  20.493  0.00  0.00    +0.000 C 
ATOM     20  C   UNL     1       0.995   8.085  21.251  0.00  0.00    +0.000 C 
ENDBRANCH  13  19
BRANCH  18  21
ATOM     21  C   UNL     1       2.255   3.502  17.210  0.00  0.00    +0.000 C 
ATOM     22  C   UNL     1       3.084   2.224  17.201  0.00  0.00    +0.000 C 
ENDBRANCH  18  21
ENDBRANCH   7  12
BRANCH   1  24
ATOM     23  C   UNL     1       6.998   4.735  14.239  0.00  0.00    +0.000 C 
ATOM     24  C   UNL     1       7.664   5.289  15.485  0.00  0.00    +0.000 C 
ENDBRANCH   1  24
TORSDOF 4
ENDMDL
