MODEL 1
REMARK VINA RESULT:      -7.6      0.000      0.000
REMARK  Name = 
REMARK  4 active torsions:
REMARK  status: ('A' for Active; 'I' for Inactive)
REMARK    1  A    between atoms: N_3  and  C_4
REMARK    2  A    between atoms: N_11  and  C_12
REMARK    3  A    between atoms: C_18  and  C_19
REMARK    4  A    between atoms: C_19  and  O_21
REMARK                            x       y       z     vdW  Elec       q    Type
REMARK                         _______ _______ _______ _____ _____    ______ ____
ROOT
ATOM      1  O   UNL     1       2.155   7.782  18.952  0.00  0.00    +0.000 OA
ATOM      2  C   UNL     1       2.186   7.135  19.994  0.00  0.00    +0.000 C 
ATOM      3  N   UNL     1       1.587   7.538  21.171  0.00  0.00    +0.000 N 
ATOM      4  N   UNL     1       2.892   5.951  20.125  0.00  0.00    +0.000 N 
ATOM      5  H   UNL     1       1.848   7.042  22.011  0.00  0.00    +0.000 HD
ATOM      6  H   UNL     1       2.993   5.561  21.059  0.00  0.00    +0.000 HD
ENDROOT
BRANCH   3   7
ATOM      7  C   UNL     1       0.890   8.761  21.339  0.00  0.00    +0.000 A 
ATOM      8  C   UNL     1       0.890   9.784  20.382  0.00  0.00    +0.000 A 
ATOM      9  C   UNL     1       0.286  11.017  20.641  0.00  0.00    +0.000 A 
ATOM     10  C   UNL     1      -0.345  11.229  21.860  0.00  0.00    +0.000 A 
ATOM     11 CL   UNL     1      -1.041  12.763  22.205  0.00  0.00    +0.000 Cl
ATOM     12  C   UNL     1      -0.407  10.205  22.803  0.00  0.00    +0.000 A 
ATOM     13  C   UNL     1       0.198   8.968  22.539  0.00  0.00    +0.000 A 
ENDBRANCH   3   7
BRANCH   4  14
ATOM     14  C   UNL     1       3.666   5.331  19.100  0.00  0.00    +0.000 A 
ATOM     15  C   UNL     1       5.040   5.583  18.960  0.00  0.00    +0.000 A 
ATOM     16  C   UNL     1       5.796   4.936  17.984  0.00  0.00    +0.000 A 
ATOM     17 CL   UNL     1       7.485   5.246  17.866  0.00  0.00    +0.000 Cl
ATOM     18  C   UNL     1       5.197   4.047  17.100  0.00  0.00    +0.000 A 
ATOM     19  C   UNL     1       3.826   3.807  17.192  0.00  0.00    +0.000 A 
ATOM     20  C   UNL     1       3.060   4.430  18.197  0.00  0.00    +0.000 A 
BRANCH  20  21
ATOM     21  C   UNL     1       1.609   4.126  18.313  0.00  0.00    +0.000 C 
ATOM     22  O   UNL     1       1.099   3.761  19.362  0.00  0.00    +0.000 OA
BRANCH  21  23
ATOM     23  O   UNL     1       0.927   4.206  17.153  0.00  0.00    +0.000 OA
ATOM     24  H   UNL     1       0.188   4.841  17.138  0.00  0.00    +0.000 HD
ENDBRANCH  21  23
ENDBRANCH  20  21
ENDBRANCH   4  14
TORSDOF 4
ENDMDL
MODEL 2
REMARK VINA RESULT:      -7.6      5.692      6.892
REMARK  Name = 
REMARK  4 active torsions:
REMARK  status: ('A' for Active; 'I' for Inactive)
REMARK    1  A    between atoms: N_3  and  C_4
REMARK    2  A    between atoms: N_11  and  C_12
REMARK    3  A    between atoms: C_18  and  C_19
REMARK    4  A    between atoms: C_19  and  O_21
REMARK                            x       y       z     vdW  Elec       q    Type
REMARK                         _______ _______ _______ _____ _____    ______ ____
ROOT
ATOM      1  O   UNL     1       7.113   8.602  17.258  0.00  0.00    +0.000 OA
ATOM      2  C   UNL     1       7.836   7.937  17.993  0.00  0.00    +0.000 C 
ATOM      3  N   UNL     1       8.789   8.477  18.834  0.00  0.00    +0.000 N 
ATOM      4  N   UNL     1       7.823   6.552  18.009  0.00  0.00    +0.000 N 
ATOM      5  H   UNL     1       9.462   7.839  19.232  0.00  0.00    +0.000 HD
ATOM      6  H   UNL     1       8.558   6.079  18.530  0.00  0.00    +0.000 HD
ENDROOT
BRANCH   3   7
ATOM      7  C   UNL     1       9.079   9.861  18.932  0.00  0.00    +0.000 A 
ATOM      8  C   UNL     1       9.256  10.691  17.819  0.00  0.00    +0.000 A 
ATOM      9  C   UNL     1       9.657  12.022  17.966  0.00  0.00    +0.000 A 
ATOM     10  C   UNL     1       9.863  12.541  19.237  0.00  0.00    +0.000 A 
ATOM     11 CL   UNL     1      10.409  14.160  19.420  0.00  0.00    +0.000 Cl
ATOM     12  C   UNL     1       9.636  11.748  20.360  0.00  0.00    +0.000 A 
ATOM     13  C   UNL     1       9.233  10.414  20.210  0.00  0.00    +0.000 A 
ENDBRANCH   3   7
BRANCH   4  14
ATOM     14  C   UNL     1       6.997   5.722  17.195  0.00  0.00    +0.000 A 
ATOM     15  C   UNL     1       7.262   5.532  15.830  0.00  0.00    +0.000 A 
ATOM     16  C   UNL     1       6.474   4.681  15.055  0.00  0.00    +0.000 A 
ATOM     17 CL   UNL     1       6.851   4.447  13.392  0.00  0.00    +0.000 Cl
ATOM     18  C   UNL     1       5.384   4.025  15.612  0.00  0.00    +0.000 A 
ATOM     19  C   UNL     1       5.075   4.226  16.957  0.00  0.00    +0.000 A 
ATOM     20  C   UNL     1       5.885   5.057  17.757  0.00  0.00    +0.000 A 
BRANCH  20  21
ATOM     21  C   UNL     1       5.571   5.222  19.201  0.00  0.00    +0.000 C 
ATOM     22  O   UNL     1       4.469   5.576  19.594  0.00  0.00    +0.000 OA
BRANCH  21  23
ATOM     23  O   UNL     1       6.619   5.032  20.026  0.00  0.00    +0.000 OA
ATOM     24  H   UNL     1       6.410   5.000  20.978  0.00  0.00    +0.000 HD
ENDBRANCH  21  23
ENDBRANCH  20  21
ENDBRANCH   4  14
TORSDOF 4
ENDMDL
MODEL 3
REMARK VINA RESULT:      -7.5      0.335      1.282
REMARK  Name = 
REMARK  4 active torsions:
REMARK  status: ('A' for Active; 'I' for Inactive)
REMARK    1  A    between atoms: N_3  and  C_4
REMARK    2  A    between atoms: N_11  and  C_12
REMARK    3  A    between atoms: C_18  and  C_19
REMARK    4  A    between atoms: C_19  and  O_21
REMARK                            x       y       z     vdW  Elec       q    Type
REMARK                         _______ _______ _______ _____ _____    ______ ____
ROOT
ATOM      1  O   UNL     1       2.262   7.746  18.898  0.00  0.00    +0.000 OA
ATOM      2  C   UNL     1       2.267   7.077  19.927  0.00  0.00    +0.000 C 
ATOM      3  N   UNL     1       1.640   7.456  21.098  0.00  0.00    +0.000 N 
ATOM      4  N   UNL     1       2.966   5.888  20.049  0.00  0.00    +0.000 N 
ATOM      5  H   UNL     1       1.878   6.941  21.932  0.00  0.00    +0.000 HD
ATOM      6  H   UNL     1       3.044   5.478  20.977  0.00  0.00    +0.000 HD
ENDROOT
BRANCH   3   7
ATOM      7  C   UNL     1       0.941   8.677  21.274  0.00  0.00    +0.000 A 
ATOM      8  C   UNL     1       0.497   9.136  22.520  0.00  0.00    +0.000 A 
ATOM      9  C   UNL     1      -0.289  10.286  22.628  0.00  0.00    +0.000 A 
ATOM     10  C   UNL     1      -0.621  11.001  21.485  0.00  0.00    +0.000 A 
ATOM     11 CL   UNL     1      -1.633  12.385  21.607  0.00  0.00    +0.000 Cl
ATOM     12  C   UNL     1      -0.140  10.594  20.242  0.00  0.00    +0.000 A 
ATOM     13  C   UNL     1       0.650   9.441  20.137  0.00  0.00    +0.000 A 
ENDBRANCH   3   7
BRANCH   4  14
ATOM     14  C   UNL     1       3.764   5.288  19.031  0.00  0.00    +0.000 A 
ATOM     15  C   UNL     1       5.143   5.534  18.935  0.00  0.00    +0.000 A 
ATOM     16  C   UNL     1       5.922   4.906  17.964  0.00  0.00    +0.000 A 
ATOM     17 CL   UNL     1       7.615   5.206  17.900  0.00  0.00    +0.000 Cl
ATOM     18  C   UNL     1       5.341   4.043  17.043  0.00  0.00    +0.000 A 
ATOM     19  C   UNL     1       3.966   3.811  17.090  0.00  0.00    +0.000 A 
ATOM     20  C   UNL     1       3.177   4.414  18.090  0.00  0.00    +0.000 A 
BRANCH  20  21
ATOM     21  C   UNL     1       1.722   4.117  18.158  0.00  0.00    +0.000 C 
ATOM     22  O   UNL     1       0.973   4.296  17.208  0.00  0.00    +0.000 OA
BRANCH  21  23
ATOM     23  O   UNL     1       1.289   3.719  19.370  0.00  0.00    +0.000 OA
ATOM     24  H   UNL     1       0.329   3.799  19.526  0.00  0.00    +0.000 HD
ENDBRANCH  21  23
ENDBRANCH  20  21
ENDBRANCH   4  14
TORSDOF 4
ENDMDL
MODEL 4
REMARK VINA RESULT:      -7.4      5.611      6.817
REMARK  Name = 
REMARK  4 active torsions:
REMARK  status: ('A' for Active; 'I' for Inactive)
REMARK    1  A    between atoms: N_3  and  C_4
REMARK    2  A    between atoms: N_11  and  C_12
REMARK    3  A    between atoms: C_18  and  C_19
REMARK    4  A    between atoms: C_19  and  O_21
REMARK                            x       y       z     vdW  Elec       q    Type
REMARK                         _______ _______ _______ _____ _____    ______ ____
ROOT
ATOM      1  O   UNL     1       7.067   8.579  17.287  0.00  0.00    +0.000 OA
ATOM      2  C   UNL     1       7.814   7.902  17.986  0.00  0.00    +0.000 C 
ATOM      3  N   UNL     1       8.778   8.429  18.823  0.00  0.00    +0.000 N 
ATOM      4  N   UNL     1       7.819   6.517  17.962  0.00  0.00    +0.000 N 
ATOM      5  H   UNL     1       9.467   7.788  19.188  0.00  0.00    +0.000 HD
ATOM      6  H   UNL     1       8.570   6.038  18.453  0.00  0.00    +0.000 HD
ENDROOT
BRANCH   3   7
ATOM      7  C   UNL     1       9.053   9.813  18.957  0.00  0.00    +0.000 A 
ATOM      8  C   UNL     1       9.253  10.441  20.193  0.00  0.00    +0.000 A 
ATOM      9  C   UNL     1       9.404  11.828  20.283  0.00  0.00    +0.000 A 
ATOM     10  C   UNL     1       9.377  12.598  19.128  0.00  0.00    +0.000 A 
ATOM     11 CL   UNL     1       9.507  14.308  19.239  0.00  0.00    +0.000 Cl
ATOM     12  C   UNL     1       9.238  11.986  17.884  0.00  0.00    +0.000 A 
ATOM     13  C   UNL     1       9.089  10.595  17.796  0.00  0.00    +0.000 A 
ENDBRANCH   3   7
BRANCH   4  14
ATOM     14  C   UNL     1       6.986   5.701  17.141  0.00  0.00    +0.000 A 
ATOM     15  C   UNL     1       7.259   5.507  15.777  0.00  0.00    +0.000 A 
ATOM     16  C   UNL     1       6.464   4.669  14.995  0.00  0.00    +0.000 A 
ATOM     17 CL   UNL     1       6.851   4.430  13.336  0.00  0.00    +0.000 Cl
ATOM     18  C   UNL     1       5.359   4.031  15.543  0.00  0.00    +0.000 A 
ATOM     19  C   UNL     1       5.041   4.237  16.885  0.00  0.00    +0.000 A 
ATOM     20  C   UNL     1       5.858   5.054  17.693  0.00  0.00    +0.000 A 
BRANCH  20  21
ATOM     21  C   UNL     1       5.535   5.224  19.134  0.00  0.00    +0.000 C 
ATOM     22  O   UNL     1       4.432   5.582  19.519  0.00  0.00    +0.000 OA
BRANCH  21  23
ATOM     23  O   UNL     1       6.577   5.032  19.966  0.00  0.00    +0.000 OA
ATOM     24  H   UNL     1       6.418   5.251  20.903  0.00  0.00    +0.000 HD
ENDBRANCH  21  23
ENDBRANCH  20  21
ENDBRANCH   4  14
TORSDOF 4
ENDMDL
MODEL 5
REMARK VINA RESULT:      -7.4      1.511      1.716
REMARK  Name = 
REMARK  4 active torsions:
REMARK  status: ('A' for Active; 'I' for Inactive)
REMARK    1  A    between atoms: N_3  and  C_4
REMARK    2  A    between atoms: N_11  and  C_12
REMARK    3  A    between atoms: C_18  and  C_19
REMARK    4  A    between atoms: C_19  and  O_21
REMARK                            x       y       z     vdW  Elec       q    Type
REMARK                         _______ _______ _______ _____ _____    ______ ____
ROOT
ATOM      1  O   UNL     1       1.069   8.290  19.376  0.00  0.00    +0.000 OA
ATOM      2  C   UNL     1       1.555   7.915  20.439  0.00  0.00    +0.000 C 
ATOM      3  N   UNL     1       1.378   8.568  21.643  0.00  0.00    +0.000 N 
ATOM      4  N   UNL     1       2.399   6.822  20.536  0.00  0.00    +0.000 N 
ATOM      5  H   UNL     1       1.984   8.298  22.403  0.00  0.00    +0.000 HD
ATOM      6  H   UNL     1       2.879   6.672  21.421  0.00  0.00    +0.000 HD
ENDROOT
BRANCH   3   7
ATOM      7  C   UNL     1       0.645   9.771  21.802  0.00  0.00    +0.000 A 
ATOM      8  C   UNL     1       0.930  10.946  21.095  0.00  0.00    +0.000 A 
ATOM      9  C   UNL     1       0.256  12.138  21.371  0.00  0.00    +0.000 A 
ATOM     10  C   UNL     1      -0.731  12.158  22.349  0.00  0.00    +0.000 A 
ATOM     11 CL   UNL     1      -1.524  13.634  22.730  0.00  0.00    +0.000 Cl
ATOM     12  C   UNL     1      -1.070  10.987  23.023  0.00  0.00    +0.000 A 
ATOM     13  C   UNL     1      -0.393   9.792  22.742  0.00  0.00    +0.000 A 
ENDBRANCH   3   7
BRANCH   4  14
ATOM     14  C   UNL     1       2.819   6.001  19.449  0.00  0.00    +0.000 A 
ATOM     15  C   UNL     1       3.579   6.516  18.387  0.00  0.00    +0.000 A 
ATOM     16  C   UNL     1       4.023   5.694  17.352  0.00  0.00    +0.000 A 
ATOM     17 CL   UNL     1       4.981   6.356  16.085  0.00  0.00    +0.000 Cl
ATOM     18  C   UNL     1       3.694   4.344  17.332  0.00  0.00    +0.000 A 
ATOM     19  C   UNL     1       2.908   3.813  18.355  0.00  0.00    +0.000 A 
ATOM     20  C   UNL     1       2.484   4.629  19.422  0.00  0.00    +0.000 A 
BRANCH  20  21
ATOM     21  C   UNL     1       1.688   4.037  20.530  0.00  0.00    +0.000 C 
ATOM     22  O   UNL     1       2.133   3.915  21.662  0.00  0.00    +0.000 OA
BRANCH  21  23
ATOM     23  O   UNL     1       0.477   3.575  20.164  0.00  0.00    +0.000 OA
ATOM     24  H   UNL     1      -0.075   4.192  19.650  0.00  0.00    +0.000 HD
ENDBRANCH  21  23
ENDBRANCH  20  21
ENDBRANCH   4  14
TORSDOF 4
ENDMDL
MODEL 6
REMARK VINA RESULT:      -7.2      1.408      1.848
REMARK  Name = 
REMARK  4 active torsions:
REMARK  status: ('A' for Active; 'I' for Inactive)
REMARK    1  A    between atoms: N_3  and  C_4
REMARK    2  A    between atoms: N_11  and  C_12
REMARK    3  A    between atoms: C_18  and  C_19
REMARK    4  A    between atoms: C_19  and  O_21
REMARK                            x       y       z     vdW  Elec       q    Type
REMARK                         _______ _______ _______ _____ _____    ______ ____
ROOT
ATOM      1  O   UNL     1       1.283   8.145  19.364  0.00  0.00    +0.000 OA
ATOM      2  C   UNL     1       1.786   7.677  20.380  0.00  0.00    +0.000 C 
ATOM      3  N   UNL     1       1.606   8.204  21.644  0.00  0.00    +0.000 N 
ATOM      4  N   UNL     1       2.656   6.600  20.364  0.00  0.00    +0.000 N 
ATOM      5  H   UNL     1       2.223   7.873  22.371  0.00  0.00    +0.000 HD
ATOM      6  H   UNL     1       3.147   6.374  21.226  0.00  0.00    +0.000 HD
ENDROOT
BRANCH   3   7
ATOM      7  C   UNL     1       0.846   9.367  21.927  0.00  0.00    +0.000 A 
ATOM      8  C   UNL     1      -0.124   9.426  22.936  0.00  0.00    +0.000 A 
ATOM      9  C   UNL     1      -0.928  10.557  23.099  0.00  0.00    +0.000 A 
ATOM     10  C   UNL     1      -0.752  11.652  22.263  0.00  0.00    +0.000 A 
ATOM     11 CL   UNL     1      -1.776  13.023  22.425  0.00  0.00    +0.000 Cl
ATOM     12  C   UNL     1       0.247  11.636  21.292  0.00  0.00    +0.000 A 
ATOM     13  C   UNL     1       1.054  10.501  21.132  0.00  0.00    +0.000 A 
ENDBRANCH   3   7
BRANCH   4  14
ATOM     14  C   UNL     1       3.086   5.901  19.197  0.00  0.00    +0.000 A 
ATOM     15  C   UNL     1       3.870   6.522  18.213  0.00  0.00    +0.000 A 
ATOM     16  C   UNL     1       4.323   5.815  17.099  0.00  0.00    +0.000 A 
ATOM     17 CL   UNL     1       5.311   6.603  15.932  0.00  0.00    +0.000 Cl
ATOM     18  C   UNL     1       3.978   4.481  16.922  0.00  0.00    +0.000 A 
ATOM     19  C   UNL     1       3.167   3.850  17.864  0.00  0.00    +0.000 A 
ATOM     20  C   UNL     1       2.733   4.546  19.010  0.00  0.00    +0.000 A 
BRANCH  20  21
ATOM     21  C   UNL     1       1.911   3.844  20.031  0.00  0.00    +0.000 C 
ATOM     22  O   UNL     1       0.817   4.258  20.386  0.00  0.00    +0.000 OA
BRANCH  21  23
ATOM     23  O   UNL     1       2.505   2.770  20.586  0.00  0.00    +0.000 OA
ATOM     24  H   UNL     1       2.119   1.905  20.357  0.00  0.00    +0.000 HD
ENDBRANCH  21  23
ENDBRANCH  20  21
ENDBRANCH   4  14
TORSDOF 4
ENDMDL
MODEL 7
REMARK VINA RESULT:      -7.2      2.550      3.496
REMARK  Name = 
REMARK  4 active torsions:
REMARK  status: ('A' for Active; 'I' for Inactive)
REMARK    1  A    between atoms: N_3  and  C_4
REMARK    2  A    between atoms: N_11  and  C_12
REMARK    3  A    between atoms: C_18  and  C_19
REMARK    4  A    between atoms: C_19  and  O_21
REMARK                            x       y       z     vdW  Elec       q    Type
REMARK                         _______ _______ _______ _____ _____    ______ ____
ROOT
ATOM      1  O   UNL     1       3.700   7.482  17.440  0.00  0.00    +0.000 OA
ATOM      2  C   UNL     1       3.486   6.551  18.209  0.00  0.00    +0.000 C 
ATOM      3  N   UNL     1       2.628   6.623  19.289  0.00  0.00    +0.000 N 
ATOM      4  N   UNL     1       4.140   5.334  18.119  0.00  0.00    +0.000 N 
ATOM      5  H   UNL     1       2.684   5.879  19.968  0.00  0.00    +0.000 HD
ATOM      6  H   UNL     1       4.019   4.674  18.884  0.00  0.00    +0.000 HD
ENDROOT
BRANCH   3   7
ATOM      7  C   UNL     1       1.913   7.787  19.668  0.00  0.00    +0.000 A 
ATOM      8  C   UNL     1       1.627   8.836  18.786  0.00  0.00    +0.000 A 
ATOM      9  C   UNL     1       1.023  10.013  19.234  0.00  0.00    +0.000 A 
ATOM     10  C   UNL     1       0.678  10.142  20.573  0.00  0.00    +0.000 A 
ATOM     11 CL   UNL     1      -0.014  11.609  21.140  0.00  0.00    +0.000 Cl
ATOM     12  C   UNL     1       0.900   9.087  21.456  0.00  0.00    +0.000 A 
ATOM     13  C   UNL     1       1.505   7.906  21.003  0.00  0.00    +0.000 A 
ENDBRANCH   3   7
BRANCH   4  14
ATOM     14  C   UNL     1       5.132   4.996  17.152  0.00  0.00    +0.000 A 
ATOM     15  C   UNL     1       4.786   4.583  15.855  0.00  0.00    +0.000 A 
ATOM     16  C   UNL     1       5.766   4.300  14.904  0.00  0.00    +0.000 A 
ATOM     17 CL   UNL     1       5.303   3.830  13.315  0.00  0.00    +0.000 Cl
ATOM     18  C   UNL     1       7.114   4.389  15.230  0.00  0.00    +0.000 A 
ATOM     19  C   UNL     1       7.485   4.759  16.522  0.00  0.00    +0.000 A 
ATOM     20  C   UNL     1       6.503   5.081  17.480  0.00  0.00    +0.000 A 
BRANCH  20  21
ATOM     21  C   UNL     1       6.916   5.522  18.839  0.00  0.00    +0.000 C 
ATOM     22  O   UNL     1       6.367   5.116  19.853  0.00  0.00    +0.000 OA
BRANCH  21  23
ATOM     23  O   UNL     1       7.881   6.462  18.852  0.00  0.00    +0.000 OA
ATOM     24  H   UNL     1       8.567   6.356  19.537  0.00  0.00    +0.000 HD
ENDBRANCH  21  23
ENDBRANCH  20  21
ENDBRANCH   4  14
TORSDOF 4
ENDMDL
MODEL 8
REMARK VINA RESULT:      -7.1      2.571      3.671
REMARK  Name = 
REMARK  4 active torsions:
REMARK  status: ('A' for Active; 'I' for Inactive)
REMARK    1  A    between atoms: N_3  and  C_4
REMARK    2  A    between atoms: N_11  and  C_12
REMARK    3  A    between atoms: C_18  and  C_19
REMARK    4  A    between atoms: C_19  and  O_21
REMARK                            x       y       z     vdW  Elec       q    Type
REMARK                         _______ _______ _______ _____ _____    ______ ____
ROOT
ATOM      1  O   UNL     1       3.739   7.478  17.460  0.00  0.00    +0.000 OA
ATOM      2  C   UNL     1       3.507   6.534  18.209  0.00  0.00    +0.000 C 
ATOM      3  N   UNL     1       2.641   6.597  19.284  0.00  0.00    +0.000 N 
ATOM      4  N   UNL     1       4.146   5.311  18.101  0.00  0.00    +0.000 N 
ATOM      5  H   UNL     1       2.682   5.839  19.949  0.00  0.00    +0.000 HD
ATOM      6  H   UNL     1       4.011   4.638  18.853  0.00  0.00    +0.000 HD
ENDROOT
BRANCH   3   7
ATOM      7  C   UNL     1       1.937   7.762  19.679  0.00  0.00    +0.000 A 
ATOM      8  C   UNL     1       1.470   7.973  20.983  0.00  0.00    +0.000 A 
ATOM      9  C   UNL     1       0.680   9.082  21.296  0.00  0.00    +0.000 A 
ATOM     10  C   UNL     1       0.367  10.005  20.307  0.00  0.00    +0.000 A 
ATOM     11 CL   UNL     1      -0.650  11.340  20.675  0.00  0.00    +0.000 Cl
ATOM     12  C   UNL     1       0.871   9.844  19.017  0.00  0.00    +0.000 A 
ATOM     13  C   UNL     1       1.665   8.732  18.706  0.00  0.00    +0.000 A 
ENDBRANCH   3   7
BRANCH   4  14
ATOM     14  C   UNL     1       5.142   4.979  17.136  0.00  0.00    +0.000 A 
ATOM     15  C   UNL     1       4.802   4.562  15.840  0.00  0.00    +0.000 A 
ATOM     16  C   UNL     1       5.785   4.285  14.890  0.00  0.00    +0.000 A 
ATOM     17 CL   UNL     1       5.327   3.809  13.301  0.00  0.00    +0.000 Cl
ATOM     18  C   UNL     1       7.131   4.385  15.218  0.00  0.00    +0.000 A 
ATOM     19  C   UNL     1       7.498   4.759  16.510  0.00  0.00    +0.000 A 
ATOM     20  C   UNL     1       6.512   5.075  17.466  0.00  0.00    +0.000 A 
BRANCH  20  21
ATOM     21  C   UNL     1       6.920   5.521  18.825  0.00  0.00    +0.000 C 
ATOM     22  O   UNL     1       6.379   5.105  19.839  0.00  0.00    +0.000 OA
BRANCH  21  23
ATOM     23  O   UNL     1       7.870   6.476  18.838  0.00  0.00    +0.000 OA
ATOM     24  H   UNL     1       8.299   6.660  17.982  0.00  0.00    +0.000 HD
ENDBRANCH  21  23
ENDBRANCH  20  21
ENDBRANCH   4  14
TORSDOF 4
ENDMDL
MODEL 9
REMARK VINA RESULT:      -7.0      3.103      3.631
REMARK  Name = 
REMARK  4 active torsions:
REMARK  status: ('A' for Active; 'I' for Inactive)
REMARK    1  A    between atoms: N_3  and  C_4
REMARK    2  A    between atoms: N_11  and  C_12
REMARK    3  A    between atoms: C_18  and  C_19
REMARK    4  A    between atoms: C_19  and  O_21
REMARK                            x       y       z     vdW  Elec       q    Type
REMARK                         _______ _______ _______ _____ _____    ______ ____
ROOT
ATOM      1  O   UNL     1       2.210   7.710  19.881  0.00  0.00    +0.000 OA
ATOM      2  C   UNL     1       2.238   7.519  18.670  0.00  0.00    +0.000 C 
ATOM      3  N   UNL     1       1.872   8.462  17.729  0.00  0.00    +0.000 N 
ATOM      4  N   UNL     1       2.578   6.300  18.107  0.00  0.00    +0.000 N 
ATOM      5  H   UNL     1       1.734   8.137  16.784  0.00  0.00    +0.000 HD
ATOM      6  H   UNL     1       2.427   6.181  17.108  0.00  0.00    +0.000 HD
ENDROOT
BRANCH   3   7
ATOM      7  C   UNL     1       1.386   9.757  18.041  0.00  0.00    +0.000 A 
ATOM      8  C   UNL     1       2.216  10.875  18.191  0.00  0.00    +0.000 A 
ATOM      9  C   UNL     1       1.703  12.104  18.613  0.00  0.00    +0.000 A 
ATOM     10  C   UNL     1       0.344  12.230  18.869  0.00  0.00    +0.000 A 
ATOM     11 CL   UNL     1      -0.282  13.725  19.441  0.00  0.00    +0.000 Cl
ATOM     12  C   UNL     1      -0.508  11.146  18.669  0.00  0.00    +0.000 A 
ATOM     13  C   UNL     1       0.009   9.914  18.243  0.00  0.00    +0.000 A 
ENDBRANCH   3   7
BRANCH   4  14
ATOM     14  C   UNL     1       2.929   5.123  18.832  0.00  0.00    +0.000 A 
ATOM     15  C   UNL     1       2.056   4.547  19.768  0.00  0.00    +0.000 A 
ATOM     16  C   UNL     1       2.391   3.370  20.437  0.00  0.00    +0.000 A 
ATOM     17 CL   UNL     1       1.280   2.675  21.552  0.00  0.00    +0.000 Cl
ATOM     18  C   UNL     1       3.617   2.755  20.214  0.00  0.00    +0.000 A 
ATOM     19  C   UNL     1       4.520   3.328  19.318  0.00  0.00    +0.000 A 
ATOM     20  C   UNL     1       4.176   4.498  18.612  0.00  0.00    +0.000 A 
BRANCH  20  21
ATOM     21  C   UNL     1       5.129   5.068  17.623  0.00  0.00    +0.000 C 
ATOM     22  O   UNL     1       5.639   6.169  17.767  0.00  0.00    +0.000 OA
BRANCH  21  23
ATOM     23  O   UNL     1       5.316   4.310  16.525  0.00  0.00    +0.000 OA
ATOM     24  H   UNL     1       6.233   4.251  16.201  0.00  0.00    +0.000 HD
ENDBRANCH  21  23
ENDBRANCH  20  21
ENDBRANCH   4  14
TORSDOF 4
ENDMDL
