MODEL 1
REMARK VINA RESULT:      -6.4      0.000      0.000
REMARK  Name = 
REMARK  6 active torsions:
REMARK  status: ('A' for Active; 'I' for Inactive)
REMARK    1  A    between atoms: C_1  and  N_2
REMARK    2  A    between atoms: C_6  and  C_8
REMARK    3  A    between atoms: C_11  and  S_12
REMARK    4  A    between atoms: S_12  and  N_13
REMARK    5  A    between atoms: C_19  and  C_20
REMARK    6  A    between atoms: C_20  and  C_21
REMARK                            x       y       z     vdW  Elec       q    Type
REMARK                         _______ _______ _______ _____ _____    ______ ____
ROOT
ATOM      1  C   UNL     1       1.394   9.241  17.647  0.00  0.00    +0.000 C 
ATOM      2  N   UNL     1       1.084   9.812  18.943  0.00  0.00    +0.000 NA
ATOM      3  C   UNL     1       1.033   8.856  20.060  0.00  0.00    +0.000 C 
ATOM      4  C   UNL     1       0.924   9.574  21.435  0.00  0.00    +0.000 C 
ATOM      5  N   UNL     1      -0.044  10.683  21.452  0.00  0.00    +0.000 N 
ATOM      6  C   UNL     1      -0.582  11.067  22.692  0.00  0.00    +0.000 C 
ATOM      7  O   UNL     1      -0.275  10.507  23.745  0.00  0.00    +0.000 OA
ATOM      8  C   UNL     1       0.046  11.548  20.260  0.00  0.00    +0.000 C 
ATOM      9  C   UNL     1      -0.087  10.730  18.947  0.00  0.00    +0.000 C 
ENDROOT
BRANCH   6  10
ATOM     10  C   UNL     1      -1.605  12.153  22.772  0.00  0.00    +0.000 A 
ATOM     11  C   UNL     1      -1.254  13.406  23.260  0.00  0.00    +0.000 A 
ATOM     12  C   UNL     1      -2.181  14.427  23.421  0.00  0.00    +0.000 A 
ATOM     13  C   UNL     1      -3.475  14.239  22.966  0.00  0.00    +0.000 A 
ATOM     14  C   UNL     1      -3.843  13.026  22.373  0.00  0.00    +0.000 A 
ATOM     15  C   UNL     1      -2.904  11.981  22.279  0.00  0.00    +0.000 A 
BRANCH  13  16
ATOM     16  S   UNL     1      -4.608  15.588  23.154  0.00  0.00    +0.000 S 
ATOM     17  O   UNL     1      -3.972  16.628  23.933  0.00  0.00    +0.000 OA
ATOM     18  O   UNL     1      -5.262  15.843  21.894  0.00  0.00    +0.000 OA
BRANCH  16  19
ATOM     19  N   UNL     1      -5.763  14.899  24.160  0.00  0.00    +0.000 NA
ATOM     20  H   UNL     1      -5.640  13.886  24.191  0.00  0.00    +0.000 HD
ATOM     21  H   UNL     1      -5.751  15.351  25.074  0.00  0.00    +0.000 HD
ENDBRANCH  16  19
ENDBRANCH  13  16
ENDBRANCH   6  10
BRANCH   9  22
ATOM     22  C   UNL     1      -1.479  10.013  18.810  0.00  0.00    +0.000 C 
BRANCH  22  23
ATOM     23  C   UNL     1      -2.348  10.307  17.597  0.00  0.00    +0.000 A 
ATOM     24  C   UNL     1      -2.067   9.808  16.320  0.00  0.00    +0.000 A 
ATOM     25  C   UNL     1      -2.857  10.172  15.223  0.00  0.00    +0.000 A 
ATOM     26  C   UNL     1      -3.948  11.024  15.386  0.00  0.00    +0.000 A 
ATOM     27  C   UNL     1      -4.255  11.517  16.651  0.00  0.00    +0.000 A 
ATOM     28  C   UNL     1      -3.472  11.148  17.750  0.00  0.00    +0.000 A 
ENDBRANCH  22  23
ENDBRANCH   9  22
TORSDOF 5
ENDMDL
MODEL 2
REMARK VINA RESULT:      -6.3      7.481     10.351
REMARK  Name = 
REMARK  6 active torsions:
REMARK  status: ('A' for Active; 'I' for Inactive)
REMARK    1  A    between atoms: C_1  and  N_2
REMARK    2  A    between atoms: C_6  and  C_8
REMARK    3  A    between atoms: C_11  and  S_12
REMARK    4  A    between atoms: S_12  and  N_13
REMARK    5  A    between atoms: C_19  and  C_20
REMARK    6  A    between atoms: C_20  and  C_21
REMARK                            x       y       z     vdW  Elec       q    Type
REMARK                         _______ _______ _______ _____ _____    ______ ____
ROOT
ATOM      1  C   UNL     1       1.511   4.196  17.652  0.00  0.00    +0.000 C 
ATOM      2  N   UNL     1       2.936   4.461  17.597  0.00  0.00    +0.000 NA
ATOM      3  C   UNL     1       3.777   3.577  18.417  0.00  0.00    +0.000 C 
ATOM      4  C   UNL     1       5.291   3.777  18.124  0.00  0.00    +0.000 C 
ATOM      5  N   UNL     1       5.694   5.190  18.025  0.00  0.00    +0.000 N 
ATOM      6  C   UNL     1       7.045   5.506  18.256  0.00  0.00    +0.000 C 
ATOM      7  O   UNL     1       7.882   4.648  18.540  0.00  0.00    +0.000 OA
ATOM      8  C   UNL     1       4.754   6.006  17.233  0.00  0.00    +0.000 C 
ATOM      9  C   UNL     1       3.302   5.893  17.773  0.00  0.00    +0.000 C 
ENDROOT
BRANCH   6  10
ATOM     10  C   UNL     1       7.509   6.925  18.217  0.00  0.00    +0.000 A 
ATOM     11  C   UNL     1       8.519   7.351  19.071  0.00  0.00    +0.000 A 
ATOM     12  C   UNL     1       8.937   8.673  19.126  0.00  0.00    +0.000 A 
ATOM     13  C   UNL     1       8.424   9.580  18.214  0.00  0.00    +0.000 A 
ATOM     14  C   UNL     1       7.479   9.167  17.267  0.00  0.00    +0.000 A 
ATOM     15  C   UNL     1       7.021   7.836  17.273  0.00  0.00    +0.000 A 
BRANCH  13  16
ATOM     16  S   UNL     1       9.023  11.245  18.296  0.00  0.00    +0.000 S 
ATOM     17  O   UNL     1       8.238  12.069  17.404  0.00  0.00    +0.000 OA
ATOM     18  O   UNL     1       9.270  11.597  19.673  0.00  0.00    +0.000 OA
BRANCH  16  19
ATOM     19  N   UNL     1      10.528  11.081  17.568  0.00  0.00    +0.000 NA
ATOM     20  H   UNL     1      10.722  11.892  16.980  0.00  0.00    +0.000 HD
ATOM     21  H   UNL     1      11.242  10.893  18.271  0.00  0.00    +0.000 HD
ENDBRANCH  16  19
ENDBRANCH  13  16
ENDBRANCH   6  10
BRANCH   9  22
ATOM     22  C   UNL     1       3.151   6.429  19.242  0.00  0.00    +0.000 C 
BRANCH  22  23
ATOM     23  C   UNL     1       2.244   7.622  19.506  0.00  0.00    +0.000 A 
ATOM     24  C   UNL     1       1.607   7.838  20.733  0.00  0.00    +0.000 A 
ATOM     25  C   UNL     1       0.723   8.910  20.897  0.00  0.00    +0.000 A 
ATOM     26  C   UNL     1       0.474   9.792  19.846  0.00  0.00    +0.000 A 
ATOM     27  C   UNL     1       1.111   9.605  18.624  0.00  0.00    +0.000 A 
ATOM     28  C   UNL     1       2.002   8.538  18.460  0.00  0.00    +0.000 A 
ENDBRANCH  22  23
ENDBRANCH   9  22
TORSDOF 5
ENDMDL
MODEL 3
REMARK VINA RESULT:      -6.2      1.663      2.233
REMARK  Name = 
REMARK  6 active torsions:
REMARK  status: ('A' for Active; 'I' for Inactive)
REMARK    1  A    between atoms: C_1  and  N_2
REMARK    2  A    between atoms: C_6  and  C_8
REMARK    3  A    between atoms: C_11  and  S_12
REMARK    4  A    between atoms: S_12  and  N_13
REMARK    5  A    between atoms: C_19  and  C_20
REMARK    6  A    between atoms: C_20  and  C_21
REMARK                            x       y       z     vdW  Elec       q    Type
REMARK                         _______ _______ _______ _____ _____    ______ ____
ROOT
ATOM      1  C   UNL     1       1.692   9.102  18.187  0.00  0.00    +0.000 C 
ATOM      2  N   UNL     1       1.153   9.984  19.205  0.00  0.00    +0.000 NA
ATOM      3  C   UNL     1       0.920   9.366  20.519  0.00  0.00    +0.000 C 
ATOM      4  C   UNL     1       0.565  10.422  21.604  0.00  0.00    +0.000 C 
ATOM      5  N   UNL     1      -0.406  11.433  21.153  0.00  0.00    +0.000 N 
ATOM      6  C   UNL     1      -1.156  12.107  22.132  0.00  0.00    +0.000 C 
ATOM      7  O   UNL     1      -1.031  11.873  23.335  0.00  0.00    +0.000 OA
ATOM      8  C   UNL     1      -0.120  11.946  19.799  0.00  0.00    +0.000 C 
ATOM      9  C   UNL     1      -0.012  10.796  18.762  0.00  0.00    +0.000 C 
ENDROOT
BRANCH   6  10
ATOM     10  C   UNL     1      -2.191  13.110  21.738  0.00  0.00    +0.000 A 
ATOM     11  C   UNL     1      -3.400  12.688  21.197  0.00  0.00    +0.000 A 
ATOM     12  C   UNL     1      -4.364  13.579  20.749  0.00  0.00    +0.000 A 
ATOM     13  C   UNL     1      -4.177  14.935  20.959  0.00  0.00    +0.000 A 
ATOM     14  C   UNL     1      -3.019  15.395  21.594  0.00  0.00    +0.000 A 
ATOM     15  C   UNL     1      -2.023  14.478  21.982  0.00  0.00    +0.000 A 
BRANCH  13  16
ATOM     16  S   UNL     1      -5.459  16.028  20.409  0.00  0.00    +0.000 S 
ATOM     17  O   UNL     1      -6.590  15.911  21.303  0.00  0.00    +0.000 OA
ATOM     18  O   UNL     1      -4.879  17.298  20.043  0.00  0.00    +0.000 OA
BRANCH  16  19
ATOM     19  N   UNL     1      -5.923  15.285  18.976  0.00  0.00    +0.000 NA
ATOM     20  H   UNL     1      -6.519  14.481  19.177  0.00  0.00    +0.000 HD
ATOM     21  H   UNL     1      -6.337  15.967  18.342  0.00  0.00    +0.000 HD
ENDBRANCH  16  19
ENDBRANCH  13  16
ENDBRANCH   6  10
BRANCH   9  22
ATOM     22  C   UNL     1      -1.350   9.986  18.603  0.00  0.00    +0.000 C 
BRANCH  22  23
ATOM     23  C   UNL     1      -2.322  10.371  17.498  0.00  0.00    +0.000 A 
ATOM     24  C   UNL     1      -3.424  11.207  17.709  0.00  0.00    +0.000 A 
ATOM     25  C   UNL     1      -4.330  11.466  16.674  0.00  0.00    +0.000 A 
ATOM     26  C   UNL     1      -4.141  10.910  15.410  0.00  0.00    +0.000 A 
ATOM     27  C   UNL     1      -3.042  10.090  15.175  0.00  0.00    +0.000 A 
ATOM     28  C   UNL     1      -2.131   9.836  16.205  0.00  0.00    +0.000 A 
ENDBRANCH  22  23
ENDBRANCH   9  22
TORSDOF 5
ENDMDL
MODEL 4
REMARK VINA RESULT:      -6.1      1.112      1.639
REMARK  Name = 
REMARK  6 active torsions:
REMARK  status: ('A' for Active; 'I' for Inactive)
REMARK    1  A    between atoms: C_1  and  N_2
REMARK    2  A    between atoms: C_6  and  C_8
REMARK    3  A    between atoms: C_11  and  S_12
REMARK    4  A    between atoms: S_12  and  N_13
REMARK    5  A    between atoms: C_19  and  C_20
REMARK    6  A    between atoms: C_20  and  C_21
REMARK                            x       y       z     vdW  Elec       q    Type
REMARK                         _______ _______ _______ _____ _____    ______ ____
ROOT
ATOM      1  C   UNL     1       1.969   9.244  17.660  0.00  0.00    +0.000 C 
ATOM      2  N   UNL     1       1.466   9.791  18.905  0.00  0.00    +0.000 NA
ATOM      3  C   UNL     1       1.409   8.849  20.032  0.00  0.00    +0.000 C 
ATOM      4  C   UNL     1       1.081   9.565  21.373  0.00  0.00    +0.000 C 
ATOM      5  N   UNL     1      -0.003  10.556  21.267  0.00  0.00    +0.000 N 
ATOM      6  C   UNL     1      -0.704  10.891  22.439  0.00  0.00    +0.000 C 
ATOM      7  O   UNL     1      -0.445  10.382  23.530  0.00  0.00    +0.000 OA
ATOM      8  C   UNL     1       0.111  11.413  20.071  0.00  0.00    +0.000 C 
ATOM      9  C   UNL     1       0.205  10.569  18.770  0.00  0.00    +0.000 C 
ENDROOT
BRANCH   6  10
ATOM     10  C   UNL     1      -1.846  11.854  22.390  0.00  0.00    +0.000 A 
ATOM     11  C   UNL     1      -2.743  11.925  23.449  0.00  0.00    +0.000 A 
ATOM     12  C   UNL     1      -3.859  12.749  23.423  0.00  0.00    +0.000 A 
ATOM     13  C   UNL     1      -4.022  13.627  22.365  0.00  0.00    +0.000 A 
ATOM     14  C   UNL     1      -3.084  13.662  21.328  0.00  0.00    +0.000 A 
ATOM     15  C   UNL     1      -1.994  12.770  21.342  0.00  0.00    +0.000 A 
BRANCH  13  16
ATOM     16  S   UNL     1      -5.439  14.691  22.402  0.00  0.00    +0.000 S 
ATOM     17  O   UNL     1      -6.506  14.024  23.114  0.00  0.00    +0.000 OA
ATOM     18  O   UNL     1      -5.018  16.037  22.704  0.00  0.00    +0.000 OA
BRANCH  16  19
ATOM     19  N   UNL     1      -5.888  14.683  20.784  0.00  0.00    +0.000 NA
ATOM     20  H   UNL     1      -6.695  15.292  20.642  0.00  0.00    +0.000 HD
ATOM     21  H   UNL     1      -5.087  14.905  20.194  0.00  0.00    +0.000 HD
ENDBRANCH  16  19
ENDBRANCH  13  16
ENDBRANCH   6  10
BRANCH   9  22
ATOM     22  C   UNL     1      -1.077   9.697  18.512  0.00  0.00    +0.000 C 
BRANCH  22  23
ATOM     23  C   UNL     1      -2.220  10.283  17.697  0.00  0.00    +0.000 A 
ATOM     24  C   UNL     1      -3.229  11.073  18.259  0.00  0.00    +0.000 A 
ATOM     25  C   UNL     1      -4.300  11.522  17.477  0.00  0.00    +0.000 A 
ATOM     26  C   UNL     1      -4.370  11.207  16.121  0.00  0.00    +0.000 A 
ATOM     27  C   UNL     1      -3.367  10.439  15.539  0.00  0.00    +0.000 A 
ATOM     28  C   UNL     1      -2.292   9.994  16.317  0.00  0.00    +0.000 A 
ENDBRANCH  22  23
ENDBRANCH   9  22
TORSDOF 5
ENDMDL
MODEL 5
REMARK VINA RESULT:      -6.1      1.053      1.499
REMARK  Name = 
REMARK  6 active torsions:
REMARK  status: ('A' for Active; 'I' for Inactive)
REMARK    1  A    between atoms: C_1  and  N_2
REMARK    2  A    between atoms: C_6  and  C_8
REMARK    3  A    between atoms: C_11  and  S_12
REMARK    4  A    between atoms: S_12  and  N_13
REMARK    5  A    between atoms: C_19  and  C_20
REMARK    6  A    between atoms: C_20  and  C_21
REMARK                            x       y       z     vdW  Elec       q    Type
REMARK                         _______ _______ _______ _____ _____    ______ ____
ROOT
ATOM      1  C   UNL     1       1.881   8.713  17.740  0.00  0.00    +0.000 C 
ATOM      2  N   UNL     1       1.548   9.288  19.028  0.00  0.00    +0.000 NA
ATOM      3  C   UNL     1       1.436   8.332  20.140  0.00  0.00    +0.000 C 
ATOM      4  C   UNL     1       1.307   9.049  21.514  0.00  0.00    +0.000 C 
ATOM      5  N   UNL     1       0.371  10.185  21.505  0.00  0.00    +0.000 N 
ATOM      6  C   UNL     1      -0.193  10.582  22.730  0.00  0.00    +0.000 C 
ATOM      7  O   UNL     1       0.065  10.010  23.790  0.00  0.00    +0.000 OA
ATOM      8  C   UNL     1       0.522  11.051  20.319  0.00  0.00    +0.000 C 
ATOM      9  C   UNL     1       0.405  10.240  19.000  0.00  0.00    +0.000 C 
ENDROOT
BRANCH   6  10
ATOM     10  C   UNL     1      -1.187  11.697  22.782  0.00  0.00    +0.000 A 
ATOM     11  C   UNL     1      -0.883  12.928  22.212  0.00  0.00    +0.000 A 
ATOM     12  C   UNL     1      -1.739  14.016  22.296  0.00  0.00    +0.000 A 
ATOM     13  C   UNL     1      -2.994  13.844  22.854  0.00  0.00    +0.000 A 
ATOM     14  C   UNL     1      -3.379  12.592  23.347  0.00  0.00    +0.000 A 
ATOM     15  C   UNL     1      -2.470  11.518  23.311  0.00  0.00    +0.000 A 
BRANCH  13  16
ATOM     16  S   UNL     1      -4.067  15.253  22.896  0.00  0.00    +0.000 S 
ATOM     17  O   UNL     1      -5.301  14.883  23.554  0.00  0.00    +0.000 OA
ATOM     18  O   UNL     1      -3.306  16.423  23.262  0.00  0.00    +0.000 OA
BRANCH  16  19
ATOM     19  N   UNL     1      -4.444  15.419  21.268  0.00  0.00    +0.000 NA
ATOM     20  H   UNL     1      -4.862  16.334  21.098  0.00  0.00    +0.000 HD
ATOM     21  H   UNL     1      -3.626  15.217  20.694  0.00  0.00    +0.000 HD
ENDBRANCH  16  19
ENDBRANCH  13  16
ENDBRANCH   6  10
BRANCH   9  22
ATOM     22  C   UNL     1      -1.003   9.564  18.819  0.00  0.00    +0.000 C 
BRANCH  22  23
ATOM     23  C   UNL     1      -2.043  10.243  17.941  0.00  0.00    +0.000 A 
ATOM     24  C   UNL     1      -2.905  11.240  18.412  0.00  0.00    +0.000 A 
ATOM     25  C   UNL     1      -3.895  11.776  17.581  0.00  0.00    +0.000 A 
ATOM     26  C   UNL     1      -4.029  11.340  16.264  0.00  0.00    +0.000 A 
ATOM     27  C   UNL     1      -3.170  10.363  15.770  0.00  0.00    +0.000 A 
ATOM     28  C   UNL     1      -2.175   9.831  16.597  0.00  0.00    +0.000 A 
ENDBRANCH  22  23
ENDBRANCH   9  22
TORSDOF 5
ENDMDL
MODEL 6
REMARK VINA RESULT:      -6.1      1.007      1.362
REMARK  Name = 
REMARK  6 active torsions:
REMARK  status: ('A' for Active; 'I' for Inactive)
REMARK    1  A    between atoms: C_1  and  N_2
REMARK    2  A    between atoms: C_6  and  C_8
REMARK    3  A    between atoms: C_11  and  S_12
REMARK    4  A    between atoms: S_12  and  N_13
REMARK    5  A    between atoms: C_19  and  C_20
REMARK    6  A    between atoms: C_20  and  C_21
REMARK                            x       y       z     vdW  Elec       q    Type
REMARK                         _______ _______ _______ _____ _____    ______ ____
ROOT
ATOM      1  C   UNL     1       1.683   8.982  17.790  0.00  0.00    +0.000 C 
ATOM      2  N   UNL     1       1.269   9.681  18.991  0.00  0.00    +0.000 NA
ATOM      3  C   UNL     1       1.170   8.854  20.202  0.00  0.00    +0.000 C 
ATOM      4  C   UNL     1       0.948   9.714  21.478  0.00  0.00    +0.000 C 
ATOM      5  N   UNL     1      -0.052  10.782  21.307  0.00  0.00    +0.000 N 
ATOM      6  C   UNL     1      -0.684  11.281  22.459  0.00  0.00    +0.000 C 
ATOM      7  O   UNL     1      -0.433  10.852  23.587  0.00  0.00    +0.000 OA
ATOM      8  C   UNL     1       0.094  11.513  20.034  0.00  0.00    +0.000 C 
ATOM      9  C   UNL     1       0.074  10.550  18.816  0.00  0.00    +0.000 C 
ENDROOT
BRANCH   6  10
ATOM     10  C   UNL     1      -1.741  12.331  22.350  0.00  0.00    +0.000 A 
ATOM     11  C   UNL     1      -2.680  12.271  21.327  0.00  0.00    +0.000 A 
ATOM     12  C   UNL     1      -3.637  13.258  21.138  0.00  0.00    +0.000 A 
ATOM     13  C   UNL     1      -3.748  14.275  22.070  0.00  0.00    +0.000 A 
ATOM     14  C   UNL     1      -2.888  14.315  23.173  0.00  0.00    +0.000 A 
ATOM     15  C   UNL     1      -1.881  13.340  23.310  0.00  0.00    +0.000 A 
BRANCH  13  16
ATOM     16  S   UNL     1      -5.015  15.486  21.808  0.00  0.00    +0.000 S 
ATOM     17  O   UNL     1      -4.842  16.067  20.495  0.00  0.00    +0.000 OA
ATOM     18  O   UNL     1      -6.277  14.964  22.272  0.00  0.00    +0.000 OA
BRANCH  16  19
ATOM     19  N   UNL     1      -4.557  16.673  22.903  0.00  0.00    +0.000 NA
ATOM     20  H   UNL     1      -3.558  16.599  23.102  0.00  0.00    +0.000 HD
ATOM     21  H   UNL     1      -4.852  17.591  22.572  0.00  0.00    +0.000 HD
ENDBRANCH  16  19
ENDBRANCH  13  16
ENDBRANCH   6  10
BRANCH   9  22
ATOM     22  C   UNL     1      -1.284   9.772  18.671  0.00  0.00    +0.000 C 
BRANCH  22  23
ATOM     23  C   UNL     1      -2.265  10.190  17.587  0.00  0.00    +0.000 A 
ATOM     24  C   UNL     1      -2.142   9.788  16.252  0.00  0.00    +0.000 A 
ATOM     25  C   UNL     1      -3.029  10.264  15.280  0.00  0.00    +0.000 A 
ATOM     26  C   UNL     1      -4.063  11.132  15.627  0.00  0.00    +0.000 A 
ATOM     27  C   UNL     1      -4.214  11.529  16.952  0.00  0.00    +0.000 A 
ATOM     28  C   UNL     1      -3.333  11.049  17.927  0.00  0.00    +0.000 A 
ENDBRANCH  22  23
ENDBRANCH   9  22
TORSDOF 5
ENDMDL
MODEL 7
REMARK VINA RESULT:      -6.1      1.525      1.889
REMARK  Name = 
REMARK  6 active torsions:
REMARK  status: ('A' for Active; 'I' for Inactive)
REMARK    1  A    between atoms: C_1  and  N_2
REMARK    2  A    between atoms: C_6  and  C_8
REMARK    3  A    between atoms: C_11  and  S_12
REMARK    4  A    between atoms: S_12  and  N_13
REMARK    5  A    between atoms: C_19  and  C_20
REMARK    6  A    between atoms: C_20  and  C_21
REMARK                            x       y       z     vdW  Elec       q    Type
REMARK                         _______ _______ _______ _____ _____    ______ ____
ROOT
ATOM      1  C   UNL     1       1.839   8.732  17.902  0.00  0.00    +0.000 C 
ATOM      2  N   UNL     1       1.356   9.588  18.969  0.00  0.00    +0.000 NA
ATOM      3  C   UNL     1       1.141   8.926  20.264  0.00  0.00    +0.000 C 
ATOM      4  C   UNL     1       0.849   9.948  21.399  0.00  0.00    +0.000 C 
ATOM      5  N   UNL     1      -0.102  11.006  21.015  0.00  0.00    +0.000 N 
ATOM      6  C   UNL     1      -0.804  11.662  22.041  0.00  0.00    +0.000 C 
ATOM      7  O   UNL     1      -0.652  11.377  23.230  0.00  0.00    +0.000 OA
ATOM      8  C   UNL     1       0.163  11.564  19.675  0.00  0.00    +0.000 C 
ATOM      9  C   UNL     1       0.206  10.453  18.591  0.00  0.00    +0.000 C 
ENDROOT
BRANCH   6  10
ATOM     10  C   UNL     1      -1.817  12.711  21.716  0.00  0.00    +0.000 A 
ATOM     11  C   UNL     1      -1.424  13.892  21.098  0.00  0.00    +0.000 A 
ATOM     12  C   UNL     1      -2.312  14.926  20.840  0.00  0.00    +0.000 A 
ATOM     13  C   UNL     1      -3.660  14.734  21.089  0.00  0.00    +0.000 A 
ATOM     14  C   UNL     1      -4.112  13.519  21.615  0.00  0.00    +0.000 A 
ATOM     15  C   UNL     1      -3.185  12.507  21.931  0.00  0.00    +0.000 A 
BRANCH  13  16
ATOM     16  S   UNL     1      -4.758  16.069  20.699  0.00  0.00    +0.000 S 
ATOM     17  O   UNL     1      -5.689  16.243  21.793  0.00  0.00    +0.000 OA
ATOM     18  O   UNL     1      -4.003  17.160  20.133  0.00  0.00    +0.000 OA
BRANCH  16  19
ATOM     19  N   UNL     1      -5.645  15.399  19.441  0.00  0.00    +0.000 NA
ATOM     20  H   UNL     1      -5.781  14.400  19.602  0.00  0.00    +0.000 HD
ATOM     21  H   UNL     1      -6.509  15.922  19.299  0.00  0.00    +0.000 HD
ENDBRANCH  16  19
ENDBRANCH  13  16
ENDBRANCH   6  10
BRANCH   9  22
ATOM     22  C   UNL     1      -1.161   9.691  18.439  0.00  0.00    +0.000 C 
BRANCH  22  23
ATOM     23  C   UNL     1      -2.341  10.406  17.800  0.00  0.00    +0.000 A 
ATOM     24  C   UNL     1      -3.173  11.284  18.504  0.00  0.00    +0.000 A 
ATOM     25  C   UNL     1      -4.291  11.856  17.886  0.00  0.00    +0.000 A 
ATOM     26  C   UNL     1      -4.585  11.575  16.552  0.00  0.00    +0.000 A 
ATOM     27  C   UNL     1      -3.760  10.719  15.829  0.00  0.00    +0.000 A 
ATOM     28  C   UNL     1      -2.638  10.152  16.443  0.00  0.00    +0.000 A 
ENDBRANCH  22  23
ENDBRANCH   9  22
TORSDOF 5
ENDMDL
MODEL 8
REMARK VINA RESULT:      -6.0      2.220      2.887
REMARK  Name = 
REMARK  6 active torsions:
REMARK  status: ('A' for Active; 'I' for Inactive)
REMARK    1  A    between atoms: C_1  and  N_2
REMARK    2  A    between atoms: C_6  and  C_8
REMARK    3  A    between atoms: C_11  and  S_12
REMARK    4  A    between atoms: S_12  and  N_13
REMARK    5  A    between atoms: C_19  and  C_20
REMARK    6  A    between atoms: C_20  and  C_21
REMARK                            x       y       z     vdW  Elec       q    Type
REMARK                         _______ _______ _______ _____ _____    ______ ____
ROOT
ATOM      1  C   UNL     1       1.437   9.399  19.551  0.00  0.00    +0.000 C 
ATOM      2  N   UNL     1       0.582  10.289  20.313  0.00  0.00    +0.000 NA
ATOM      3  C   UNL     1       0.066   9.743  21.577  0.00  0.00    +0.000 C 
ATOM      4  C   UNL     1      -0.644  10.829  22.434  0.00  0.00    +0.000 C 
ATOM      5  N   UNL     1      -1.542  11.703  21.660  0.00  0.00    +0.000 N 
ATOM      6  C   UNL     1      -2.574  12.362  22.350  0.00  0.00    +0.000 C 
ATOM      7  O   UNL     1      -2.747  12.226  23.562  0.00  0.00    +0.000 OA
ATOM      8  C   UNL     1      -0.955  12.148  20.381  0.00  0.00    +0.000 C 
ATOM      9  C   UNL     1      -0.489  10.946  19.516  0.00  0.00    +0.000 C 
ENDROOT
BRANCH   6  10
ATOM     10  C   UNL     1      -3.548  13.225  21.616  0.00  0.00    +0.000 A 
ATOM     11  C   UNL     1      -4.681  12.663  21.042  0.00  0.00    +0.000 A 
ATOM     12  C   UNL     1      -5.579  13.407  20.289  0.00  0.00    +0.000 A 
ATOM     13  C   UNL     1      -5.414  14.779  20.207  0.00  0.00    +0.000 A 
ATOM     14  C   UNL     1      -4.341  15.399  20.858  0.00  0.00    +0.000 A 
ATOM     15  C   UNL     1      -3.406  14.617  21.562  0.00  0.00    +0.000 A 
BRANCH  13  16
ATOM     16  S   UNL     1      -6.613  15.689  19.271  0.00  0.00    +0.000 S 
ATOM     17  O   UNL     1      -6.998  14.906  18.118  0.00  0.00    +0.000 OA
ATOM     18  O   UNL     1      -7.572  16.281  20.171  0.00  0.00    +0.000 OA
BRANCH  16  19
ATOM     19  N   UNL     1      -5.671  16.948  18.681  0.00  0.00    +0.000 NA
ATOM     20  H   UNL     1      -4.871  17.103  19.296  0.00  0.00    +0.000 HD
ATOM     21  H   UNL     1      -5.425  16.778  17.707  0.00  0.00    +0.000 HD
ENDBRANCH  16  19
ENDBRANCH  13  16
ENDBRANCH   6  10
BRANCH   9  22
ATOM     22  C   UNL     1      -1.669   9.995  19.100  0.00  0.00    +0.000 C 
BRANCH  22  23
ATOM     23  C   UNL     1      -2.459  10.303  17.837  0.00  0.00    +0.000 A 
ATOM     24  C   UNL     1      -2.065   9.867  16.567  0.00  0.00    +0.000 A 
ATOM     25  C   UNL     1      -2.787  10.244  15.429  0.00  0.00    +0.000 A 
ATOM     26  C   UNL     1      -3.922  11.046  15.542  0.00  0.00    +0.000 A 
ATOM     27  C   UNL     1      -4.340  11.476  16.797  0.00  0.00    +0.000 A 
ATOM     28  C   UNL     1      -3.625  11.094  17.937  0.00  0.00    +0.000 A 
ENDBRANCH  22  23
ENDBRANCH   9  22
TORSDOF 5
ENDMDL
MODEL 9
REMARK VINA RESULT:      -6.0      9.211     11.278
REMARK  Name = 
REMARK  6 active torsions:
REMARK  status: ('A' for Active; 'I' for Inactive)
REMARK    1  A    between atoms: C_1  and  N_2
REMARK    2  A    between atoms: C_6  and  C_8
REMARK    3  A    between atoms: C_11  and  S_12
REMARK    4  A    between atoms: S_12  and  N_13
REMARK    5  A    between atoms: C_19  and  C_20
REMARK    6  A    between atoms: C_20  and  C_21
REMARK                            x       y       z     vdW  Elec       q    Type
REMARK                         _______ _______ _______ _____ _____    ______ ____
ROOT
ATOM      1  C   UNL     1      12.060  13.281  17.141  0.00  0.00    +0.000 C 
ATOM      2  N   UNL     1      10.951  14.202  17.299  0.00  0.00    +0.000 NA
ATOM      3  C   UNL     1      11.311  15.628  17.325  0.00  0.00    +0.000 C 
ATOM      4  C   UNL     1      10.057  16.546  17.266  0.00  0.00    +0.000 C 
ATOM      5  N   UNL     1       8.961  16.111  18.147  0.00  0.00    +0.000 N 
ATOM      6  C   UNL     1       8.020  17.074  18.550  0.00  0.00    +0.000 C 
ATOM      7  O   UNL     1       8.091  18.252  18.197  0.00  0.00    +0.000 OA
ATOM      8  C   UNL     1       8.718  14.656  18.095  0.00  0.00    +0.000 C 
ATOM      9  C   UNL     1      10.010  13.849  18.396  0.00  0.00    +0.000 C 
ENDROOT
BRANCH   6  10
ATOM     10  C   UNL     1       6.911  16.708  19.482  0.00  0.00    +0.000 A 
ATOM     11  C   UNL     1       7.168  16.534  20.837  0.00  0.00    +0.000 A 
ATOM     12  C   UNL     1       6.190  16.125  21.731  0.00  0.00    +0.000 A 
ATOM     13  C   UNL     1       4.882  16.006  21.291  0.00  0.00    +0.000 A 
ATOM     14  C   UNL     1       4.563  16.273  19.955  0.00  0.00    +0.000 A 
ATOM     15  C   UNL     1       5.582  16.623  19.050  0.00  0.00    +0.000 A 
BRANCH  13  16
ATOM     16  S   UNL     1       3.663  15.524  22.483  0.00  0.00    +0.000 S 
ATOM     17  O   UNL     1       2.773  16.639  22.718  0.00  0.00    +0.000 OA
ATOM     18  O   UNL     1       3.190  14.197  22.174  0.00  0.00    +0.000 OA
BRANCH  16  19
ATOM     19  N   UNL     1       4.604  15.385  23.867  0.00  0.00    +0.000 NA
ATOM     20  H   UNL     1       5.060  16.275  24.071  0.00  0.00    +0.000 HD
ATOM     21  H   UNL     1       4.048  15.013  24.637  0.00  0.00    +0.000 HD
ENDBRANCH  16  19
ENDBRANCH  13  16
ENDBRANCH   6  10
BRANCH   9  22
ATOM     22  C   UNL     1      10.569  14.105  19.843  0.00  0.00    +0.000 C 
BRANCH  22  23
ATOM     23  C   UNL     1       9.805  13.560  21.040  0.00  0.00    +0.000 A 
ATOM     24  C   UNL     1       9.252  12.275  21.070  0.00  0.00    +0.000 A 
ATOM     25  C   UNL     1       8.492  11.852  22.166  0.00  0.00    +0.000 A 
ATOM     26  C   UNL     1       8.288  12.696  23.256  0.00  0.00    +0.000 A 
ATOM     27  C   UNL     1       8.845  13.971  23.254  0.00  0.00    +0.000 A 
ATOM     28  C   UNL     1       9.611  14.394  22.163  0.00  0.00    +0.000 A 
ENDBRANCH  22  23
ENDBRANCH   9  22
TORSDOF 5
ENDMDL
