MODEL 1
REMARK VINA RESULT:      -7.2      0.000      0.000
REMARK  Name = 
REMARK  5 active torsions:
REMARK  status: ('A' for Active; 'I' for Inactive)
REMARK    1  A    between atoms: C_1  and  C_2
REMARK    2  A    between atoms: C_2  and  C_3
REMARK    3  A    between atoms: C_3  and  C_4
REMARK    4  A    between atoms: C_3  and  N_5
REMARK    5  A    between atoms: C_13  and  N_14
REMARK                            x       y       z     vdW  Elec       q    Type
REMARK                         _______ _______ _______ _____ _____    ______ ____
ROOT
ATOM      1  N   UNL     1       4.034   7.076  16.804  0.00  0.00    +0.000 N 
ATOM      2  C   UNL     1       5.041   6.178  17.054  0.00  0.00    +0.000 C 
ATOM      3  N   UNL     1       5.807   6.249  18.095  0.00  0.00    +0.000 NA
ATOM      4  S   UNL     1       6.477   4.900  18.677  0.00  0.00    +0.000 S 
ATOM      5  O   UNL     1       7.502   4.369  17.806  0.00  0.00    +0.000 OA
ATOM      6  O   UNL     1       6.742   5.098  20.092  0.00  0.00    +0.000 OA
ATOM      7  C   UNL     1       5.069   3.788  18.592  0.00  0.00    +0.000 A 
ATOM      8  C   UNL     1       4.453   3.350  19.765  0.00  0.00    +0.000 A 
ATOM      9  C   UNL     1       3.140   2.873  19.678  0.00  0.00    +0.000 A 
ATOM     10  C   UNL     1       2.491   2.739  18.439  0.00  0.00    +0.000 A 
ATOM     11  C   UNL     1       3.139   3.134  17.270  0.00  0.00    +0.000 A 
ATOM     12  C   UNL     1       4.406   3.711  17.355  0.00  0.00    +0.000 A 
ATOM     13  S   UNL     1       4.932   4.758  16.006  0.00  0.00    +0.000 S 
ATOM     14  H   UNL     1       3.428   6.765  16.050  0.00  0.00    +0.000 HD
ENDROOT
BRANCH   9  15
ATOM     15  N   UNL     1       2.364   2.659  20.913  0.00  0.00    +0.000 N 
ATOM     16  O   UNL     1       2.988   2.363  21.940  0.00  0.00    +0.000 OA
ATOM     17  O   UNL     1       1.138   2.828  20.855  0.00  0.00    +0.000 OA
ENDBRANCH   9  15
BRANCH   1  18
ATOM     18  C   UNL     1       3.288   7.592  17.969  0.00  0.00    +0.000 C 
ATOM     19  C   UNL     1       2.354   6.516  18.524  0.00  0.00    +0.000 C 
BRANCH  18  21
ATOM     20  C   UNL     1       1.361   9.192  18.419  0.00  0.00    +0.000 C 
ATOM     21  C   UNL     1       2.566   8.873  17.550  0.00  0.00    +0.000 C 
ENDBRANCH  18  21
ENDBRANCH   1  18
TORSDOF 3
ENDMDL
MODEL 2
REMARK VINA RESULT:      -6.9      2.458      4.666
REMARK  Name = 
REMARK  5 active torsions:
REMARK  status: ('A' for Active; 'I' for Inactive)
REMARK    1  A    between atoms: C_1  and  C_2
REMARK    2  A    between atoms: C_2  and  C_3
REMARK    3  A    between atoms: C_3  and  C_4
REMARK    4  A    between atoms: C_3  and  N_5
REMARK    5  A    between atoms: C_13  and  N_14
REMARK                            x       y       z     vdW  Elec       q    Type
REMARK                         _______ _______ _______ _____ _____    ______ ____
ROOT
ATOM      1  N   UNL     1       2.345   6.860  19.183  0.00  0.00    +0.000 N 
ATOM      2  C   UNL     1       2.383   5.489  19.134  0.00  0.00    +0.000 C 
ATOM      3  N   UNL     1       1.856   4.803  18.172  0.00  0.00    +0.000 NA
ATOM      4  S   UNL     1       2.463   3.351  17.810  0.00  0.00    +0.000 S 
ATOM      5  O   UNL     1       2.187   2.364  18.830  0.00  0.00    +0.000 OA
ATOM      6  O   UNL     1       2.170   3.070  16.415  0.00  0.00    +0.000 OA
ATOM      7  C   UNL     1       4.220   3.720  17.878  0.00  0.00    +0.000 A 
ATOM      8  C   UNL     1       4.977   3.735  16.706  0.00  0.00    +0.000 A 
ATOM      9  C   UNL     1       6.188   4.437  16.715  0.00  0.00    +0.000 A 
ATOM     10  C   UNL     1       6.683   5.024  17.892  0.00  0.00    +0.000 A 
ATOM     11  C   UNL     1       5.940   4.956  19.068  0.00  0.00    +0.000 A 
ATOM     12  C   UNL     1       4.681   4.353  19.046  0.00  0.00    +0.000 A 
ATOM     13  S   UNL     1       3.515   4.820  20.316  0.00  0.00    +0.000 S 
ATOM     14  H   UNL     1       2.958   7.231  19.903  0.00  0.00    +0.000 HD
ENDROOT
BRANCH   9  15
ATOM     15  N   UNL     1       6.878   4.707  15.442  0.00  0.00    +0.000 N 
ATOM     16  O   UNL     1       6.617   3.974  14.480  0.00  0.00    +0.000 OA
ATOM     17  O   UNL     1       7.648   5.677  15.402  0.00  0.00    +0.000 OA
ENDBRANCH   9  15
BRANCH   1  18
ATOM     18  C   UNL     1       2.458   7.583  17.901  0.00  0.00    +0.000 C 
ATOM     19  C   UNL     1       3.885   7.493  17.361  0.00  0.00    +0.000 C 
BRANCH  18  21
ATOM     20  C   UNL     1       1.171   9.197  19.389  0.00  0.00    +0.000 C 
ATOM     21  C   UNL     1       1.972   9.017  18.111  0.00  0.00    +0.000 C 
ENDBRANCH  18  21
ENDBRANCH   1  18
TORSDOF 3
ENDMDL
MODEL 3
REMARK VINA RESULT:      -6.3      3.316      5.437
REMARK  Name = 
REMARK  5 active torsions:
REMARK  status: ('A' for Active; 'I' for Inactive)
REMARK    1  A    between atoms: C_1  and  C_2
REMARK    2  A    between atoms: C_2  and  C_3
REMARK    3  A    between atoms: C_3  and  C_4
REMARK    4  A    between atoms: C_3  and  N_5
REMARK    5  A    between atoms: C_13  and  N_14
REMARK                            x       y       z     vdW  Elec       q    Type
REMARK                         _______ _______ _______ _____ _____    ______ ____
ROOT
ATOM      1  N   UNL     1       3.962   4.254  19.040  0.00  0.00    +0.000 N 
ATOM      2  C   UNL     1       5.154   4.934  19.009  0.00  0.00    +0.000 C 
ATOM      3  N   UNL     1       6.304   4.344  19.067  0.00  0.00    +0.000 NA
ATOM      4  S   UNL     1       7.589   5.050  18.390  0.00  0.00    +0.000 S 
ATOM      5  O   UNL     1       8.020   6.228  19.109  0.00  0.00    +0.000 OA
ATOM      6  O   UNL     1       8.545   4.013  18.038  0.00  0.00    +0.000 OA
ATOM      7  C   UNL     1       6.866   5.598  16.840  0.00  0.00    +0.000 A 
ATOM      8  C   UNL     1       7.238   4.989  15.641  0.00  0.00    +0.000 A 
ATOM      9  C   UNL     1       6.373   5.109  14.547  0.00  0.00    +0.000 A 
ATOM     10  C   UNL     1       5.215   5.901  14.615  0.00  0.00    +0.000 A 
ATOM     11  C   UNL     1       4.883   6.545  15.805  0.00  0.00    +0.000 A 
ATOM     12  C   UNL     1       5.680   6.346  16.934  0.00  0.00    +0.000 A 
ATOM     13  S   UNL     1       4.935   6.623  18.534  0.00  0.00    +0.000 S 
ATOM     14  H   UNL     1       3.178   4.854  18.804  0.00  0.00    +0.000 HD
ENDROOT
BRANCH   9  15
ATOM     15  N   UNL     1       6.588   4.265  13.358  0.00  0.00    +0.000 N 
ATOM     16  O   UNL     1       5.872   3.264  13.227  0.00  0.00    +0.000 OA
ATOM     17  O   UNL     1       7.446   4.632  12.543  0.00  0.00    +0.000 OA
ENDBRANCH   9  15
BRANCH   1  18
ATOM     18  C   UNL     1       3.916   2.947  18.356  0.00  0.00    +0.000 C 
ATOM     19  C   UNL     1       3.659   3.136  16.860  0.00  0.00    +0.000 C 
BRANCH  18  21
ATOM     20  C   UNL     1       1.443   2.491  18.742  0.00  0.00    +0.000 C 
ATOM     21  C   UNL     1       2.870   2.075  19.051  0.00  0.00    +0.000 C 
ENDBRANCH  18  21
ENDBRANCH   1  18
TORSDOF 3
ENDMDL
MODEL 4
REMARK VINA RESULT:      -6.2      2.475      4.811
REMARK  Name = 
REMARK  5 active torsions:
REMARK  status: ('A' for Active; 'I' for Inactive)
REMARK    1  A    between atoms: C_1  and  C_2
REMARK    2  A    between atoms: C_2  and  C_3
REMARK    3  A    between atoms: C_3  and  C_4
REMARK    4  A    between atoms: C_3  and  N_5
REMARK    5  A    between atoms: C_13  and  N_14
REMARK                            x       y       z     vdW  Elec       q    Type
REMARK                         _______ _______ _______ _____ _____    ______ ____
ROOT
ATOM      1  N   UNL     1       2.121   5.703  20.606  0.00  0.00    +0.000 N 
ATOM      2  C   UNL     1       2.280   4.485  19.992  0.00  0.00    +0.000 C 
ATOM      3  N   UNL     1       1.673   4.164  18.895  0.00  0.00    +0.000 NA
ATOM      4  S   UNL     1       2.349   3.082  17.905  0.00  0.00    +0.000 S 
ATOM      5  O   UNL     1       2.330   1.743  18.451  0.00  0.00    +0.000 OA
ATOM      6  O   UNL     1       1.868   3.334  16.558  0.00  0.00    +0.000 OA
ATOM      7  C   UNL     1       4.052   3.651  17.933  0.00  0.00    +0.000 A 
ATOM      8  C   UNL     1       4.611   4.241  16.798  0.00  0.00    +0.000 A 
ATOM      9  C   UNL     1       5.737   5.054  16.967  0.00  0.00    +0.000 A 
ATOM     10  C   UNL     1       6.355   5.195  18.221  0.00  0.00    +0.000 A 
ATOM     11  C   UNL     1       5.815   4.559  19.337  0.00  0.00    +0.000 A 
ATOM     12  C   UNL     1       4.630   3.833  19.201  0.00  0.00    +0.000 A 
ATOM     13  S   UNL     1       3.640   3.580  20.667  0.00  0.00    +0.000 S 
ATOM     14  H   UNL     1       2.803   5.845  21.345  0.00  0.00    +0.000 HD
ENDROOT
BRANCH   9  15
ATOM     15  N   UNL     1       6.190   5.906  15.853  0.00  0.00    +0.000 N 
ATOM     16  O   UNL     1       5.347   6.625  15.301  0.00  0.00    +0.000 OA
ATOM     17  O   UNL     1       7.394   5.877  15.563  0.00  0.00    +0.000 OA
ENDBRANCH   9  15
BRANCH   1  18
ATOM     18  C   UNL     1       1.963   6.881  19.731  0.00  0.00    +0.000 C 
ATOM     19  C   UNL     1       3.234   7.114  18.914  0.00  0.00    +0.000 C 
BRANCH  18  21
ATOM     20  C   UNL     1       1.041   9.252  19.793  0.00  0.00    +0.000 C 
ATOM     21  C   UNL     1       1.566   8.076  20.598  0.00  0.00    +0.000 C 
ENDBRANCH  18  21
ENDBRANCH   1  18
TORSDOF 3
ENDMDL
MODEL 5
REMARK VINA RESULT:      -5.6      2.497      3.568
REMARK  Name = 
REMARK  5 active torsions:
REMARK  status: ('A' for Active; 'I' for Inactive)
REMARK    1  A    between atoms: C_1  and  C_2
REMARK    2  A    between atoms: C_2  and  C_3
REMARK    3  A    between atoms: C_3  and  C_4
REMARK    4  A    between atoms: C_3  and  N_5
REMARK    5  A    between atoms: C_13  and  N_14
REMARK                            x       y       z     vdW  Elec       q    Type
REMARK                         _______ _______ _______ _____ _____    ______ ____
ROOT
ATOM      1  N   UNL     1       6.883   7.433  17.214  0.00  0.00    +0.000 N 
ATOM      2  C   UNL     1       6.149   6.633  16.373  0.00  0.00    +0.000 C 
ATOM      3  N   UNL     1       6.592   5.514  15.899  0.00  0.00    +0.000 NA
ATOM      4  S   UNL     1       5.543   4.352  15.502  0.00  0.00    +0.000 S 
ATOM      5  O   UNL     1       4.766   4.683  14.329  0.00  0.00    +0.000 OA
ATOM      6  O   UNL     1       6.225   3.072  15.597  0.00  0.00    +0.000 OA
ATOM      7  C   UNL     1       4.441   4.428  16.919  0.00  0.00    +0.000 A 
ATOM      8  C   UNL     1       4.423   3.386  17.846  0.00  0.00    +0.000 A 
ATOM      9  C   UNL     1       3.918   3.653  19.124  0.00  0.00    +0.000 A 
ATOM     10  C   UNL     1       3.350   4.898  19.440  0.00  0.00    +0.000 A 
ATOM     11  C   UNL     1       3.328   5.914  18.486  0.00  0.00    +0.000 A 
ATOM     12  C   UNL     1       3.926   5.695  17.243  0.00  0.00    +0.000 A 
ATOM     13  S   UNL     1       4.452   7.126  16.312  0.00  0.00    +0.000 S 
ATOM     14  H   UNL     1       6.317   8.169  17.626  0.00  0.00    +0.000 HD
ENDROOT
BRANCH   9  15
ATOM     15  N   UNL     1       4.129   2.674  20.206  0.00  0.00    +0.000 N 
ATOM     16  O   UNL     1       5.203   2.058  20.222  0.00  0.00    +0.000 OA
ATOM     17  O   UNL     1       3.234   2.557  21.054  0.00  0.00    +0.000 OA
ENDBRANCH   9  15
BRANCH   1  18
ATOM     18  C   UNL     1       7.755   6.756  18.194  0.00  0.00    +0.000 C 
ATOM     19  C   UNL     1       6.923   5.885  19.135  0.00  0.00    +0.000 C 
BRANCH  18  21
ATOM     20  C   UNL     1       8.478   9.195  18.282  0.00  0.00    +0.000 C 
ATOM     21  C   UNL     1       8.583   7.819  18.917  0.00  0.00    +0.000 C 
ENDBRANCH  18  21
ENDBRANCH   1  18
TORSDOF 3
ENDMDL
MODEL 6
REMARK VINA RESULT:      -5.6      2.966      4.740
REMARK  Name = 
REMARK  5 active torsions:
REMARK  status: ('A' for Active; 'I' for Inactive)
REMARK    1  A    between atoms: C_1  and  C_2
REMARK    2  A    between atoms: C_2  and  C_3
REMARK    3  A    between atoms: C_3  and  C_4
REMARK    4  A    between atoms: C_3  and  N_5
REMARK    5  A    between atoms: C_13  and  N_14
REMARK                            x       y       z     vdW  Elec       q    Type
REMARK                         _______ _______ _______ _____ _____    ______ ____
ROOT
ATOM      1  N   UNL     1       5.519   3.623  18.361  0.00  0.00    +0.000 N 
ATOM      2  C   UNL     1       4.338   3.113  18.841  0.00  0.00    +0.000 C 
ATOM      3  N   UNL     1       4.114   2.921  20.101  0.00  0.00    +0.000 NA
ATOM      4  S   UNL     1       2.595   2.967  20.649  0.00  0.00    +0.000 S 
ATOM      5  O   UNL     1       1.813   1.832  20.211  0.00  0.00    +0.000 OA
ATOM      6  O   UNL     1       2.629   3.340  22.053  0.00  0.00    +0.000 OA
ATOM      7  C   UNL     1       1.987   4.411  19.771  0.00  0.00    +0.000 A 
ATOM      8  C   UNL     1       1.707   5.586  20.469  0.00  0.00    +0.000 A 
ATOM      9  C   UNL     1       1.672   6.786  19.749  0.00  0.00    +0.000 A 
ATOM     10  C   UNL     1       1.811   6.803  18.351  0.00  0.00    +0.000 A 
ATOM     11  C   UNL     1       2.040   5.614  17.661  0.00  0.00    +0.000 A 
ATOM     12  C   UNL     1       2.185   4.426  18.380  0.00  0.00    +0.000 A 
ATOM     13  S   UNL     1       3.079   3.090  17.601  0.00  0.00    +0.000 S 
ATOM     14  H   UNL     1       5.452   3.872  17.379  0.00  0.00    +0.000 HD
ENDROOT
BRANCH   9  15
ATOM     15  N   UNL     1       1.652   8.067  20.477  0.00  0.00    +0.000 N 
ATOM     16  O   UNL     1       1.502   9.102  19.814  0.00  0.00    +0.000 OA
ATOM     17  O   UNL     1       1.748   8.027  21.711  0.00  0.00    +0.000 OA
ENDBRANCH   9  15
BRANCH   1  18
ATOM     18  C   UNL     1       6.184   4.659  19.176  0.00  0.00    +0.000 C 
ATOM     19  C   UNL     1       5.282   5.884  19.322  0.00  0.00    +0.000 C 
BRANCH  18  21
ATOM     20  C   UNL     1       7.868   6.454  18.530  0.00  0.00    +0.000 C 
ATOM     21  C   UNL     1       7.542   4.971  18.545  0.00  0.00    +0.000 C 
ENDBRANCH  18  21
ENDBRANCH   1  18
TORSDOF 3
ENDMDL
MODEL 7
REMARK VINA RESULT:      -5.5      2.831      5.260
REMARK  Name = 
REMARK  5 active torsions:
REMARK  status: ('A' for Active; 'I' for Inactive)
REMARK    1  A    between atoms: C_1  and  C_2
REMARK    2  A    between atoms: C_2  and  C_3
REMARK    3  A    between atoms: C_3  and  C_4
REMARK    4  A    between atoms: C_3  and  N_5
REMARK    5  A    between atoms: C_13  and  N_14
REMARK                            x       y       z     vdW  Elec       q    Type
REMARK                         _______ _______ _______ _____ _____    ______ ____
ROOT
ATOM      1  N   UNL     1       2.596   2.635  19.304  0.00  0.00    +0.000 N 
ATOM      2  C   UNL     1       2.377   3.820  18.647  0.00  0.00    +0.000 C 
ATOM      3  N   UNL     1       2.207   4.946  19.261  0.00  0.00    +0.000 NA
ATOM      4  S   UNL     1       2.607   6.322  18.515  0.00  0.00    +0.000 S 
ATOM      5  O   UNL     1       1.713   6.641  17.424  0.00  0.00    +0.000 OA
ATOM      6  O   UNL     1       2.916   7.316  19.529  0.00  0.00    +0.000 OA
ATOM      7  C   UNL     1       4.183   5.844  17.799  0.00  0.00    +0.000 A 
ATOM      8  C   UNL     1       5.368   6.392  18.290  0.00  0.00    +0.000 A 
ATOM      9  C   UNL     1       6.562   5.704  18.044  0.00  0.00    +0.000 A 
ATOM     10  C   UNL     1       6.588   4.551  17.241  0.00  0.00    +0.000 A 
ATOM     11  C   UNL     1       5.402   4.044  16.715  0.00  0.00    +0.000 A 
ATOM     12  C   UNL     1       4.193   4.660  17.042  0.00  0.00    +0.000 A 
ATOM     13  S   UNL     1       2.703   3.682  16.915  0.00  0.00    +0.000 S 
ATOM     14  H   UNL     1       2.885   1.897  18.669  0.00  0.00    +0.000 HD
ENDROOT
BRANCH   9  15
ATOM     15  N   UNL     1       7.786   6.094  18.767  0.00  0.00    +0.000 N 
ATOM     16  O   UNL     1       8.243   7.224  18.553  0.00  0.00    +0.000 OA
ATOM     17  O   UNL     1       8.259   5.281  19.573  0.00  0.00    +0.000 OA
ENDBRANCH   9  15
BRANCH   1  18
ATOM     18  C   UNL     1       3.411   2.690  20.534  0.00  0.00    +0.000 C 
ATOM     19  C   UNL     1       4.731   1.945  20.334  0.00  0.00    +0.000 C 
BRANCH  18  21
ATOM     20  C   UNL     1       1.182   2.754  21.760  0.00  0.00    +0.000 C 
ATOM     21  C   UNL     1       2.573   2.148  21.692  0.00  0.00    +0.000 C 
ENDBRANCH  18  21
ENDBRANCH   1  18
TORSDOF 3
ENDMDL
MODEL 8
REMARK VINA RESULT:      -5.5      5.868      7.940
REMARK  Name = 
REMARK  5 active torsions:
REMARK  status: ('A' for Active; 'I' for Inactive)
REMARK    1  A    between atoms: C_1  and  C_2
REMARK    2  A    between atoms: C_2  and  C_3
REMARK    3  A    between atoms: C_3  and  C_4
REMARK    4  A    between atoms: C_3  and  N_5
REMARK    5  A    between atoms: C_13  and  N_14
REMARK                            x       y       z     vdW  Elec       q    Type
REMARK                         _______ _______ _______ _____ _____    ______ ____
ROOT
ATOM      1  N   UNL     1      -2.007  12.233  17.948  0.00  0.00    +0.000 N 
ATOM      2  C   UNL     1      -1.282  12.435  19.097  0.00  0.00    +0.000 C 
ATOM      3  N   UNL     1      -1.598  11.901  20.232  0.00  0.00    +0.000 NA
ATOM      4  S   UNL     1      -0.440  11.618  21.322  0.00  0.00    +0.000 S 
ATOM      5  O   UNL     1       0.087  12.834  21.900  0.00  0.00    +0.000 OA
ATOM      6  O   UNL     1      -0.875  10.525  22.175  0.00  0.00    +0.000 OA
ATOM      7  C   UNL     1       0.833  10.932  20.256  0.00  0.00    +0.000 A 
ATOM      8  C   UNL     1       1.164   9.580  20.343  0.00  0.00    +0.000 A 
ATOM      9  C   UNL     1       1.802   8.987  19.248  0.00  0.00    +0.000 A 
ATOM     10  C   UNL     1       2.194   9.746  18.132  0.00  0.00    +0.000 A 
ATOM     11  C   UNL     1       1.902  11.108  18.081  0.00  0.00    +0.000 A 
ATOM     12  C   UNL     1       1.171  11.687  19.119  0.00  0.00    +0.000 A 
ATOM     13  S   UNL     1       0.279  13.194  18.765  0.00  0.00    +0.000 S 
ATOM     14  H   UNL     1      -1.517  12.576  17.127  0.00  0.00    +0.000 HD
ENDROOT
BRANCH   9  15
ATOM     15  N   UNL     1       1.922   7.520  19.186  0.00  0.00    +0.000 N 
ATOM     16  O   UNL     1       2.181   7.010  18.088  0.00  0.00    +0.000 OA
ATOM     17  O   UNL     1       1.795   6.889  20.245  0.00  0.00    +0.000 OA
ENDBRANCH   9  15
BRANCH   1  18
ATOM     18  C   UNL     1      -2.596  10.894  17.752  0.00  0.00    +0.000 C 
ATOM     19  C   UNL     1      -1.514   9.886  17.362  0.00  0.00    +0.000 C 
BRANCH  18  21
ATOM     20  C   UNL     1      -3.253  10.813  15.295  0.00  0.00    +0.000 C 
ATOM     21  C   UNL     1      -3.724  11.008  16.726  0.00  0.00    +0.000 C 
ENDBRANCH  18  21
ENDBRANCH   1  18
TORSDOF 3
ENDMDL
MODEL 9
REMARK VINA RESULT:      -5.4      2.482      4.801
REMARK  Name = 
REMARK  5 active torsions:
REMARK  status: ('A' for Active; 'I' for Inactive)
REMARK    1  A    between atoms: C_1  and  C_2
REMARK    2  A    between atoms: C_2  and  C_3
REMARK    3  A    between atoms: C_3  and  C_4
REMARK    4  A    between atoms: C_3  and  N_5
REMARK    5  A    between atoms: C_13  and  N_14
REMARK                            x       y       z     vdW  Elec       q    Type
REMARK                         _______ _______ _______ _____ _____    ______ ____
ROOT
ATOM      1  N   UNL     1       2.328   5.749  21.043  0.00  0.00    +0.000 N 
ATOM      2  C   UNL     1       2.192   4.619  20.274  0.00  0.00    +0.000 C 
ATOM      3  N   UNL     1       1.451   4.573  19.215  0.00  0.00    +0.000 NA
ATOM      4  S   UNL     1       1.818   3.530  18.037  0.00  0.00    +0.000 S 
ATOM      5  O   UNL     1       1.576   2.156  18.418  0.00  0.00    +0.000 OA
ATOM      6  O   UNL     1       1.293   4.051  16.787  0.00  0.00    +0.000 OA
ATOM      7  C   UNL     1       3.597   3.761  17.957  0.00  0.00    +0.000 A 
ATOM      8  C   UNL     1       4.171   4.387  16.850  0.00  0.00    +0.000 A 
ATOM      9  C   UNL     1       5.447   4.944  16.998  0.00  0.00    +0.000 A 
ATOM     10  C   UNL     1       6.176   4.793  18.189  0.00  0.00    +0.000 A 
ATOM     11  C   UNL     1       5.610   4.120  19.270  0.00  0.00    +0.000 A 
ATOM     12  C   UNL     1       4.297   3.655  19.171  0.00  0.00    +0.000 A 
ATOM     13  S   UNL     1       3.394   3.392  20.690  0.00  0.00    +0.000 S 
ATOM     14  H   UNL     1       3.080   5.658  21.719  0.00  0.00    +0.000 HD
ENDROOT
BRANCH   9  15
ATOM     15  N   UNL     1       5.971   5.841  15.953  0.00  0.00    +0.000 N 
ATOM     16  O   UNL     1       7.184   5.793  15.710  0.00  0.00    +0.000 OA
ATOM     17  O   UNL     1       5.159   6.561  15.356  0.00  0.00    +0.000 OA
ENDBRANCH   9  15
BRANCH   1  18
ATOM     18  C   UNL     1       2.340   7.045  20.337  0.00  0.00    +0.000 C 
ATOM     19  C   UNL     1       1.133   7.888  20.748  0.00  0.00    +0.000 C 
BRANCH  18  21
ATOM     20  C   UNL     1       2.750   8.012  18.018  0.00  0.00    +0.000 C 
ATOM     21  C   UNL     1       2.413   6.775  18.833  0.00  0.00    +0.000 C 
ENDBRANCH  18  21
ENDBRANCH   1  18
TORSDOF 3
ENDMDL
