MODEL 1
REMARK VINA RESULT:      -7.2      0.000      0.000
REMARK  Name = 
REMARK  5 active torsions:
REMARK  status: ('A' for Active; 'I' for Inactive)
REMARK    1  A    between atoms: C_2  and  C_3
REMARK    2  A    between atoms: C_8  and  S_9
REMARK    3  A    between atoms: S_9  and  N_12
REMARK    4  A    between atoms: C_21  and  C_22
REMARK    5  A    between atoms: C_22  and  C_23
REMARK                            x       y       z     vdW  Elec       q    Type
REMARK                         _______ _______ _______ _____ _____    ______ ____
ROOT
ATOM      1  N   UNL     1      -2.589  12.995  20.299  0.00  0.00    +0.000 NA
ATOM      2  C   UNL     1      -2.576  14.798  20.824  0.00  0.00    +0.000 C 
ATOM      3  C   UNL     1      -4.087  15.572  21.746  0.00  0.00    +0.000 C 
ATOM      4  C   UNL     1      -5.520  14.384  22.258  0.00  0.00    +0.000 C 
ATOM      5  C   UNL     1      -6.508  14.504  23.165  0.00  0.00    +0.000 C 
ATOM      6  C   UNL     1      -7.432  13.335  23.231  0.00  0.00    +0.000 C 
ATOM      7  O   UNL     1      -7.917  12.979  24.301  0.00  0.00    +0.000 OA
ATOM      8  C   UNL     1      -7.837  12.704  21.906  0.00  0.00    +0.000 C 
ATOM      9  C   UNL     1      -6.681  12.262  21.018  0.00  0.00    +0.000 C 
ATOM     10  C   UNL     1      -5.330  12.699  21.500  0.00  0.00    +0.000 C 
ATOM     11  C   UNL     1      -4.155  12.048  20.348  0.00  0.00    +0.000 C 
ENDROOT
BRANCH   1  12
ATOM     12  S   UNL     1      -1.304  12.177  19.517  0.00  0.00    +0.000 S 
ATOM     13  O   UNL     1      -0.273  13.121  19.166  0.00  0.00    +0.000 OA
ATOM     14  O   UNL     1      -1.915  11.330  18.511  0.00  0.00    +0.000 OA
BRANCH  12  20
ATOM     15  C   UNL     1       0.329  10.010  20.403  0.00  0.00    +0.000 A 
ATOM     16  C   UNL     1       0.829   9.138  21.413  0.00  0.00    +0.000 A 
ATOM     17  C   UNL     1       0.421   9.253  22.741  0.00  0.00    +0.000 A 
ATOM     18  C   UNL     1      -0.512  10.228  23.077  0.00  0.00    +0.000 A 
ATOM     19  C   UNL     1      -1.043  11.072  22.086  0.00  0.00    +0.000 A 
ATOM     20  C   UNL     1      -0.607  10.997  20.743  0.00  0.00    +0.000 A 
BRANCH  15  22
ATOM     21  N   UNL     1       1.517   9.842  18.108  0.00  0.00    +0.000 NA
ATOM     22  C   UNL     1       0.921   9.897  19.107  0.00  0.00    +0.000 C 
ENDBRANCH  15  22
ENDBRANCH  12  20
ENDBRANCH   1  12
BRANCH  10  23
ATOM     23  C   UNL     1      -4.534  13.715  21.047  0.00  0.00    +0.000 C 
BRANCH  23  24
ATOM     24  C   UNL     1      -5.745  13.742  19.544  0.00  0.00    +0.000 A 
ATOM     25  C   UNL     1      -5.663  12.784  18.512  0.00  0.00    +0.000 A 
ATOM     26  C   UNL     1      -6.397  12.803  17.318  0.00  0.00    +0.000 A 
ATOM     27  C   UNL     1      -7.203  13.869  17.006  0.00  0.00    +0.000 A 
ATOM     28  C   UNL     1      -7.326  14.883  17.928  0.00  0.00    +0.000 A 
ATOM     29  C   UNL     1      -6.649  14.809  19.162  0.00  0.00    +0.000 A 
ENDBRANCH  23  24
ENDBRANCH  10  23
TORSDOF 5
ENDMDL
MODEL 2
REMARK VINA RESULT:      -7.2      4.613      7.110
REMARK  Name = 
REMARK  5 active torsions:
REMARK  status: ('A' for Active; 'I' for Inactive)
REMARK    1  A    between atoms: C_2  and  C_3
REMARK    2  A    between atoms: C_8  and  S_9
REMARK    3  A    between atoms: S_9  and  N_12
REMARK    4  A    between atoms: C_21  and  C_22
REMARK    5  A    between atoms: C_22  and  C_23
REMARK                            x       y       z     vdW  Elec       q    Type
REMARK                         _______ _______ _______ _____ _____    ______ ____
ROOT
ATOM      1  N   UNL     1       0.555  13.271  19.363  0.00  0.00    +0.000 NA
ATOM      2  C   UNL     1       2.035  12.968  18.246  0.00  0.00    +0.000 C 
ATOM      3  C   UNL     1       3.558  14.156  18.277  0.00  0.00    +0.000 C 
ATOM      4  C   UNL     1       3.573  15.548  19.614  0.00  0.00    +0.000 C 
ATOM      5  C   UNL     1       4.570  16.295  20.125  0.00  0.00    +0.000 C 
ATOM      6  C   UNL     1       4.136  17.290  21.147  0.00  0.00    +0.000 C 
ATOM      7  O   UNL     1       4.855  17.559  22.105  0.00  0.00    +0.000 OA
ATOM      8  C   UNL     1       2.839  18.037  20.872  0.00  0.00    +0.000 C 
ATOM      9  C   UNL     1       1.623  17.154  20.619  0.00  0.00    +0.000 C 
ATOM     10  C   UNL     1       1.938  15.694  20.483  0.00  0.00    +0.000 C 
ATOM     11  C   UNL     1       0.392  14.872  20.236  0.00  0.00    +0.000 C 
ENDROOT
BRANCH   1  12
ATOM     12  S   UNL     1      -0.834  12.276  19.465  0.00  0.00    +0.000 S 
ATOM     13  O   UNL     1      -0.982  11.525  18.243  0.00  0.00    +0.000 OA
ATOM     14  O   UNL     1      -1.905  13.123  19.955  0.00  0.00    +0.000 OA
BRANCH  12  20
ATOM     15  C   UNL     1       0.235   9.924  20.678  0.00  0.00    +0.000 A 
ATOM     16  C   UNL     1       0.430   9.056  21.791  0.00  0.00    +0.000 A 
ATOM     17  C   UNL     1      -0.112   9.344  23.043  0.00  0.00    +0.000 A 
ATOM     18  C   UNL     1      -0.877  10.495  23.196  0.00  0.00    +0.000 A 
ATOM     19  C   UNL     1      -1.111  11.342  22.098  0.00  0.00    +0.000 A 
ATOM     20  C   UNL     1      -0.532  11.087  20.834  0.00  0.00    +0.000 A 
BRANCH  15  22
ATOM     21  N   UNL     1       1.487   9.460  18.459  0.00  0.00    +0.000 NA
ATOM     22  C   UNL     1       0.952   9.606  19.483  0.00  0.00    +0.000 C 
ENDBRANCH  15  22
ENDBRANCH  12  20
ENDBRANCH   1  12
BRANCH  10  23
ATOM     23  C   UNL     1       2.014  14.923  19.356  0.00  0.00    +0.000 C 
BRANCH  23  24
ATOM     24  C   UNL     1       1.232  16.457  18.482  0.00  0.00    +0.000 A 
ATOM     25  C   UNL     1      -0.163  16.661  18.458  0.00  0.00    +0.000 A 
ATOM     26  C   UNL     1      -0.832  17.658  17.734  0.00  0.00    +0.000 A 
ATOM     27  C   UNL     1      -0.148  18.473  16.866  0.00  0.00    +0.000 A 
ATOM     28  C   UNL     1       1.217  18.333  16.782  0.00  0.00    +0.000 A 
ATOM     29  C   UNL     1       1.887  17.385  17.580  0.00  0.00    +0.000 A 
ENDBRANCH  23  24
ENDBRANCH  10  23
TORSDOF 5
ENDMDL
MODEL 3
REMARK VINA RESULT:      -7.1      8.861     12.430
REMARK  Name = 
REMARK  5 active torsions:
REMARK  status: ('A' for Active; 'I' for Inactive)
REMARK    1  A    between atoms: C_2  and  C_3
REMARK    2  A    between atoms: C_8  and  S_9
REMARK    3  A    between atoms: S_9  and  N_12
REMARK    4  A    between atoms: C_21  and  C_22
REMARK    5  A    between atoms: C_22  and  C_23
REMARK                            x       y       z     vdW  Elec       q    Type
REMARK                         _______ _______ _______ _____ _____    ______ ____
ROOT
ATOM      1  N   UNL     1       5.465   5.050  16.835  0.00  0.00    +0.000 NA
ATOM      2  C   UNL     1       6.189   4.426  18.452  0.00  0.00    +0.000 C 
ATOM      3  C   UNL     1       5.090   3.479  19.728  0.00  0.00    +0.000 C 
ATOM      4  C   UNL     1       3.284   3.049  19.201  0.00  0.00    +0.000 C 
ATOM      5  C   UNL     1       2.400   2.147  19.668  0.00  0.00    +0.000 C 
ATOM      6  C   UNL     1       1.081   2.156  18.972  0.00  0.00    +0.000 C 
ATOM      7  O   UNL     1       0.460   1.113  18.794  0.00  0.00    +0.000 OA
ATOM      8  C   UNL     1       0.498   3.517  18.621  0.00  0.00    +0.000 C 
ATOM      9  C   UNL     1       1.406   4.417  17.790  0.00  0.00    +0.000 C 
ATOM     10  C   UNL     1       2.802   3.897  17.620  0.00  0.00    +0.000 C 
ATOM     11  C   UNL     1       3.650   5.069  16.603  0.00  0.00    +0.000 C 
ENDROOT
BRANCH   1  12
ATOM     12  S   UNL     1       6.335   5.861  15.604  0.00  0.00    +0.000 S 
ATOM     13  O   UNL     1       7.718   5.990  15.992  0.00  0.00    +0.000 OA
ATOM     14  O   UNL     1       5.547   7.027  15.252  0.00  0.00    +0.000 OA
BRANCH  12  20
ATOM     15  C   UNL     1       7.229   4.822  13.100  0.00  0.00    +0.000 A 
ATOM     16  C   UNL     1       7.102   3.956  11.976  0.00  0.00    +0.000 A 
ATOM     17  C   UNL     1       6.040   3.060  11.865  0.00  0.00    +0.000 A 
ATOM     18  C   UNL     1       5.074   3.033  12.864  0.00  0.00    +0.000 A 
ATOM     19  C   UNL     1       5.164   3.909  13.961  0.00  0.00    +0.000 A 
ATOM     20  C   UNL     1       6.259   4.792  14.110  0.00  0.00    +0.000 A 
BRANCH  15  22
ATOM     21  N   UNL     1       9.385   6.258  13.122  0.00  0.00    +0.000 NA
ATOM     22  C   UNL     1       8.429   5.596  13.182  0.00  0.00    +0.000 C 
ENDBRANCH  15  22
ENDBRANCH  12  20
ENDBRANCH   1  12
BRANCH  10  23
ATOM     23  C   UNL     1       3.955   4.284  18.246  0.00  0.00    +0.000 C 
BRANCH  23  24
ATOM     24  C   UNL     1       2.896   5.776  18.864  0.00  0.00    +0.000 A 
ATOM     25  C   UNL     1       2.848   6.991  18.151  0.00  0.00    +0.000 A 
ATOM     26  C   UNL     1       2.228   8.171  18.587  0.00  0.00    +0.000 A 
ATOM     27  C   UNL     1       1.697   8.260  19.850  0.00  0.00    +0.000 A 
ATOM     28  C   UNL     1       1.727   7.140  20.647  0.00  0.00    +0.000 A 
ATOM     29  C   UNL     1       2.275   5.935  20.164  0.00  0.00    +0.000 A 
ENDBRANCH  23  24
ENDBRANCH  10  23
TORSDOF 5
ENDMDL
MODEL 4
REMARK VINA RESULT:      -7.1      3.220      7.169
REMARK  Name = 
REMARK  5 active torsions:
REMARK  status: ('A' for Active; 'I' for Inactive)
REMARK    1  A    between atoms: C_2  and  C_3
REMARK    2  A    between atoms: C_8  and  S_9
REMARK    3  A    between atoms: S_9  and  N_12
REMARK    4  A    between atoms: C_21  and  C_22
REMARK    5  A    between atoms: C_22  and  C_23
REMARK                            x       y       z     vdW  Elec       q    Type
REMARK                         _______ _______ _______ _____ _____    ______ ____
ROOT
ATOM      1  N   UNL     1      -2.790  12.431  22.620  0.00  0.00    +0.000 NA
ATOM      2  C   UNL     1      -1.612  11.044  23.086  0.00  0.00    +0.000 C 
ATOM      3  C   UNL     1       0.094  10.855  22.200  0.00  0.00    +0.000 C 
ATOM      4  C   UNL     1       0.608  12.239  20.957  0.00  0.00    +0.000 C 
ATOM      5  C   UNL     1       1.804  12.595  20.451  0.00  0.00    +0.000 C 
ATOM      6  C   UNL     1       1.754  13.733  19.488  0.00  0.00    +0.000 C 
ATOM      7  O   UNL     1       2.666  14.553  19.439  0.00  0.00    +0.000 OA
ATOM      8  C   UNL     1       0.598  13.745  18.497  0.00  0.00    +0.000 C 
ATOM      9  C   UNL     1      -0.790  13.675  19.120  0.00  0.00    +0.000 C 
ATOM     10  C   UNL     1      -0.792  13.404  20.595  0.00  0.00    +0.000 C 
ATOM     11  C   UNL     1      -2.487  13.405  21.100  0.00  0.00    +0.000 C 
ENDROOT
BRANCH   1  12
ATOM     12  S   UNL     1      -4.307  12.736  23.353  0.00  0.00    +0.000 S 
ATOM     13  O   UNL     1      -4.455  11.906  24.523  0.00  0.00    +0.000 OA
ATOM     14  O   UNL     1      -5.288  12.701  22.285  0.00  0.00    +0.000 OA
BRANCH  12  20
ATOM     15  C   UNL     1      -5.452  15.260  24.037  0.00  0.00    +0.000 A 
ATOM     16  C   UNL     1      -5.354  16.613  24.471  0.00  0.00    +0.000 A 
ATOM     17  C   UNL     1      -4.123  17.191  24.778  0.00  0.00    +0.000 A 
ATOM     18  C   UNL     1      -2.967  16.432  24.635  0.00  0.00    +0.000 A 
ATOM     19  C   UNL     1      -3.043  15.106  24.171  0.00  0.00    +0.000 A 
ATOM     20  C   UNL     1      -4.288  14.492  23.897  0.00  0.00    +0.000 A 
BRANCH  15  22
ATOM     21  N   UNL     1      -7.882  14.381  23.857  0.00  0.00    +0.000 NA
ATOM     22  C   UNL     1      -6.770  14.727  23.887  0.00  0.00    +0.000 C 
ENDBRANCH  15  22
ENDBRANCH  12  20
ENDBRANCH   1  12
BRANCH  10  23
ATOM     23  C   UNL     1      -1.062  12.242  21.265  0.00  0.00    +0.000 C 
BRANCH  23  24
ATOM     24  C   UNL     1      -1.644  11.603  19.538  0.00  0.00    +0.000 A 
ATOM     25  C   UNL     1      -2.958  11.820  19.076  0.00  0.00    +0.000 A 
ATOM     26  C   UNL     1      -3.515  11.278  17.909  0.00  0.00    +0.000 A 
ATOM     27  C   UNL     1      -2.819  10.362  17.159  0.00  0.00    +0.000 A 
ATOM     28  C   UNL     1      -1.537  10.047  17.544  0.00  0.00    +0.000 A 
ATOM     29  C   UNL     1      -0.959  10.665  18.671  0.00  0.00    +0.000 A 
ENDBRANCH  23  24
ENDBRANCH  10  23
TORSDOF 5
ENDMDL
MODEL 5
REMARK VINA RESULT:      -7.0      3.174      7.084
REMARK  Name = 
REMARK  5 active torsions:
REMARK  status: ('A' for Active; 'I' for Inactive)
REMARK    1  A    between atoms: C_2  and  C_3
REMARK    2  A    between atoms: C_8  and  S_9
REMARK    3  A    between atoms: S_9  and  N_12
REMARK    4  A    between atoms: C_21  and  C_22
REMARK    5  A    between atoms: C_22  and  C_23
REMARK                            x       y       z     vdW  Elec       q    Type
REMARK                         _______ _______ _______ _____ _____    ______ ____
ROOT
ATOM      1  N   UNL     1      -0.273  12.429  22.123  0.00  0.00    +0.000 NA
ATOM      2  C   UNL     1      -0.763  10.829  22.977  0.00  0.00    +0.000 C 
ATOM      3  C   UNL     1      -0.383   9.117  22.165  0.00  0.00    +0.000 C 
ATOM      4  C   UNL     1       0.667   9.114  20.546  0.00  0.00    +0.000 C 
ATOM      5  C   UNL     1       1.376   8.147  19.934  0.00  0.00    +0.000 C 
ATOM      6  C   UNL     1       2.037   8.572  18.667  0.00  0.00    +0.000 C 
ATOM      7  O   UNL     1       3.135   8.122  18.351  0.00  0.00    +0.000 OA
ATOM      8  C   UNL     1       1.234   9.474  17.741  0.00  0.00    +0.000 C 
ATOM      9  C   UNL     1       0.708  10.755  18.378  0.00  0.00    +0.000 C 
ATOM     10  C   UNL     1       0.897  10.827  19.864  0.00  0.00    +0.000 C 
ATOM     11  C   UNL     1       0.256  12.396  20.371  0.00  0.00    +0.000 C 
ENDROOT
BRANCH   1  12
ATOM     12  S   UNL     1      -0.511  14.004  22.751  0.00  0.00    +0.000 S 
ATOM     13  O   UNL     1       0.632  14.826  22.441  0.00  0.00    +0.000 OA
ATOM     14  O   UNL     1      -0.957  13.831  24.120  0.00  0.00    +0.000 OA
BRANCH  12  20
ATOM     15  C   UNL     1      -3.258  14.160  21.992  0.00  0.00    +0.000 A 
ATOM     16  C   UNL     1      -4.341  14.766  21.292  0.00  0.00    +0.000 A 
ATOM     17  C   UNL     1      -4.154  15.904  20.508  0.00  0.00    +0.000 A 
ATOM     18  C   UNL     1      -2.877  16.441  20.393  0.00  0.00    +0.000 A 
ATOM     19  C   UNL     1      -1.791  15.832  21.047  0.00  0.00    +0.000 A 
ATOM     20  C   UNL     1      -1.971  14.704  21.881  0.00  0.00    +0.000 A 
BRANCH  15  22
ATOM     21  N   UNL     1      -3.976  12.216  23.547  0.00  0.00    +0.000 NA
ATOM     22  C   UNL     1      -3.586  13.087  22.878  0.00  0.00    +0.000 C 
ENDBRANCH  15  22
ENDBRANCH  12  20
ENDBRANCH   1  12
BRANCH  10  23
ATOM     23  C   UNL     1      -0.016  10.637  20.865  0.00  0.00    +0.000 C 
BRANCH  23  24
ATOM     24  C   UNL     1      -1.320  10.787  19.449  0.00  0.00    +0.000 A 
ATOM     25  C   UNL     1      -2.189  11.894  19.360  0.00  0.00    +0.000 A 
ATOM     26  C   UNL     1      -3.256  12.027  18.461  0.00  0.00    +0.000 A 
ATOM     27  C   UNL     1      -3.616  10.986  17.641  0.00  0.00    +0.000 A 
ATOM     28  C   UNL     1      -2.857   9.840  17.674  0.00  0.00    +0.000 A 
ATOM     29  C   UNL     1      -1.734   9.753  18.521  0.00  0.00    +0.000 A 
ENDBRANCH  23  24
ENDBRANCH  10  23
TORSDOF 5
ENDMDL
MODEL 6
REMARK VINA RESULT:      -7.0      3.468      7.062
REMARK  Name = 
REMARK  5 active torsions:
REMARK  status: ('A' for Active; 'I' for Inactive)
REMARK    1  A    between atoms: C_2  and  C_3
REMARK    2  A    between atoms: C_8  and  S_9
REMARK    3  A    between atoms: S_9  and  N_12
REMARK    4  A    between atoms: C_21  and  C_22
REMARK    5  A    between atoms: C_22  and  C_23
REMARK                            x       y       z     vdW  Elec       q    Type
REMARK                         _______ _______ _______ _____ _____    ______ ____
ROOT
ATOM      1  N   UNL     1       0.134  12.500  21.530  0.00  0.00    +0.000 NA
ATOM      2  C   UNL     1      -0.674  11.194  22.612  0.00  0.00    +0.000 C 
ATOM      3  C   UNL     1      -0.467   9.314  22.217  0.00  0.00    +0.000 C 
ATOM      4  C   UNL     1       0.737   8.833  20.787  0.00  0.00    +0.000 C 
ATOM      5  C   UNL     1       1.357   7.677  20.483  0.00  0.00    +0.000 C 
ATOM      6  C   UNL     1       2.204   7.734  19.257  0.00  0.00    +0.000 C 
ATOM      7  O   UNL     1       3.250   7.096  19.188  0.00  0.00    +0.000 OA
ATOM      8  C   UNL     1       1.645   8.505  18.070  0.00  0.00    +0.000 C 
ATOM      9  C   UNL     1       1.250   9.948  18.361  0.00  0.00    +0.000 C 
ATOM     10  C   UNL     1       1.288  10.317  19.814  0.00  0.00    +0.000 C 
ATOM     11  C   UNL     1       0.836  12.024  19.907  0.00  0.00    +0.000 C 
ENDROOT
BRANCH   1  12
ATOM     12  S   UNL     1       0.066  14.190  21.792  0.00  0.00    +0.000 S 
ATOM     13  O   UNL     1      -0.283  14.857  20.563  0.00  0.00    +0.000 OA
ATOM     14  O   UNL     1       1.277  14.537  22.512  0.00  0.00    +0.000 OA
BRANCH  12  20
ATOM     15  C   UNL     1      -2.634  14.241  22.716  0.00  0.00    +0.000 A 
ATOM     16  C   UNL     1      -3.621  14.485  23.713  0.00  0.00    +0.000 A 
ATOM     17  C   UNL     1      -3.275  14.945  24.983  0.00  0.00    +0.000 A 
ATOM     18  C   UNL     1      -1.936  15.190  25.269  0.00  0.00    +0.000 A 
ATOM     19  C   UNL     1      -0.953  14.991  24.283  0.00  0.00    +0.000 A 
ATOM     20  C   UNL     1      -1.284  14.482  23.005  0.00  0.00    +0.000 A 
BRANCH  15  22
ATOM     21  N   UNL     1      -3.560  13.109  20.578  0.00  0.00    +0.000 NA
ATOM     22  C   UNL     1      -3.084  13.636  21.501  0.00  0.00    +0.000 C 
ENDBRANCH  15  22
ENDBRANCH  12  20
ENDBRANCH   1  12
BRANCH  10  23
ATOM     23  C   UNL     1       0.257  10.461  20.701  0.00  0.00    +0.000 C 
BRANCH  23  24
ATOM     24  C   UNL     1      -0.845  10.538  19.117  0.00  0.00    +0.000 A 
ATOM     25  C   UNL     1      -1.041  11.743  18.413  0.00  0.00    +0.000 A 
ATOM     26  C   UNL     1      -1.929  11.931  17.344  0.00  0.00    +0.000 A 
ATOM     27  C   UNL     1      -2.794  10.934  16.966  0.00  0.00    +0.000 A 
ATOM     28  C   UNL     1      -2.715   9.725  17.617  0.00  0.00    +0.000 A 
ATOM     29  C   UNL     1      -1.758   9.522  18.631  0.00  0.00    +0.000 A 
ENDBRANCH  23  24
ENDBRANCH  10  23
TORSDOF 5
ENDMDL
MODEL 7
REMARK VINA RESULT:      -6.9      3.142      6.923
REMARK  Name = 
REMARK  5 active torsions:
REMARK  status: ('A' for Active; 'I' for Inactive)
REMARK    1  A    between atoms: C_2  and  C_3
REMARK    2  A    between atoms: C_8  and  S_9
REMARK    3  A    between atoms: S_9  and  N_12
REMARK    4  A    between atoms: C_21  and  C_22
REMARK    5  A    between atoms: C_22  and  C_23
REMARK                            x       y       z     vdW  Elec       q    Type
REMARK                         _______ _______ _______ _____ _____    ______ ____
ROOT
ATOM      1  N   UNL     1      -2.728  12.444  22.462  0.00  0.00    +0.000 NA
ATOM      2  C   UNL     1      -1.536  11.083  22.968  0.00  0.00    +0.000 C 
ATOM      3  C   UNL     1       0.175  10.889  22.092  0.00  0.00    +0.000 C 
ATOM      4  C   UNL     1       0.678  12.244  20.813  0.00  0.00    +0.000 C 
ATOM      5  C   UNL     1       1.871  12.600  20.300  0.00  0.00    +0.000 C 
ATOM      6  C   UNL     1       1.811  13.710  19.307  0.00  0.00    +0.000 C 
ATOM      7  O   UNL     1       2.714  14.539  19.238  0.00  0.00    +0.000 OA
ATOM      8  C   UNL     1       0.658  13.683  18.314  0.00  0.00    +0.000 C 
ATOM      9  C   UNL     1      -0.732  13.614  18.935  0.00  0.00    +0.000 C 
ATOM     10  C   UNL     1      -0.735  13.384  20.417  0.00  0.00    +0.000 C 
ATOM     11  C   UNL     1      -2.431  13.380  20.917  0.00  0.00    +0.000 C 
ENDROOT
BRANCH   1  12
ATOM     12  S   UNL     1      -4.250  12.752  23.184  0.00  0.00    +0.000 S 
ATOM     13  O   UNL     1      -4.248  12.268  24.542  0.00  0.00    +0.000 OA
ATOM     14  O   UNL     1      -5.248  12.302  22.232  0.00  0.00    +0.000 OA
BRANCH  12  20
ATOM     15  C   UNL     1      -3.475  15.443  23.739  0.00  0.00    +0.000 A 
ATOM     16  C   UNL     1      -3.705  16.849  23.730  0.00  0.00    +0.000 A 
ATOM     17  C   UNL     1      -4.878  17.391  23.207  0.00  0.00    +0.000 A 
ATOM     18  C   UNL     1      -5.851  16.534  22.705  0.00  0.00    +0.000 A 
ATOM     19  C   UNL     1      -5.656  15.142  22.741  0.00  0.00    +0.000 A 
ATOM     20  C   UNL     1      -4.453  14.578  23.228  0.00  0.00    +0.000 A 
BRANCH  15  22
ATOM     21  N   UNL     1      -1.158  14.534  24.456  0.00  0.00    +0.000 NA
ATOM     22  C   UNL     1      -2.182  15.006  24.165  0.00  0.00    +0.000 C 
ENDBRANCH  15  22
ENDBRANCH  12  20
ENDBRANCH   1  12
BRANCH  10  23
ATOM     23  C   UNL     1      -0.994  12.237  21.117  0.00  0.00    +0.000 C 
BRANCH  23  24
ATOM     24  C   UNL     1      -1.577  11.551  19.409  0.00  0.00    +0.000 A 
ATOM     25  C   UNL     1      -2.892  11.755  18.942  0.00  0.00    +0.000 A 
ATOM     26  C   UNL     1      -3.449  11.181  17.791  0.00  0.00    +0.000 A 
ATOM     27  C   UNL     1      -2.755  10.243  17.067  0.00  0.00    +0.000 A 
ATOM     28  C   UNL     1      -1.472   9.938  17.460  0.00  0.00    +0.000 A 
ATOM     29  C   UNL     1      -0.893  10.588  18.568  0.00  0.00    +0.000 A 
ENDBRANCH  23  24
ENDBRANCH  10  23
TORSDOF 5
ENDMDL
MODEL 8
REMARK VINA RESULT:      -6.8      2.962      4.512
REMARK  Name = 
REMARK  5 active torsions:
REMARK  status: ('A' for Active; 'I' for Inactive)
REMARK    1  A    between atoms: C_2  and  C_3
REMARK    2  A    between atoms: C_8  and  S_9
REMARK    3  A    between atoms: S_9  and  N_12
REMARK    4  A    between atoms: C_21  and  C_22
REMARK    5  A    between atoms: C_22  and  C_23
REMARK                            x       y       z     vdW  Elec       q    Type
REMARK                         _______ _______ _______ _____ _____    ______ ____
ROOT
ATOM      1  N   UNL     1       0.079  13.488  21.066  0.00  0.00    +0.000 NA
ATOM      2  C   UNL     1      -0.014  15.194  20.286  0.00  0.00    +0.000 C 
ATOM      3  C   UNL     1      -0.746  16.691  21.264  0.00  0.00    +0.000 C 
ATOM      4  C   UNL     1      -1.207  16.403  23.116  0.00  0.00    +0.000 C 
ATOM      5  C   UNL     1      -1.403  17.257  24.138  0.00  0.00    +0.000 C 
ATOM      6  C   UNL     1      -1.769  16.604  25.428  0.00  0.00    +0.000 C 
ATOM      7  O   UNL     1      -1.376  17.063  26.497  0.00  0.00    +0.000 OA
ATOM      8  C   UNL     1      -2.747  15.439  25.356  0.00  0.00    +0.000 C 
ATOM      9  C   UNL     1      -2.337  14.305  24.425  0.00  0.00    +0.000 C 
ATOM     10  C   UNL     1      -1.136  14.605  23.578  0.00  0.00    +0.000 C 
ATOM     11  C   UNL     1      -0.827  13.151  22.620  0.00  0.00    +0.000 C 
ENDROOT
BRANCH   1  12
ATOM     12  S   UNL     1       0.742  12.092  20.328  0.00  0.00    +0.000 S 
ATOM     13  O   UNL     1       1.022  11.099  21.334  0.00  0.00    +0.000 OA
ATOM     14  O   UNL     1       1.783  12.562  19.433  0.00  0.00    +0.000 OA
BRANCH  12  20
ATOM     15  C   UNL     1      -0.313  10.375  18.307  0.00  0.00    +0.000 A 
ATOM     16  C   UNL     1      -1.372   9.906  17.476  0.00  0.00    +0.000 A 
ATOM     17  C   UNL     1      -2.652  10.455  17.549  0.00  0.00    +0.000 A 
ATOM     18  C   UNL     1      -2.888  11.498  18.438  0.00  0.00    +0.000 A 
ATOM     19  C   UNL     1      -1.844  11.998  19.238  0.00  0.00    +0.000 A 
ATOM     20  C   UNL     1      -0.552  11.422  19.207  0.00  0.00    +0.000 A 
BRANCH  15  22
ATOM     21  N   UNL     1       1.918   9.081  18.076  0.00  0.00    +0.000 NA
ATOM     22  C   UNL     1       0.916   9.647  18.251  0.00  0.00    +0.000 C 
ENDBRANCH  15  22
ENDBRANCH  12  20
ENDBRANCH   1  12
BRANCH  10  23
ATOM     23  C   UNL     1      -1.071  14.944  22.255  0.00  0.00    +0.000 C 
BRANCH  23  24
ATOM     24  C   UNL     1      -2.947  14.489  22.239  0.00  0.00    +0.000 A 
ATOM     25  C   UNL     1      -3.382  13.160  22.057  0.00  0.00    +0.000 A 
ATOM     26  C   UNL     1      -4.713  12.751  21.890  0.00  0.00    +0.000 A 
ATOM     27  C   UNL     1      -5.722  13.675  21.770  0.00  0.00    +0.000 A 
ATOM     28  C   UNL     1      -5.401  15.007  21.892  0.00  0.00    +0.000 A 
ATOM     29  C   UNL     1      -4.072  15.399  22.148  0.00  0.00    +0.000 A 
ENDBRANCH  23  24
ENDBRANCH  10  23
TORSDOF 5
ENDMDL
MODEL 9
REMARK VINA RESULT:      -6.8      2.734      7.131
REMARK  Name = 
REMARK  5 active torsions:
REMARK  status: ('A' for Active; 'I' for Inactive)
REMARK    1  A    between atoms: C_2  and  C_3
REMARK    2  A    between atoms: C_8  and  S_9
REMARK    3  A    between atoms: S_9  and  N_12
REMARK    4  A    between atoms: C_21  and  C_22
REMARK    5  A    between atoms: C_22  and  C_23
REMARK                            x       y       z     vdW  Elec       q    Type
REMARK                         _______ _______ _______ _____ _____    ______ ____
ROOT
ATOM      1  N   UNL     1      -3.010  12.904  22.524  0.00  0.00    +0.000 NA
ATOM      2  C   UNL     1      -2.053  11.401  23.119  0.00  0.00    +0.000 C 
ATOM      3  C   UNL     1      -0.350  10.938  22.334  0.00  0.00    +0.000 C 
ATOM      4  C   UNL     1       0.403  12.168  21.052  0.00  0.00    +0.000 C 
ATOM      5  C   UNL     1       1.657  12.333  20.591  0.00  0.00    +0.000 C 
ATOM      6  C   UNL     1       1.805  13.411  19.571  0.00  0.00    +0.000 C 
ATOM      7  O   UNL     1       2.820  14.099  19.530  0.00  0.00    +0.000 OA
ATOM      8  C   UNL     1       0.707  13.521  18.523  0.00  0.00    +0.000 C 
ATOM      9  C   UNL     1      -0.705  13.671  19.075  0.00  0.00    +0.000 C 
ATOM     10  C   UNL     1      -0.810  13.487  20.560  0.00  0.00    +0.000 C 
ATOM     11  C   UNL     1      -2.510  13.741  20.975  0.00  0.00    +0.000 C 
ENDROOT
BRANCH   1  12
ATOM     12  S   UNL     1      -4.503  13.448  23.161  0.00  0.00    +0.000 S 
ATOM     13  O   UNL     1      -4.424  14.861  23.439  0.00  0.00    +0.000 OA
ATOM     14  O   UNL     1      -4.870  12.503  24.198  0.00  0.00    +0.000 OA
BRANCH  12  20
ATOM     15  C   UNL     1      -6.928  13.966  21.747  0.00  0.00    +0.000 A 
ATOM     16  C   UNL     1      -7.853  13.712  20.694  0.00  0.00    +0.000 A 
ATOM     17  C   UNL     1      -7.618  12.719  19.744  0.00  0.00    +0.000 A 
ATOM     18  C   UNL     1      -6.466  11.948  19.845  0.00  0.00    +0.000 A 
ATOM     19  C   UNL     1      -5.561  12.161  20.901  0.00  0.00    +0.000 A 
ATOM     20  C   UNL     1      -5.763  13.193  21.847  0.00  0.00    +0.000 A 
BRANCH  15  22
ATOM     21  N   UNL     1      -7.540  15.977  23.261  0.00  0.00    +0.000 NA
ATOM     22  C   UNL     1      -7.196  15.098  22.578  0.00  0.00    +0.000 C 
ENDBRANCH  15  22
ENDBRANCH  12  20
ENDBRANCH   1  12
BRANCH  10  23
ATOM     23  C   UNL     1      -1.264  12.411  21.272  0.00  0.00    +0.000 C 
BRANCH  23  24
ATOM     24  C   UNL     1      -1.717  11.693  19.537  0.00  0.00    +0.000 A 
ATOM     25  C   UNL     1      -2.946  11.992  18.913  0.00  0.00    +0.000 A 
ATOM     26  C   UNL     1      -3.424  11.412  17.729  0.00  0.00    +0.000 A 
ATOM     27  C   UNL     1      -2.746  10.380  17.129  0.00  0.00    +0.000 A 
ATOM     28  C   UNL     1      -1.550   9.981  17.680  0.00  0.00    +0.000 A 
ATOM     29  C   UNL     1      -1.038  10.631  18.820  0.00  0.00    +0.000 A 
ENDBRANCH  23  24
ENDBRANCH  10  23
TORSDOF 5
ENDMDL
