MODEL 1
REMARK VINA RESULT:      -6.1      0.000      0.000
REMARK  Name = 
REMARK  5 active torsions:
REMARK  status: ('A' for Active; 'I' for Inactive)
REMARK    1  A    between atoms: C_1  and  C_2
REMARK    2  A    between atoms: C_18  and  C_19
REMARK    3  A    between atoms: C_18  and  O_20
REMARK    4  A    between atoms: C_21  and  C_22
REMARK    5  A    between atoms: C_21  and  O_23
REMARK                            x       y       z     vdW  Elec       q    Type
REMARK                         _______ _______ _______ _____ _____    ______ ____
ROOT
ATOM      1  C   UNL     1      -1.408  14.554  24.029  0.00  0.00    +0.000 C 
ATOM      2  C   UNL     1      -2.692  14.328  23.239  0.00  0.00    +0.000 C 
ATOM      3  C   UNL     1      -2.556  13.212  22.196  0.00  0.00    +0.000 C 
ATOM      4  O   UNL     1      -1.855  12.205  22.306  0.00  0.00    +0.000 OA
ATOM      5  O   UNL     1      -3.435  13.412  21.200  0.00  0.00    +0.000 OA
ATOM      6  C   UNL     1      -4.000  12.312  20.479  0.00  0.00    +0.000 C 
ATOM      7  C   UNL     1      -3.215  12.159  19.182  0.00  0.00    +0.000 C 
ATOM      8  C   UNL     1      -4.217  11.468  18.293  0.00  0.00    +0.000 C 
ATOM      9  N   UNL     1      -5.444  12.240  18.530  0.00  0.00    +0.000 NA
ATOM     10  C   UNL     1      -6.645  11.458  18.216  0.00  0.00    +0.000 C 
ATOM     11  C   UNL     1      -7.424  11.437  19.479  0.00  0.00    +0.000 C 
ATOM     12  O   UNL     1      -6.845  10.575  20.454  0.00  0.00    +0.000 OA
ATOM     13  C   UNL     1      -6.652  11.995  20.622  0.00  0.00    +0.000 C 
ATOM     14  C   UNL     1      -7.403  12.471  21.852  0.00  0.00    +0.000 C 
ATOM     15  O   UNL     1      -7.019  13.773  22.249  0.00  0.00    +0.000 OA
ATOM     16  C   UNL     1      -6.540  13.866  23.537  0.00  0.00    +0.000 C 
ATOM     17  O   UNL     1      -7.013  13.334  24.526  0.00  0.00    +0.000 OA
ATOM     18  C   UNL     1      -5.264  14.743  23.454  0.00  0.00    +0.000 C 
ATOM     19  C   UNL     1      -5.529  16.179  23.888  0.00  0.00    +0.000 C 
ATOM     20  C   UNL     1      -3.980  14.070  24.117  0.00  0.00    +0.000 C 
ATOM     21  C   UNL     1      -4.117  12.550  24.401  0.00  0.00    +0.000 C 
ATOM     22  C   UNL     1      -5.434  12.648  19.983  0.00  0.00    +0.000 C 
ENDROOT
BRANCH  18  23
ATOM     23  O   UNL     1      -5.026  14.969  22.044  0.00  0.00    +0.000 OA
ATOM     24  H   UNL     1      -4.780  14.103  21.661  0.00  0.00    +0.000 HD
ENDBRANCH  18  23
BRANCH  20  25
ATOM     25  O   UNL     1      -3.795  14.619  25.440  0.00  0.00    +0.000 OA
ATOM     26  H   UNL     1      -3.142  14.085  25.921  0.00  0.00    +0.000 HD
ENDBRANCH  20  25
TORSDOF 2
ENDMDL
MODEL 2
REMARK VINA RESULT:      -6.1     13.025     15.186
REMARK  Name = 
REMARK  5 active torsions:
REMARK  status: ('A' for Active; 'I' for Inactive)
REMARK    1  A    between atoms: C_1  and  C_2
REMARK    2  A    between atoms: C_18  and  C_19
REMARK    3  A    between atoms: C_18  and  O_20
REMARK    4  A    between atoms: C_21  and  C_22
REMARK    5  A    between atoms: C_21  and  O_23
REMARK                            x       y       z     vdW  Elec       q    Type
REMARK                         _______ _______ _______ _____ _____    ______ ____
ROOT
ATOM      1  C   UNL     1      10.179  16.314  17.205  0.00  0.00    +0.000 C 
ATOM      2  C   UNL     1      10.151  15.359  18.393  0.00  0.00    +0.000 C 
ATOM      3  C   UNL     1       9.065  15.718  19.415  0.00  0.00    +0.000 C 
ATOM      4  O   UNL     1       7.973  16.224  19.156  0.00  0.00    +0.000 OA
ATOM      5  O   UNL     1       9.414  15.259  20.628  0.00  0.00    +0.000 OA
ATOM      6  C   UNL     1       8.423  14.856  21.580  0.00  0.00    +0.000 C 
ATOM      7  C   UNL     1       8.216  16.014  22.548  0.00  0.00    +0.000 C 
ATOM      8  C   UNL     1       7.694  15.306  23.772  0.00  0.00    +0.000 C 
ATOM      9  N   UNL     1       8.610  14.165  23.898  0.00  0.00    +0.000 NA
ATOM     10  C   UNL     1       8.003  13.064  24.655  0.00  0.00    +0.000 C 
ATOM     11  C   UNL     1       8.039  11.904  23.731  0.00  0.00    +0.000 C 
ATOM     12  O   UNL     1       7.074  12.017  22.689  0.00  0.00    +0.000 OA
ATOM     13  C   UNL     1       8.450  12.297  22.355  0.00  0.00    +0.000 C 
ATOM     14  C   UNL     1       8.976  11.228  21.414  0.00  0.00    +0.000 C 
ATOM     15  O   UNL     1      10.201  11.595  20.811  0.00  0.00    +0.000 OA
ATOM     16  C   UNL     1      10.185  11.614  19.433  0.00  0.00    +0.000 C 
ATOM     17  O   UNL     1       9.683  10.777  18.704  0.00  0.00    +0.000 OA
ATOM     18  C   UNL     1      10.890  12.931  19.018  0.00  0.00    +0.000 C 
ATOM     19  C   UNL     1      12.332  12.694  18.587  0.00  0.00    +0.000 C 
ATOM     20  C   UNL     1      10.032  13.829  18.019  0.00  0.00    +0.000 C 
ATOM     21  C   UNL     1       8.534  13.436  17.916  0.00  0.00    +0.000 C 
ATOM     22  C   UNL     1       8.961  13.724  22.499  0.00  0.00    +0.000 C 
ENDROOT
BRANCH  18  23
ATOM     23  O   UNL     1      11.134  13.659  20.245  0.00  0.00    +0.000 OA
ATOM     24  H   UNL     1      10.342  14.210  20.403  0.00  0.00    +0.000 HD
ENDBRANCH  18  23
BRANCH  20  25
ATOM     25  O   UNL     1      10.505  13.611  16.671  0.00  0.00    +0.000 OA
ATOM     26  H   UNL     1       9.795  13.827  16.044  0.00  0.00    +0.000 HD
ENDBRANCH  20  25
TORSDOF 2
ENDMDL
MODEL 3
REMARK VINA RESULT:      -6.1     13.683     15.869
REMARK  Name = 
REMARK  5 active torsions:
REMARK  status: ('A' for Active; 'I' for Inactive)
REMARK    1  A    between atoms: C_1  and  C_2
REMARK    2  A    between atoms: C_18  and  C_19
REMARK    3  A    between atoms: C_18  and  O_20
REMARK    4  A    between atoms: C_21  and  C_22
REMARK    5  A    between atoms: C_21  and  O_23
REMARK                            x       y       z     vdW  Elec       q    Type
REMARK                         _______ _______ _______ _____ _____    ______ ____
ROOT
ATOM      1  C   UNL     1       8.026  12.031  22.587  0.00  0.00    +0.000 C 
ATOM      2  C   UNL     1       8.492  12.646  21.272  0.00  0.00    +0.000 C 
ATOM      3  C   UNL     1       8.920  14.111  21.423  0.00  0.00    +0.000 C 
ATOM      4  O   UNL     1       9.445  14.608  22.420  0.00  0.00    +0.000 OA
ATOM      5  O   UNL     1       8.781  14.748  20.249  0.00  0.00    +0.000 OA
ATOM      6  C   UNL     1       9.643  15.832  19.888  0.00  0.00    +0.000 C 
ATOM      7  C   UNL     1       8.904  17.130  20.193  0.00  0.00    +0.000 C 
ATOM      8  C   UNL     1       9.574  18.097  19.252  0.00  0.00    +0.000 C 
ATOM      9  N   UNL     1       9.612  17.346  17.991  0.00  0.00    +0.000 NA
ATOM     10  C   UNL     1      10.669  17.837  17.100  0.00  0.00    +0.000 C 
ATOM     11  C   UNL     1      11.532  16.656  16.847  0.00  0.00    +0.000 C 
ATOM     12  O   UNL     1      12.331  16.322  17.979  0.00  0.00    +0.000 OA
ATOM     13  C   UNL     1      11.171  15.503  17.718  0.00  0.00    +0.000 C 
ATOM     14  C   UNL     1      11.610  14.110  17.308  0.00  0.00    +0.000 C 
ATOM     15  O   UNL     1      10.546  13.179  17.333  0.00  0.00    +0.000 OA
ATOM     16  C   UNL     1      10.747  12.091  18.154  0.00  0.00    +0.000 C 
ATOM     17  O   UNL     1      11.771  11.440  18.254  0.00  0.00    +0.000 OA
ATOM     18  C   UNL     1       9.427  11.906  18.946  0.00  0.00    +0.000 C 
ATOM     19  C   UNL     1       8.567  10.788  18.366  0.00  0.00    +0.000 C 
ATOM     20  C   UNL     1       9.629  11.843  20.525  0.00  0.00    +0.000 C 
ATOM     21  C   UNL     1      11.018  12.329  21.021  0.00  0.00    +0.000 C 
ATOM     22  C   UNL     1       9.842  15.898  18.348  0.00  0.00    +0.000 C 
ENDROOT
BRANCH  18  23
ATOM     23  O   UNL     1       8.592  13.038  18.603  0.00  0.00    +0.000 OA
ATOM     24  H   UNL     1       8.392  12.957  17.649  0.00  0.00    +0.000 HD
ENDBRANCH  18  23
BRANCH  20  25
ATOM     25  O   UNL     1       9.616  10.460  20.944  0.00  0.00    +0.000 OA
ATOM     26  H   UNL     1       8.851  10.308  21.522  0.00  0.00    +0.000 HD
ENDBRANCH  20  25
TORSDOF 2
ENDMDL
MODEL 4
REMARK VINA RESULT:      -6.0     12.358     15.147
REMARK  Name = 
REMARK  5 active torsions:
REMARK  status: ('A' for Active; 'I' for Inactive)
REMARK    1  A    between atoms: C_1  and  C_2
REMARK    2  A    between atoms: C_18  and  C_19
REMARK    3  A    between atoms: C_18  and  O_20
REMARK    4  A    between atoms: C_21  and  C_22
REMARK    5  A    between atoms: C_21  and  O_23
REMARK                            x       y       z     vdW  Elec       q    Type
REMARK                         _______ _______ _______ _____ _____    ______ ____
ROOT
ATOM      1  C   UNL     1      11.425  14.487  16.601  0.00  0.00    +0.000 C 
ATOM      2  C   UNL     1      10.940  14.226  18.022  0.00  0.00    +0.000 C 
ATOM      3  C   UNL     1       9.802  15.164  18.441  0.00  0.00    +0.000 C 
ATOM      4  O   UNL     1       8.935  15.621  17.695  0.00  0.00    +0.000 OA
ATOM      5  O   UNL     1       9.792  15.298  19.778  0.00  0.00    +0.000 OA
ATOM      6  C   UNL     1       8.571  15.528  20.489  0.00  0.00    +0.000 C 
ATOM      7  C   UNL     1       8.473  17.023  20.767  0.00  0.00    +0.000 C 
ATOM      8  C   UNL     1       7.573  17.057  21.974  0.00  0.00    +0.000 C 
ATOM      9  N   UNL     1       8.142  16.007  22.829  0.00  0.00    +0.000 NA
ATOM     10  C   UNL     1       7.153  15.488  23.781  0.00  0.00    +0.000 C 
ATOM     11  C   UNL     1       7.079  14.034  23.495  0.00  0.00    +0.000 C 
ATOM     12  O   UNL     1       6.386  13.759  22.281  0.00  0.00    +0.000 OA
ATOM     13  C   UNL     1       7.826  13.668  22.261  0.00  0.00    +0.000 C 
ATOM     14  C   UNL     1       8.244  12.223  22.058  0.00  0.00    +0.000 C 
ATOM     15  O   UNL     1       9.612  12.097  21.727  0.00  0.00    +0.000 OA
ATOM     16  C   UNL     1       9.862  11.459  20.531  0.00  0.00    +0.000 C 
ATOM     17  O   UNL     1       9.319  10.448  20.123  0.00  0.00    +0.000 OA
ATOM     18  C   UNL     1      10.933  12.317  19.808  0.00  0.00    +0.000 C 
ATOM     19  C   UNL     1      12.329  11.720  19.944  0.00  0.00    +0.000 C 
ATOM     20  C   UNL     1      10.525  12.732  18.324  0.00  0.00    +0.000 C 
ATOM     21  C   UNL     1       9.023  12.533  17.984  0.00  0.00    +0.000 C 
ATOM     22  C   UNL     1       8.633  14.912  21.915  0.00  0.00    +0.000 C 
ENDROOT
BRANCH  18  23
ATOM     23  O   UNL     1      11.110  13.503  20.618  0.00  0.00    +0.000 OA
ATOM     24  H   UNL     1      10.641  13.337  21.460  0.00  0.00    +0.000 HD
ENDBRANCH  18  23
BRANCH  20  25
ATOM     25  O   UNL     1      11.176  11.840  17.393  0.00  0.00    +0.000 OA
ATOM     26  H   UNL     1      11.220  10.950  17.779  0.00  0.00    +0.000 HD
ENDBRANCH  20  25
TORSDOF 2
ENDMDL
MODEL 5
REMARK VINA RESULT:      -6.0      4.061      6.188
REMARK  Name = 
REMARK  5 active torsions:
REMARK  status: ('A' for Active; 'I' for Inactive)
REMARK    1  A    between atoms: C_1  and  C_2
REMARK    2  A    between atoms: C_18  and  C_19
REMARK    3  A    between atoms: C_18  and  O_20
REMARK    4  A    between atoms: C_21  and  C_22
REMARK    5  A    between atoms: C_21  and  O_23
REMARK                            x       y       z     vdW  Elec       q    Type
REMARK                         _______ _______ _______ _____ _____    ______ ____
ROOT
ATOM      1  C   UNL     1      -2.202  14.542  24.455  0.00  0.00    +0.000 C 
ATOM      2  C   UNL     1      -1.271  13.917  23.422  0.00  0.00    +0.000 C 
ATOM      3  C   UNL     1      -1.553  12.427  23.196  0.00  0.00    +0.000 C 
ATOM      4  O   UNL     1      -2.657  11.885  23.264  0.00  0.00    +0.000 OA
ATOM      5  O   UNL     1      -0.440  11.815  22.758  0.00  0.00    +0.000 OA
ATOM      6  C   UNL     1      -0.511  10.685  21.884  0.00  0.00    +0.000 C 
ATOM      7  C   UNL     1      -0.352   9.431  22.735  0.00  0.00    +0.000 C 
ATOM      8  C   UNL     1       0.169   8.437  21.731  0.00  0.00    +0.000 C 
ATOM      9  N   UNL     1       1.210   9.202  21.031  0.00  0.00    +0.000 NA
ATOM     10  C   UNL     1       1.475   8.658  19.694  0.00  0.00    +0.000 C 
ATOM     11  C   UNL     1       1.214   9.787  18.767  0.00  0.00    +0.000 C 
ATOM     12  O   UNL     1      -0.179  10.056  18.627  0.00  0.00    +0.000 OA
ATOM     13  C   UNL     1       0.591  10.948  19.461  0.00  0.00    +0.000 C 
ATOM     14  C   UNL     1       0.668  12.317  18.812  0.00  0.00    +0.000 C 
ATOM     15  O   UNL     1       1.138  13.311  19.701  0.00  0.00    +0.000 OA
ATOM     16  C   UNL     1       0.280  14.373  19.887  0.00  0.00    +0.000 C 
ATOM     17  O   UNL     1      -0.344  14.960  19.021  0.00  0.00    +0.000 OA
ATOM     18  C   UNL     1       0.246  14.629  21.416  0.00  0.00    +0.000 C 
ATOM     19  C   UNL     1       1.129  15.805  21.817  0.00  0.00    +0.000 C 
ATOM     20  C   UNL     1      -1.225  14.659  22.028  0.00  0.00    +0.000 C 
ATOM     21  C   UNL     1      -2.326  14.082  21.098  0.00  0.00    +0.000 C 
ATOM     22  C   UNL     1       0.726  10.628  20.944  0.00  0.00    +0.000 C 
ENDROOT
BRANCH  18  23
ATOM     23  O   UNL     1       1.007  13.556  22.018  0.00  0.00    +0.000 OA
ATOM     24  H   UNL     1       0.428  12.767  22.010  0.00  0.00    +0.000 HD
ENDBRANCH  18  23
BRANCH  20  25
ATOM     25  O   UNL     1      -1.639  16.034  22.184  0.00  0.00    +0.000 OA
ATOM     26  H   UNL     1      -2.050  16.148  23.057  0.00  0.00    +0.000 HD
ENDBRANCH  20  25
TORSDOF 2
ENDMDL
MODEL 6
REMARK VINA RESULT:      -5.9      2.460      5.896
REMARK  Name = 
REMARK  5 active torsions:
REMARK  status: ('A' for Active; 'I' for Inactive)
REMARK    1  A    between atoms: C_1  and  C_2
REMARK    2  A    between atoms: C_18  and  C_19
REMARK    3  A    between atoms: C_18  and  O_20
REMARK    4  A    between atoms: C_21  and  C_22
REMARK    5  A    between atoms: C_21  and  O_23
REMARK                            x       y       z     vdW  Elec       q    Type
REMARK                         _______ _______ _______ _____ _____    ______ ____
ROOT
ATOM      1  C   UNL     1      -2.288  10.905  16.337  0.00  0.00    +0.000 C 
ATOM      2  C   UNL     1      -2.261  11.635  17.675  0.00  0.00    +0.000 C 
ATOM      3  C   UNL     1      -3.557  11.453  18.475  0.00  0.00    +0.000 C 
ATOM      4  O   UNL     1      -4.271  10.450  18.469  0.00  0.00    +0.000 OA
ATOM      5  O   UNL     1      -3.725  12.492  19.310  0.00  0.00    +0.000 OA
ATOM      6  C   UNL     1      -4.398  12.333  20.563  0.00  0.00    +0.000 C 
ATOM      7  C   UNL     1      -5.836  12.800  20.377  0.00  0.00    +0.000 C 
ATOM      8  C   UNL     1      -6.227  13.173  21.783  0.00  0.00    +0.000 C 
ATOM      9  N   UNL     1      -5.069  13.951  22.242  0.00  0.00    +0.000 NA
ATOM     10  C   UNL     1      -4.967  13.959  23.706  0.00  0.00    +0.000 C 
ATOM     11  C   UNL     1      -3.628  13.388  23.996  0.00  0.00    +0.000 C 
ATOM     12  O   UNL     1      -3.584  11.981  23.776  0.00  0.00    +0.000 OA
ATOM     13  C   UNL     1      -2.982  12.830  22.776  0.00  0.00    +0.000 C 
ATOM     14  C   UNL     1      -1.478  12.627  22.772  0.00  0.00    +0.000 C 
ATOM     15  O   UNL     1      -0.861  13.188  21.630  0.00  0.00    +0.000 OA
ATOM     16  C   UNL     1      -0.140  12.297  20.865  0.00  0.00    +0.000 C 
ATOM     17  O   UNL     1       0.621  11.440  21.277  0.00  0.00    +0.000 OA
ATOM     18  C   UNL     1      -0.535  12.585  19.394  0.00  0.00    +0.000 C 
ATOM     19  C   UNL     1       0.518  13.419  18.673  0.00  0.00    +0.000 C 
ATOM     20  C   UNL     1      -1.025  11.294  18.597  0.00  0.00    +0.000 C 
ATOM     21  C   UNL     1      -1.367  10.071  19.492  0.00  0.00    +0.000 C 
ATOM     22  C   UNL     1      -3.843  13.326  21.623  0.00  0.00    +0.000 C 
ENDROOT
BRANCH  18  23
ATOM     23  O   UNL     1      -1.602  13.561  19.449  0.00  0.00    +0.000 OA
ATOM     24  H   UNL     1      -1.357  14.202  20.145  0.00  0.00    +0.000 HD
ENDBRANCH  18  23
BRANCH  20  25
ATOM     25  O   UNL     1       0.069  10.796  17.795  0.00  0.00    +0.000 OA
ATOM     26  H   UNL     1       0.543  10.107  18.290  0.00  0.00    +0.000 HD
ENDBRANCH  20  25
TORSDOF 2
ENDMDL
MODEL 7
REMARK VINA RESULT:      -5.8      1.600      2.466
REMARK  Name = 
REMARK  5 active torsions:
REMARK  status: ('A' for Active; 'I' for Inactive)
REMARK    1  A    between atoms: C_1  and  C_2
REMARK    2  A    between atoms: C_18  and  C_19
REMARK    3  A    between atoms: C_18  and  O_20
REMARK    4  A    between atoms: C_21  and  C_22
REMARK    5  A    between atoms: C_21  and  O_23
REMARK                            x       y       z     vdW  Elec       q    Type
REMARK                         _______ _______ _______ _____ _____    ______ ____
ROOT
ATOM      1  C   UNL     1       0.815  12.769  21.001  0.00  0.00    +0.000 C 
ATOM      2  C   UNL     1      -0.683  13.045  20.965  0.00  0.00    +0.000 C 
ATOM      3  C   UNL     1      -1.446  12.056  20.074  0.00  0.00    +0.000 C 
ATOM      4  O   UNL     1      -1.153  10.873  19.898  0.00  0.00    +0.000 OA
ATOM      5  O   UNL     1      -2.578  12.626  19.630  0.00  0.00    +0.000 OA
ATOM      6  C   UNL     1      -3.746  11.842  19.362  0.00  0.00    +0.000 C 
ATOM      7  C   UNL     1      -3.793  11.581  17.862  0.00  0.00    +0.000 C 
ATOM      8  C   UNL     1      -5.262  11.339  17.634  0.00  0.00    +0.000 C 
ATOM      9  N   UNL     1      -5.889  12.432  18.389  0.00  0.00    +0.000 NA
ATOM     10  C   UNL     1      -7.270  12.109  18.765  0.00  0.00    +0.000 C 
ATOM     11  C   UNL     1      -7.292  12.209  20.246  0.00  0.00    +0.000 C 
ATOM     12  O   UNL     1      -6.629  11.112  20.868  0.00  0.00    +0.000 OA
ATOM     13  C   UNL     1      -5.927  12.373  20.816  0.00  0.00    +0.000 C 
ATOM     14  C   UNL     1      -5.782  12.935  22.218  0.00  0.00    +0.000 C 
ATOM     15  O   UNL     1      -4.852  13.999  22.279  0.00  0.00    +0.000 OA
ATOM     16  C   UNL     1      -3.806  13.804  23.153  0.00  0.00    +0.000 C 
ATOM     17  O   UNL     1      -3.880  13.351  24.282  0.00  0.00    +0.000 OA
ATOM     18  C   UNL     1      -2.527  14.232  22.388  0.00  0.00    +0.000 C 
ATOM     19  C   UNL     1      -2.062  15.627  22.791  0.00  0.00    +0.000 C 
ATOM     20  C   UNL     1      -1.383  13.122  22.379  0.00  0.00    +0.000 C 
ATOM     21  C   UNL     1      -1.851  11.704  22.804  0.00  0.00    +0.000 C 
ATOM     22  C   UNL     1      -5.040  12.666  19.614  0.00  0.00    +0.000 C 
ENDROOT
BRANCH  18  23
ATOM     23  O   UNL     1      -2.947  14.514  21.032  0.00  0.00    +0.000 OA
ATOM     24  H   UNL     1      -3.151  13.651  20.619  0.00  0.00    +0.000 HD
ENDBRANCH  18  23
BRANCH  20  25
ATOM     25  O   UNL     1      -0.409  13.447  23.396  0.00  0.00    +0.000 OA
ATOM     26  H   UNL     1       0.288  14.000  23.008  0.00  0.00    +0.000 HD
ENDBRANCH  20  25
TORSDOF 2
ENDMDL
MODEL 8
REMARK VINA RESULT:      -5.8      2.078      3.744
REMARK  Name = 
REMARK  5 active torsions:
REMARK  status: ('A' for Active; 'I' for Inactive)
REMARK    1  A    between atoms: C_1  and  C_2
REMARK    2  A    between atoms: C_18  and  C_19
REMARK    3  A    between atoms: C_18  and  O_20
REMARK    4  A    between atoms: C_21  and  C_22
REMARK    5  A    between atoms: C_21  and  O_23
REMARK                            x       y       z     vdW  Elec       q    Type
REMARK                         _______ _______ _______ _____ _____    ______ ____
ROOT
ATOM      1  C   UNL     1       0.966  11.711  18.956  0.00  0.00    +0.000 C 
ATOM      2  C   UNL     1      -0.389  12.268  19.376  0.00  0.00    +0.000 C 
ATOM      3  C   UNL     1      -1.563  11.454  18.819  0.00  0.00    +0.000 C 
ATOM      4  O   UNL     1      -1.564  10.239  18.618  0.00  0.00    +0.000 OA
ATOM      5  O   UNL     1      -2.652  12.234  18.723  0.00  0.00    +0.000 OA
ATOM      6  C   UNL     1      -3.967  11.690  18.873  0.00  0.00    +0.000 C 
ATOM      7  C   UNL     1      -4.534  11.460  17.477  0.00  0.00    +0.000 C 
ATOM      8  C   UNL     1      -6.018  11.505  17.732  0.00  0.00    +0.000 C 
ATOM      9  N   UNL     1      -6.161  12.689  18.589  0.00  0.00    +0.000 NA
ATOM     10  C   UNL     1      -7.386  12.631  19.394  0.00  0.00    +0.000 C 
ATOM     11  C   UNL     1      -6.921  12.716  20.800  0.00  0.00    +0.000 C 
ATOM     12  O   UNL     1      -6.309  11.506  21.238  0.00  0.00    +0.000 OA
ATOM     13  C   UNL     1      -5.440  12.610  20.907  0.00  0.00    +0.000 C 
ATOM     14  C   UNL     1      -4.758  13.118  22.163  0.00  0.00    +0.000 C 
ATOM     15  O   UNL     1      -3.677  13.985  21.878  0.00  0.00    +0.000 OA
ATOM     16  C   UNL     1      -2.463  13.583  22.390  0.00  0.00    +0.000 C 
ATOM     17  O   UNL     1      -2.259  13.141  23.507  0.00  0.00    +0.000 OA
ATOM     18  C   UNL     1      -1.436  13.769  21.243  0.00  0.00    +0.000 C 
ATOM     19  C   UNL     1      -0.618  15.044  21.412  0.00  0.00    +0.000 C 
ATOM     20  C   UNL     1      -0.579  12.461  20.932  0.00  0.00    +0.000 C 
ATOM     21  C   UNL     1      -1.142  11.154  21.552  0.00  0.00    +0.000 C 
ATOM     22  C   UNL     1      -4.940  12.743  19.475  0.00  0.00    +0.000 C 
ENDROOT
BRANCH  18  23
ATOM     23  O   UNL     1      -2.204  14.141  20.075  0.00  0.00    +0.000 OA
ATOM     24  H   UNL     1      -2.830  14.836  20.363  0.00  0.00    +0.000 HD
ENDBRANCH  18  23
BRANCH  20  25
ATOM     25  O   UNL     1       0.709  12.582  21.577  0.00  0.00    +0.000 OA
ATOM     26  H   UNL     1       1.207  13.308  21.165  0.00  0.00    +0.000 HD
ENDBRANCH  20  25
TORSDOF 2
ENDMDL
MODEL 9
REMARK VINA RESULT:      -5.6      2.029      4.581
REMARK  Name = 
REMARK  5 active torsions:
REMARK  status: ('A' for Active; 'I' for Inactive)
REMARK    1  A    between atoms: C_1  and  C_2
REMARK    2  A    between atoms: C_18  and  C_19
REMARK    3  A    between atoms: C_18  and  O_20
REMARK    4  A    between atoms: C_21  and  C_22
REMARK    5  A    between atoms: C_21  and  O_23
REMARK                            x       y       z     vdW  Elec       q    Type
REMARK                         _______ _______ _______ _____ _____    ______ ____
ROOT
ATOM      1  C   UNL     1      -7.535  13.516  22.096  0.00  0.00    +0.000 C 
ATOM      2  C   UNL     1      -6.048  13.181  22.143  0.00  0.00    +0.000 C 
ATOM      3  C   UNL     1      -5.391  13.206  20.758  0.00  0.00    +0.000 C 
ATOM      4  O   UNL     1      -5.706  13.947  19.826  0.00  0.00    +0.000 OA
ATOM      5  O   UNL     1      -4.314  12.404  20.752  0.00  0.00    +0.000 OA
ATOM      6  C   UNL     1      -3.185  12.687  19.919  0.00  0.00    +0.000 C 
ATOM      7  C   UNL     1      -3.305  11.823  18.669  0.00  0.00    +0.000 C 
ATOM      8  C   UNL     1      -1.870  11.725  18.220  0.00  0.00    +0.000 C 
ATOM      9  N   UNL     1      -1.162  11.425  19.471  0.00  0.00    +0.000 NA
ATOM     10  C   UNL     1       0.252  11.813  19.399  0.00  0.00    +0.000 C 
ATOM     11  C   UNL     1       0.438  12.773  20.515  0.00  0.00    +0.000 C 
ATOM     12  O   UNL     1      -0.155  14.039  20.240  0.00  0.00    +0.000 OA
ATOM     13  C   UNL     1      -0.855  13.158  21.144  0.00  0.00    +0.000 C 
ATOM     14  C   UNL     1      -0.843  13.747  22.543  0.00  0.00    +0.000 C 
ATOM     15  O   UNL     1      -1.757  13.102  23.408  0.00  0.00    +0.000 OA
ATOM     16  C   UNL     1      -2.701  13.930  23.973  0.00  0.00    +0.000 C 
ATOM     17  O   UNL     1      -2.504  15.034  24.449  0.00  0.00    +0.000 OA
ATOM     18  C   UNL     1      -4.056  13.188  23.836  0.00  0.00    +0.000 C 
ATOM     19  C   UNL     1      -4.470  12.511  25.137  0.00  0.00    +0.000 C 
ATOM     20  C   UNL     1      -5.197  14.059  23.142  0.00  0.00    +0.000 C 
ATOM     21  C   UNL     1      -4.688  15.330  22.410  0.00  0.00    +0.000 C 
ATOM     22  C   UNL     1      -1.869  12.178  20.571  0.00  0.00    +0.000 C 
ENDROOT
BRANCH  18  23
ATOM     23  O   UNL     1      -3.787  12.010  23.040  0.00  0.00    +0.000 OA
ATOM     24  H   UNL     1      -3.291  12.313  22.253  0.00  0.00    +0.000 HD
ENDBRANCH  18  23
BRANCH  20  25
ATOM     25  O   UNL     1      -6.051  14.612  24.168  0.00  0.00    +0.000 OA
ATOM     26  H   UNL     1      -6.229  13.932  24.838  0.00  0.00    +0.000 HD
ENDBRANCH  20  25
TORSDOF 2
ENDMDL
