MODEL 1
REMARK VINA RESULT:      -7.4      0.000      0.000
REMARK  Name = 
REMARK  5 active torsions:
REMARK  status: ('A' for Active; 'I' for Inactive)
REMARK    1  A    between atoms: C_1  and  N_2
REMARK    2  A    between atoms: C_3  and  C_5
REMARK    3  A    between atoms: C_5  and  N_6
REMARK    4  A    between atoms: C_8  and  C_9
REMARK    5  A    between atoms: N_17  and  C_18
REMARK                            x       y       z     vdW  Elec       q    Type
REMARK                         _______ _______ _______ _____ _____    ______ ____
ROOT
ATOM      1  N   UNL     1       6.692   5.419  17.967  0.00  0.00    +0.000 N 
ATOM      2  C   UNL     1       5.374   5.617  18.283  0.00  0.00    +0.000 A 
ATOM      3  C   UNL     1       4.638   4.865  17.385  0.00  0.00    +0.000 A 
ATOM      4  C   UNL     1       5.625   4.213  16.611  0.00  0.00    +0.000 A 
ATOM      5  N   UNL     1       6.869   4.588  16.920  0.00  0.00    +0.000 NA
ENDROOT
BRANCH   3   6
ATOM      6  C   UNL     1       3.238   4.460  17.589  0.00  0.00    +0.000 A 
ATOM      7  C   UNL     1       2.873   3.294  16.906  0.00  0.00    +0.000 A 
ATOM      8  C   UNL     1       2.398   2.224  17.644  0.00  0.00    +0.000 A 
ATOM      9  N   UNL     1       2.191   2.225  18.986  0.00  0.00    +0.000 NA
ATOM     10  C   UNL     1       2.224   3.470  19.492  0.00  0.00    +0.000 A 
ATOM     11  C   UNL     1       2.607   4.635  18.835  0.00  0.00    +0.000 A 
ATOM     12  C   UNL     1       2.011   5.700  19.588  0.00  0.00    +0.000 A 
ATOM     13  C   UNL     1       1.500   5.152  20.752  0.00  0.00    +0.000 A 
ATOM     14  N   UNL     1       1.927   3.847  20.771  0.00  0.00    +0.000 N 
ATOM     15  C   UNL     1       2.258   3.104  21.960  0.00  0.00    +0.000 C 
ENDBRANCH   3   6
BRANCH   1  16
ATOM     16  C   UNL     1       7.854   6.083  18.530  0.00  0.00    +0.000 C 
BRANCH  16  19
ATOM     17  C   UNL     1       8.849   9.748  18.490  0.00  0.00    +0.000 C 
ATOM     18  N   UNL     1       8.561   8.397  18.883  0.00  0.00    +0.000 N 
ATOM     19  C   UNL     1       7.933   7.511  18.035  0.00  0.00    +0.000 C 
ATOM     20  O   UNL     1       7.419   7.858  16.970  0.00  0.00    +0.000 OA
ATOM     21  H   UNL     1       8.999   8.026  19.729  0.00  0.00    +0.000 HD
ENDBRANCH  16  19
ENDBRANCH   1  16
TORSDOF 3
ENDMDL
MODEL 2
REMARK VINA RESULT:      -7.4      3.664      5.616
REMARK  Name = 
REMARK  5 active torsions:
REMARK  status: ('A' for Active; 'I' for Inactive)
REMARK    1  A    between atoms: C_1  and  N_2
REMARK    2  A    between atoms: C_3  and  C_5
REMARK    3  A    between atoms: C_5  and  N_6
REMARK    4  A    between atoms: C_8  and  C_9
REMARK    5  A    between atoms: N_17  and  C_18
REMARK                            x       y       z     vdW  Elec       q    Type
REMARK                         _______ _______ _______ _____ _____    ______ ____
ROOT
ATOM      1  N   UNL     1       1.799   8.027  19.923  0.00  0.00    +0.000 N 
ATOM      2  C   UNL     1       2.308   6.791  19.622  0.00  0.00    +0.000 A 
ATOM      3  C   UNL     1       2.718   6.847  18.301  0.00  0.00    +0.000 A 
ATOM      4  C   UNL     1       2.455   8.185  17.929  0.00  0.00    +0.000 A 
ATOM      5  N   UNL     1       1.846   8.888  18.886  0.00  0.00    +0.000 NA
ENDROOT
BRANCH   3   6
ATOM      6  C   UNL     1       3.669   5.908  17.685  0.00  0.00    +0.000 A 
ATOM      7  C   UNL     1       4.981   6.387  17.611  0.00  0.00    +0.000 A 
ATOM      8  C   UNL     1       5.980   5.660  18.233  0.00  0.00    +0.000 A 
ATOM      9  N   UNL     1       5.809   4.471  18.865  0.00  0.00    +0.000 NA
ATOM     10  C   UNL     1       4.615   3.925  18.580  0.00  0.00    +0.000 A 
ATOM     11  C   UNL     1       3.559   4.521  17.897  0.00  0.00    +0.000 A 
ATOM     12  C   UNL     1       2.759   3.429  17.423  0.00  0.00    +0.000 A 
ATOM     13  C   UNL     1       3.238   2.274  18.015  0.00  0.00    +0.000 A 
ATOM     14  N   UNL     1       4.170   2.683  18.936  0.00  0.00    +0.000 N 
ATOM     15  C   UNL     1       4.429   2.031  20.195  0.00  0.00    +0.000 C 
ENDBRANCH   3   6
BRANCH   1  16
ATOM     16  C   UNL     1       1.126   8.442  21.141  0.00  0.00    +0.000 C 
BRANCH  16  19
ATOM     17  C   UNL     1      -1.127  11.317  20.103  0.00  0.00    +0.000 C 
ATOM     18  N   UNL     1      -0.460  10.050  20.203  0.00  0.00    +0.000 N 
ATOM     19  C   UNL     1       0.642   9.870  21.012  0.00  0.00    +0.000 C 
ATOM     20  O   UNL     1       1.232  10.806  21.553  0.00  0.00    +0.000 OA
ATOM     21  H   UNL     1      -0.919   9.220  19.824  0.00  0.00    +0.000 HD
ENDBRANCH  16  19
ENDBRANCH   1  16
TORSDOF 3
ENDMDL
MODEL 3
REMARK VINA RESULT:      -7.3      3.810      5.800
REMARK  Name = 
REMARK  5 active torsions:
REMARK  status: ('A' for Active; 'I' for Inactive)
REMARK    1  A    between atoms: C_1  and  N_2
REMARK    2  A    between atoms: C_3  and  C_5
REMARK    3  A    between atoms: C_5  and  N_6
REMARK    4  A    between atoms: C_8  and  C_9
REMARK    5  A    between atoms: N_17  and  C_18
REMARK                            x       y       z     vdW  Elec       q    Type
REMARK                         _______ _______ _______ _____ _____    ______ ____
ROOT
ATOM      1  N   UNL     1       1.366   9.036  19.239  0.00  0.00    +0.000 N 
ATOM      2  C   UNL     1       2.080   8.575  18.164  0.00  0.00    +0.000 A 
ATOM      3  C   UNL     1       2.689   7.401  18.571  0.00  0.00    +0.000 A 
ATOM      4  C   UNL     1       2.223   7.228  19.895  0.00  0.00    +0.000 A 
ATOM      5  N   UNL     1       1.469   8.243  20.324  0.00  0.00    +0.000 NA
ENDROOT
BRANCH   3   6
ATOM      6  C   UNL     1       3.212   6.374  17.657  0.00  0.00    +0.000 A 
ATOM      7  C   UNL     1       4.484   6.654  17.147  0.00  0.00    +0.000 A 
ATOM      8  C   UNL     1       5.500   5.744  17.384  0.00  0.00    +0.000 A 
ATOM      9  N   UNL     1       5.356   4.555  18.022  0.00  0.00    +0.000 NA
ATOM     10  C   UNL     1       4.063   4.215  18.153  0.00  0.00    +0.000 A 
ATOM     11  C   UNL     1       2.953   5.008  17.877  0.00  0.00    +0.000 A 
ATOM     12  C   UNL     1       1.873   4.083  17.689  0.00  0.00    +0.000 A 
ATOM     13  C   UNL     1       2.325   2.832  18.069  0.00  0.00    +0.000 A 
ATOM     14  N   UNL     1       3.565   3.033  18.624  0.00  0.00    +0.000 N 
ATOM     15  C   UNL     1       4.118   2.267  19.712  0.00  0.00    +0.000 C 
ENDBRANCH   3   6
BRANCH   1  16
ATOM     16  C   UNL     1       0.655  10.296  19.363  0.00  0.00    +0.000 C 
BRANCH  16  19
ATOM     17  C   UNL     1      -0.586  10.222  22.951  0.00  0.00    +0.000 C 
ATOM     18  N   UNL     1      -0.454  10.066  21.530  0.00  0.00    +0.000 N 
ATOM     19  C   UNL     1       0.546  10.694  20.819  0.00  0.00    +0.000 C 
ATOM     20  O   UNL     1       1.270  11.562  21.311  0.00  0.00    +0.000 OA
ATOM     21  H   UNL     1      -0.984   9.327  21.064  0.00  0.00    +0.000 HD
ENDBRANCH  16  19
ENDBRANCH   1  16
TORSDOF 3
ENDMDL
MODEL 4
REMARK VINA RESULT:      -7.2      4.274      6.057
REMARK  Name = 
REMARK  5 active torsions:
REMARK  status: ('A' for Active; 'I' for Inactive)
REMARK    1  A    between atoms: C_1  and  N_2
REMARK    2  A    between atoms: C_3  and  C_5
REMARK    3  A    between atoms: C_5  and  N_6
REMARK    4  A    between atoms: C_8  and  C_9
REMARK    5  A    between atoms: N_17  and  C_18
REMARK                            x       y       z     vdW  Elec       q    Type
REMARK                         _______ _______ _______ _____ _____    ______ ____
ROOT
ATOM      1  N   UNL     1       1.396   9.454  18.836  0.00  0.00    +0.000 N 
ATOM      2  C   UNL     1       2.175   8.828  17.898  0.00  0.00    +0.000 A 
ATOM      3  C   UNL     1       2.624   7.656  18.481  0.00  0.00    +0.000 A 
ATOM      4  C   UNL     1       2.003   7.658  19.751  0.00  0.00    +0.000 A 
ATOM      5  N   UNL     1       1.306   8.770  19.994  0.00  0.00    +0.000 NA
ENDROOT
BRANCH   3   6
ATOM      6  C   UNL     1       3.144   6.500  17.732  0.00  0.00    +0.000 A 
ATOM      7  C   UNL     1       4.491   6.611  17.370  0.00  0.00    +0.000 A 
ATOM      8  C   UNL     1       5.371   5.639  17.812  0.00  0.00    +0.000 A 
ATOM      9  N   UNL     1       5.029   4.536  18.525  0.00  0.00    +0.000 NA
ATOM     10  C   UNL     1       3.701   4.331  18.516  0.00  0.00    +0.000 A 
ATOM     11  C   UNL     1       2.720   5.192  18.032  0.00  0.00    +0.000 A 
ATOM     12  C   UNL     1       1.581   4.357  17.786  0.00  0.00    +0.000 A 
ATOM     13  C   UNL     1       1.852   3.112  18.326  0.00  0.00    +0.000 A 
ATOM     14  N   UNL     1       3.030   3.251  19.017  0.00  0.00    +0.000 N 
ATOM     15  C   UNL     1       3.365   2.547  20.229  0.00  0.00    +0.000 C 
ENDBRANCH   3   6
BRANCH   1  16
ATOM     16  C   UNL     1       0.798  10.775  18.759  0.00  0.00    +0.000 C 
BRANCH  16  19
ATOM     17  C   UNL     1      -2.450   9.871  17.011  0.00  0.00    +0.000 C 
ATOM     18  N   UNL     1      -1.080  10.179  17.311  0.00  0.00    +0.000 N 
ATOM     19  C   UNL     1      -0.696  10.661  18.543  0.00  0.00    +0.000 C 
ATOM     20  O   UNL     1      -1.505  11.029  19.398  0.00  0.00    +0.000 OA
ATOM     21  H   UNL     1      -0.351   9.855  16.672  0.00  0.00    +0.000 HD
ENDBRANCH  16  19
ENDBRANCH   1  16
TORSDOF 3
ENDMDL
MODEL 5
REMARK VINA RESULT:      -7.2      2.463      6.472
REMARK  Name = 
REMARK  5 active torsions:
REMARK  status: ('A' for Active; 'I' for Inactive)
REMARK    1  A    between atoms: C_1  and  N_2
REMARK    2  A    between atoms: C_3  and  C_5
REMARK    3  A    between atoms: C_5  and  N_6
REMARK    4  A    between atoms: C_8  and  C_9
REMARK    5  A    between atoms: N_17  and  C_18
REMARK                            x       y       z     vdW  Elec       q    Type
REMARK                         _______ _______ _______ _____ _____    ______ ____
ROOT
ATOM      1  N   UNL     1       2.346   3.799  18.006  0.00  0.00    +0.000 N 
ATOM      2  C   UNL     1       3.537   3.243  17.618  0.00  0.00    +0.000 A 
ATOM      3  C   UNL     1       4.308   4.277  17.116  0.00  0.00    +0.000 A 
ATOM      4  C   UNL     1       3.494   5.418  17.306  0.00  0.00    +0.000 A 
ATOM      5  N   UNL     1       2.285   5.128  17.790  0.00  0.00    +0.000 NA
ENDROOT
BRANCH   3   6
ATOM      6  C   UNL     1       5.770   4.227  16.962  0.00  0.00    +0.000 A 
ATOM      7  C   UNL     1       6.199   3.959  15.657  0.00  0.00    +0.000 A 
ATOM      8  C   UNL     1       7.020   4.883  15.035  0.00  0.00    +0.000 A 
ATOM      9  N   UNL     1       7.505   6.014  15.607  0.00  0.00    +0.000 NA
ATOM     10  C   UNL     1       7.340   6.006  16.941  0.00  0.00    +0.000 A 
ATOM     11  C   UNL     1       6.606   5.092  17.692  0.00  0.00    +0.000 A 
ATOM     12  C   UNL     1       7.131   5.197  19.022  0.00  0.00    +0.000 A 
ATOM     13  C   UNL     1       7.976   6.293  19.051  0.00  0.00    +0.000 A 
ATOM     14  N   UNL     1       7.824   6.916  17.837  0.00  0.00    +0.000 N 
ATOM     15  C   UNL     1       7.906   8.339  17.622  0.00  0.00    +0.000 C 
ENDBRANCH   3   6
BRANCH   1  16
ATOM     16  C   UNL     1       1.155   3.115  18.478  0.00  0.00    +0.000 C 
BRANCH  16  19
ATOM     17  C   UNL     1       1.575   2.417  22.187  0.00  0.00    +0.000 C 
ATOM     18  N   UNL     1       1.512   2.304  20.757  0.00  0.00    +0.000 N 
ATOM     19  C   UNL     1       0.996   3.311  19.970  0.00  0.00    +0.000 C 
ATOM     20  O   UNL     1       0.395   4.281  20.436  0.00  0.00    +0.000 OA
ATOM     21  H   UNL     1       2.034   1.554  20.298  0.00  0.00    +0.000 HD
ENDBRANCH  16  19
ENDBRANCH   1  16
TORSDOF 3
ENDMDL
MODEL 6
REMARK VINA RESULT:      -7.0      2.196      3.310
REMARK  Name = 
REMARK  5 active torsions:
REMARK  status: ('A' for Active; 'I' for Inactive)
REMARK    1  A    between atoms: C_1  and  N_2
REMARK    2  A    between atoms: C_3  and  C_5
REMARK    3  A    between atoms: C_5  and  N_6
REMARK    4  A    between atoms: C_8  and  C_9
REMARK    5  A    between atoms: N_17  and  C_18
REMARK                            x       y       z     vdW  Elec       q    Type
REMARK                         _______ _______ _______ _____ _____    ______ ____
ROOT
ATOM      1  N   UNL     1       6.200   5.140  16.139  0.00  0.00    +0.000 N 
ATOM      2  C   UNL     1       5.246   4.238  16.531  0.00  0.00    +0.000 A 
ATOM      3  C   UNL     1       4.335   4.940  17.301  0.00  0.00    +0.000 A 
ATOM      4  C   UNL     1       4.817   6.269  17.254  0.00  0.00    +0.000 A 
ATOM      5  N   UNL     1       5.975   6.386  16.601  0.00  0.00    +0.000 NA
ENDROOT
BRANCH   3   6
ATOM      6  C   UNL     1       2.966   4.486  17.592  0.00  0.00    +0.000 A 
ATOM      7  C   UNL     1       2.603   3.305  16.936  0.00  0.00    +0.000 A 
ATOM      8  C   UNL     1       2.213   2.222  17.705  0.00  0.00    +0.000 A 
ATOM      9  N   UNL     1       2.089   2.222  19.057  0.00  0.00    +0.000 NA
ATOM     10  C   UNL     1       2.108   3.469  19.557  0.00  0.00    +0.000 A 
ATOM     11  C   UNL     1       2.408   4.645  18.874  0.00  0.00    +0.000 A 
ATOM     12  C   UNL     1       1.821   5.691  19.660  0.00  0.00    +0.000 A 
ATOM     13  C   UNL     1       1.403   5.130  20.854  0.00  0.00    +0.000 A 
ATOM     14  N   UNL     1       1.877   3.842  20.851  0.00  0.00    +0.000 N 
ATOM     15  C   UNL     1       2.308   3.117  22.019  0.00  0.00    +0.000 C 
ENDBRANCH   3   6
BRANCH   1  16
ATOM     16  C   UNL     1       7.436   4.876  15.423  0.00  0.00    +0.000 C 
BRANCH  16  19
ATOM     17  C   UNL     1       5.921   3.368  12.285  0.00  0.00    +0.000 C 
ATOM     18  N   UNL     1       6.396   3.591  13.621  0.00  0.00    +0.000 N 
ATOM     19  C   UNL     1       7.157   4.693  13.947  0.00  0.00    +0.000 C 
ATOM     20  O   UNL     1       7.629   5.453  13.099  0.00  0.00    +0.000 OA
ATOM     21  H   UNL     1       6.006   3.034  14.383  0.00  0.00    +0.000 HD
ENDBRANCH  16  19
ENDBRANCH   1  16
TORSDOF 3
ENDMDL
MODEL 7
REMARK VINA RESULT:      -7.0      4.178      5.388
REMARK  Name = 
REMARK  5 active torsions:
REMARK  status: ('A' for Active; 'I' for Inactive)
REMARK    1  A    between atoms: C_1  and  N_2
REMARK    2  A    between atoms: C_3  and  C_5
REMARK    3  A    between atoms: C_5  and  N_6
REMARK    4  A    between atoms: C_8  and  C_9
REMARK    5  A    between atoms: N_17  and  C_18
REMARK                            x       y       z     vdW  Elec       q    Type
REMARK                         _______ _______ _______ _____ _____    ______ ____
ROOT
ATOM      1  N   UNL     1       1.162   9.416  18.845  0.00  0.00    +0.000 N 
ATOM      2  C   UNL     1       1.925   8.819  17.876  0.00  0.00    +0.000 A 
ATOM      3  C   UNL     1       2.538   7.732  18.475  0.00  0.00    +0.000 A 
ATOM      4  C   UNL     1       2.024   7.745  19.792  0.00  0.00    +0.000 A 
ATOM      5  N   UNL     1       1.236   8.794  20.038  0.00  0.00    +0.000 NA
ENDROOT
BRANCH   3   6
ATOM      6  C   UNL     1       3.115   6.594  17.742  0.00  0.00    +0.000 A 
ATOM      7  C   UNL     1       4.465   6.750  17.410  0.00  0.00    +0.000 A 
ATOM      8  C   UNL     1       5.368   5.810  17.876  0.00  0.00    +0.000 A 
ATOM      9  N   UNL     1       5.047   4.698  18.585  0.00  0.00    +0.000 NA
ATOM     10  C   UNL     1       3.728   4.447  18.546  0.00  0.00    +0.000 A 
ATOM     11  C   UNL     1       2.729   5.272  18.036  0.00  0.00    +0.000 A 
ATOM     12  C   UNL     1       1.625   4.398  17.766  0.00  0.00    +0.000 A 
ATOM     13  C   UNL     1       1.927   3.165  18.317  0.00  0.00    +0.000 A 
ATOM     14  N   UNL     1       3.083   3.346  19.034  0.00  0.00    +0.000 N 
ATOM     15  C   UNL     1       3.414   2.657  20.256  0.00  0.00    +0.000 C 
ENDBRANCH   3   6
BRANCH   1  16
ATOM     16  C   UNL     1       0.424  10.664  18.755  0.00  0.00    +0.000 C 
BRANCH  16  19
ATOM     17  C   UNL     1       2.733  13.633  18.236  0.00  0.00    +0.000 C 
ATOM     18  N   UNL     1       1.973  12.427  18.069  0.00  0.00    +0.000 N 
ATOM     19  C   UNL     1       1.318  11.828  19.123  0.00  0.00    +0.000 C 
ATOM     20  O   UNL     1       1.483  12.174  20.295  0.00  0.00    +0.000 OA
ATOM     21  H   UNL     1       1.751  12.111  17.123  0.00  0.00    +0.000 HD
ENDBRANCH  16  19
ENDBRANCH   1  16
TORSDOF 3
ENDMDL
MODEL 8
REMARK VINA RESULT:      -7.0      3.905      5.592
REMARK  Name = 
REMARK  5 active torsions:
REMARK  status: ('A' for Active; 'I' for Inactive)
REMARK    1  A    between atoms: C_1  and  N_2
REMARK    2  A    between atoms: C_3  and  C_5
REMARK    3  A    between atoms: C_5  and  N_6
REMARK    4  A    between atoms: C_8  and  C_9
REMARK    5  A    between atoms: N_17  and  C_18
REMARK                            x       y       z     vdW  Elec       q    Type
REMARK                         _______ _______ _______ _____ _____    ______ ____
ROOT
ATOM      1  N   UNL     1       1.783   8.870  18.632  0.00  0.00    +0.000 N 
ATOM      2  C   UNL     1       2.664   8.290  17.758  0.00  0.00    +0.000 A 
ATOM      3  C   UNL     1       3.109   7.127  18.362  0.00  0.00    +0.000 A 
ATOM      4  C   UNL     1       2.383   7.086  19.575  0.00  0.00    +0.000 A 
ATOM      5  N   UNL     1       1.622   8.165  19.770  0.00  0.00    +0.000 NA
ENDROOT
BRANCH   3   6
ATOM      6  C   UNL     1       3.738   6.005  17.648  0.00  0.00    +0.000 A 
ATOM      7  C   UNL     1       5.073   6.227  17.295  0.00  0.00    +0.000 A 
ATOM      8  C   UNL     1       6.031   5.347  17.770  0.00  0.00    +0.000 A 
ATOM      9  N   UNL     1       5.780   4.236  18.507  0.00  0.00    +0.000 NA
ATOM     10  C   UNL     1       4.476   3.913  18.491  0.00  0.00    +0.000 A 
ATOM     11  C   UNL     1       3.428   4.672  17.977  0.00  0.00    +0.000 A 
ATOM     12  C   UNL     1       2.370   3.733  17.741  0.00  0.00    +0.000 A 
ATOM     13  C   UNL     1       2.745   2.531  18.315  0.00  0.00    +0.000 A 
ATOM     14  N   UNL     1       3.898   2.791  19.013  0.00  0.00    +0.000 N 
ATOM     15  C   UNL     1       4.281   2.149  20.245  0.00  0.00    +0.000 C 
ENDBRANCH   3   6
BRANCH   1  16
ATOM     16  C   UNL     1       1.139  10.166  18.520  0.00  0.00    +0.000 C 
BRANCH  16  19
ATOM     17  C   UNL     1      -0.332  10.978  21.926  0.00  0.00    +0.000 C 
ATOM     18  N   UNL     1       0.554  10.649  20.845  0.00  0.00    +0.000 N 
ATOM     19  C   UNL     1       0.082  10.321  19.592  0.00  0.00    +0.000 C 
ATOM     20  O   UNL     1      -1.111  10.112  19.362  0.00  0.00    +0.000 OA
ATOM     21  H   UNL     1       1.551  10.848  20.946  0.00  0.00    +0.000 HD
ENDBRANCH  16  19
ENDBRANCH   1  16
TORSDOF 3
ENDMDL
MODEL 9
REMARK VINA RESULT:      -7.0      2.561      4.094
REMARK  Name = 
REMARK  5 active torsions:
REMARK  status: ('A' for Active; 'I' for Inactive)
REMARK    1  A    between atoms: C_1  and  N_2
REMARK    2  A    between atoms: C_3  and  C_5
REMARK    3  A    between atoms: C_5  and  N_6
REMARK    4  A    between atoms: C_8  and  C_9
REMARK    5  A    between atoms: N_17  and  C_18
REMARK                            x       y       z     vdW  Elec       q    Type
REMARK                         _______ _______ _______ _____ _____    ______ ____
ROOT
ATOM      1  N   UNL     1       6.058   5.432  16.729  0.00  0.00    +0.000 N 
ATOM      2  C   UNL     1       4.921   4.980  17.346  0.00  0.00    +0.000 A 
ATOM      3  C   UNL     1       4.245   6.102  17.791  0.00  0.00    +0.000 A 
ATOM      4  C   UNL     1       5.045   7.174  17.335  0.00  0.00    +0.000 A 
ATOM      5  N   UNL     1       6.172   6.775  16.742  0.00  0.00    +0.000 NA
ENDROOT
BRANCH   3   6
ATOM      6  C   UNL     1       2.816   6.127  18.143  0.00  0.00    +0.000 A 
ATOM      7  C   UNL     1       2.324   4.912  18.632  0.00  0.00    +0.000 A 
ATOM      8  C   UNL     1       1.760   4.894  19.895  0.00  0.00    +0.000 A 
ATOM      9  N   UNL     1       1.582   5.978  20.691  0.00  0.00    +0.000 NA
ATOM     10  C   UNL     1       1.748   7.126  20.012  0.00  0.00    +0.000 A 
ATOM     11  C   UNL     1       2.231   7.273  18.715  0.00  0.00    +0.000 A 
ATOM     12  C   UNL     1       1.758   8.557  18.285  0.00  0.00    +0.000 A 
ATOM     13  C   UNL     1       1.219   9.193  19.389  0.00  0.00    +0.000 A 
ATOM     14  N   UNL     1       1.515   8.394  20.465  0.00  0.00    +0.000 N 
ATOM     15  C   UNL     1       1.795   8.869  21.796  0.00  0.00    +0.000 C 
ENDBRANCH   3   6
BRANCH   1  16
ATOM     16  C   UNL     1       7.162   4.646  16.207  0.00  0.00    +0.000 C 
BRANCH  16  19
ATOM     17  C   UNL     1       6.052   3.572  12.738  0.00  0.00    +0.000 C 
ATOM     18  N   UNL     1       6.319   3.632  14.147  0.00  0.00    +0.000 N 
ATOM     19  C   UNL     1       7.114   4.616  14.695  0.00  0.00    +0.000 C 
ATOM     20  O   UNL     1       7.787   5.389  14.009  0.00  0.00    +0.000 OA
ATOM     21  H   UNL     1       5.759   3.058  14.780  0.00  0.00    +0.000 HD
ENDBRANCH  16  19
ENDBRANCH   1  16
TORSDOF 3
ENDMDL
