MODEL 1
REMARK VINA RESULT:      -8.1      0.000      0.000
REMARK  Name = 
REMARK  6 active torsions:
REMARK  status: ('A' for Active; 'I' for Inactive)
REMARK    1  A    between atoms: C_2  and  C_3
REMARK    2  A    between atoms: C_3  and  N_4
REMARK    3  A    between atoms: C_7  and  C_8
REMARK    4  A    between atoms: N_16  and  C_17
REMARK    5  A    between atoms: C_21  and  S_22
REMARK    6  A    between atoms: S_22  and  N_25
REMARK                            x       y       z     vdW  Elec       q    Type
REMARK                         _______ _______ _______ _____ _____    ______ ____
ROOT
ATOM      1  O   UNL     1       1.099   4.838  19.593  0.00  0.00    +0.000 OA
ATOM      2  C   UNL     1       2.258   5.104  19.901  0.00  0.00    +0.000 C 
ATOM      3  N   UNL     1       2.811   6.381  19.895  0.00  0.00    +0.000 N 
ATOM      4  H   UNL     1       3.703   6.505  20.372  0.00  0.00    +0.000 HD
ENDROOT
BRANCH   3   5
ATOM      5  C   UNL     1       2.210   7.555  19.370  0.00  0.00    +0.000 A 
ATOM      6  C   UNL     1       2.330   7.940  18.027  0.00  0.00    +0.000 A 
ATOM      7  C   UNL     1       1.771   9.136  17.560  0.00  0.00    +0.000 A 
ATOM      8  C   UNL     1       1.115   9.991  18.436  0.00  0.00    +0.000 A 
ATOM      9  C   UNL     1       1.017   9.634  19.780  0.00  0.00    +0.000 A 
ATOM     10  C   UNL     1       1.525   8.408  20.248  0.00  0.00    +0.000 A 
BRANCH   9  11
ATOM     11  S   UNL     1       0.291  10.808  20.909  0.00  0.00    +0.000 S 
ATOM     12  O   UNL     1      -0.706  10.096  21.687  0.00  0.00    +0.000 OA
ATOM     13  O   UNL     1       1.361  11.539  21.544  0.00  0.00    +0.000 OA
BRANCH  11  14
ATOM     14  N   UNL     1      -0.528  11.898  19.865  0.00  0.00    +0.000 NA
ATOM     15  C   UNL     1      -0.483  13.336  20.212  0.00  0.00    +0.000 C 
ATOM     16  C   UNL     1      -1.794  13.607  20.922  0.00  0.00    +0.000 C 
ATOM     17  C   UNL     1      -2.785  12.721  20.193  0.00  0.00    +0.000 C 
ATOM     18  C   UNL     1      -1.964  11.560  19.632  0.00  0.00    +0.000 C 
ENDBRANCH  11  14
ENDBRANCH   9  11
ENDBRANCH   3   5
BRANCH   2  19
ATOM     19  C   UNL     1       3.212   3.970  20.200  0.00  0.00    +0.000 C 
BRANCH  19  20
ATOM     20  N   UNL     1       4.391   3.948  19.374  0.00  0.00    +0.000 N 
ATOM     21  N   UNL     1       5.593   4.321  19.849  0.00  0.00    +0.000 NA
ATOM     22  N   UNL     1       6.358   4.445  18.771  0.00  0.00    +0.000 NA
ATOM     23  C   UNL     1       5.557   4.199  17.678  0.00  0.00    +0.000 A 
ATOM     24  N   UNL     1       4.293   3.906  18.030  0.00  0.00    +0.000 NA
BRANCH  23  25
ATOM     25  C   UNL     1       6.021   4.307  16.298  0.00  0.00    +0.000 A 
ATOM     26  C   UNL     1       7.213   4.984  15.993  0.00  0.00    +0.000 A 
ATOM     27  C   UNL     1       7.634   5.115  14.665  0.00  0.00    +0.000 A 
ATOM     28  C   UNL     1       6.865   4.572  13.641  0.00  0.00    +0.000 A 
ATOM     29  F   UNL     1       7.262   4.714  12.370  0.00  0.00    +0.000 F 
ATOM     30  C   UNL     1       5.690   3.888  13.921  0.00  0.00    +0.000 A 
ATOM     31  C   UNL     1       5.270   3.751  15.246  0.00  0.00    +0.000 A 
ENDBRANCH  23  25
ENDBRANCH  19  20
ENDBRANCH   2  19
TORSDOF 6
ENDMDL
MODEL 2
REMARK VINA RESULT:      -7.9      5.242     11.080
REMARK  Name = 
REMARK  6 active torsions:
REMARK  status: ('A' for Active; 'I' for Inactive)
REMARK    1  A    between atoms: C_2  and  C_3
REMARK    2  A    between atoms: C_3  and  N_4
REMARK    3  A    between atoms: C_7  and  C_8
REMARK    4  A    between atoms: N_16  and  C_17
REMARK    5  A    between atoms: C_21  and  S_22
REMARK    6  A    between atoms: S_22  and  N_25
REMARK                            x       y       z     vdW  Elec       q    Type
REMARK                         _______ _______ _______ _____ _____    ______ ____
ROOT
ATOM      1  O   UNL     1       1.989   9.401  22.702  0.00  0.00    +0.000 OA
ATOM      2  C   UNL     1       0.822   9.273  22.339  0.00  0.00    +0.000 C 
ATOM      3  N   UNL     1       0.422   8.808  21.090  0.00  0.00    +0.000 N 
ATOM      4  H   UNL     1      -0.556   8.540  20.983  0.00  0.00    +0.000 HD
ENDROOT
BRANCH   3   5
ATOM      5  C   UNL     1       1.264   8.576  19.969  0.00  0.00    +0.000 A 
ATOM      6  C   UNL     1       1.315   9.435  18.862  0.00  0.00    +0.000 A 
ATOM      7  C   UNL     1       2.114   9.143  17.750  0.00  0.00    +0.000 A 
ATOM      8  C   UNL     1       2.847   7.964  17.707  0.00  0.00    +0.000 A 
ATOM      9  C   UNL     1       2.780   7.087  18.788  0.00  0.00    +0.000 A 
ATOM     10  C   UNL     1       2.025   7.399  19.934  0.00  0.00    +0.000 A 
BRANCH   9  11
ATOM     11  S   UNL     1       3.621   5.521  18.652  0.00  0.00    +0.000 S 
ATOM     12  O   UNL     1       3.828   5.265  17.239  0.00  0.00    +0.000 OA
ATOM     13  O   UNL     1       4.721   5.521  19.587  0.00  0.00    +0.000 OA
BRANCH  11  14
ATOM     14  N   UNL     1       2.456   4.400  19.231  0.00  0.00    +0.000 NA
ATOM     15  C   UNL     1       2.946   3.271  20.052  0.00  0.00    +0.000 C 
ATOM     16  C   UNL     1       3.050   2.106  19.089  0.00  0.00    +0.000 C 
ATOM     17  C   UNL     1       1.872   2.307  18.156  0.00  0.00    +0.000 C 
ATOM     18  C   UNL     1       1.592   3.810  18.165  0.00  0.00    +0.000 C 
ENDBRANCH  11  14
ENDBRANCH   9  11
ENDBRANCH   3   5
BRANCH   2  19
ATOM     19  C   UNL     1      -0.283   9.757  23.251  0.00  0.00    +0.000 C 
BRANCH  19  20
ATOM     20  N   UNL     1      -0.890  10.998  22.845  0.00  0.00    +0.000 N 
ATOM     21  N   UNL     1      -0.191  11.945  22.193  0.00  0.00    +0.000 NA
ATOM     22  N   UNL     1      -0.963  13.024  22.237  0.00  0.00    +0.000 NA
ATOM     23  C   UNL     1      -2.078  12.693  22.975  0.00  0.00    +0.000 A 
ATOM     24  N   UNL     1      -2.045  11.417  23.399  0.00  0.00    +0.000 NA
BRANCH  23  25
ATOM     25  C   UNL     1      -3.136  13.641  23.307  0.00  0.00    +0.000 A 
ATOM     26  C   UNL     1      -2.826  14.925  23.784  0.00  0.00    +0.000 A 
ATOM     27  C   UNL     1      -3.845  15.817  24.134  0.00  0.00    +0.000 A 
ATOM     28  C   UNL     1      -5.174  15.428  24.011  0.00  0.00    +0.000 A 
ATOM     29  F   UNL     1      -6.147  16.278  24.363  0.00  0.00    +0.000 F 
ATOM     30  C   UNL     1      -5.505  14.168  23.530  0.00  0.00    +0.000 A 
ATOM     31  C   UNL     1      -4.489  13.277  23.175  0.00  0.00    +0.000 A 
ENDBRANCH  23  25
ENDBRANCH  19  20
ENDBRANCH   2  19
TORSDOF 6
ENDMDL
MODEL 3
REMARK VINA RESULT:      -7.9      4.009      9.063
REMARK  Name = 
REMARK  6 active torsions:
REMARK  status: ('A' for Active; 'I' for Inactive)
REMARK    1  A    between atoms: C_2  and  C_3
REMARK    2  A    between atoms: C_3  and  N_4
REMARK    3  A    between atoms: C_7  and  C_8
REMARK    4  A    between atoms: N_16  and  C_17
REMARK    5  A    between atoms: C_21  and  S_22
REMARK    6  A    between atoms: S_22  and  N_25
REMARK                            x       y       z     vdW  Elec       q    Type
REMARK                         _______ _______ _______ _____ _____    ______ ____
ROOT
ATOM      1  O   UNL     1       1.160   6.391  20.980  0.00  0.00    +0.000 OA
ATOM      2  C   UNL     1       1.726   7.388  20.540  0.00  0.00    +0.000 C 
ATOM      3  N   UNL     1       2.574   7.402  19.437  0.00  0.00    +0.000 N 
ATOM      4  H   UNL     1       2.808   8.311  19.039  0.00  0.00    +0.000 HD
ENDROOT
BRANCH   3   5
ATOM      5  C   UNL     1       3.075   6.266  18.746  0.00  0.00    +0.000 A 
ATOM      6  C   UNL     1       2.899   4.954  19.207  0.00  0.00    +0.000 A 
ATOM      7  C   UNL     1       3.457   3.864  18.529  0.00  0.00    +0.000 A 
ATOM      8  C   UNL     1       4.237   4.068  17.398  0.00  0.00    +0.000 A 
ATOM      9  C   UNL     1       4.446   5.371  16.949  0.00  0.00    +0.000 A 
ATOM     10  C   UNL     1       3.841   6.469  17.590  0.00  0.00    +0.000 A 
BRANCH   9  11
ATOM     11  S   UNL     1       5.558   5.618  15.578  0.00  0.00    +0.000 S 
ATOM     12  O   UNL     1       5.505   4.421  14.760  0.00  0.00    +0.000 OA
ATOM     13  O   UNL     1       5.299   6.924  15.020  0.00  0.00    +0.000 OA
BRANCH  11  14
ATOM     14  N   UNL     1       7.100   5.679  16.332  0.00  0.00    +0.000 NA
ATOM     15  C   UNL     1       7.421   4.617  17.312  0.00  0.00    +0.000 C 
ATOM     16  C   UNL     1       7.141   5.238  18.665  0.00  0.00    +0.000 C 
ATOM     17  C   UNL     1       7.564   6.683  18.490  0.00  0.00    +0.000 C 
ATOM     18  C   UNL     1       7.404   6.981  16.999  0.00  0.00    +0.000 C 
ENDBRANCH  11  14
ENDBRANCH   9  11
ENDBRANCH   3   5
BRANCH   2  19
ATOM     19  C   UNL     1       1.605   8.690  21.300  0.00  0.00    +0.000 C 
BRANCH  19  20
ATOM     20  N   UNL     1       0.699   9.642  20.712  0.00  0.00    +0.000 N 
ATOM     21  N   UNL     1       0.105  10.599  21.448  0.00  0.00    +0.000 NA
ATOM     22  N   UNL     1      -0.846  11.088  20.661  0.00  0.00    +0.000 NA
ATOM     23  C   UNL     1      -0.823  10.354  19.496  0.00  0.00    +0.000 A 
ATOM     24  N   UNL     1       0.133   9.408  19.511  0.00  0.00    +0.000 NA
BRANCH  23  25
ATOM     25  C   UNL     1      -1.770  10.546  18.403  0.00  0.00    +0.000 A 
ATOM     26  C   UNL     1      -2.862  11.418  18.545  0.00  0.00    +0.000 A 
ATOM     27  C   UNL     1      -3.787  11.571  17.506  0.00  0.00    +0.000 A 
ATOM     28  C   UNL     1      -3.625  10.853  16.327  0.00  0.00    +0.000 A 
ATOM     29  F   UNL     1      -4.521  10.988  15.341  0.00  0.00    +0.000 F 
ATOM     30  C   UNL     1      -2.547   9.994  16.160  0.00  0.00    +0.000 A 
ATOM     31  C   UNL     1      -1.618   9.844  17.194  0.00  0.00    +0.000 A 
ENDBRANCH  23  25
ENDBRANCH  19  20
ENDBRANCH   2  19
TORSDOF 6
ENDMDL
MODEL 4
REMARK VINA RESULT:      -7.7      7.227      8.351
REMARK  Name = 
REMARK  6 active torsions:
REMARK  status: ('A' for Active; 'I' for Inactive)
REMARK    1  A    between atoms: C_2  and  C_3
REMARK    2  A    between atoms: C_3  and  N_4
REMARK    3  A    between atoms: C_7  and  C_8
REMARK    4  A    between atoms: N_16  and  C_17
REMARK    5  A    between atoms: C_21  and  S_22
REMARK    6  A    between atoms: S_22  and  N_25
REMARK                            x       y       z     vdW  Elec       q    Type
REMARK                         _______ _______ _______ _____ _____    ______ ____
ROOT
ATOM      1  O   UNL     1       8.650   7.818  18.945  0.00  0.00    +0.000 OA
ATOM      2  C   UNL     1       8.209   8.472  18.003  0.00  0.00    +0.000 C 
ATOM      3  N   UNL     1       8.530   9.798  17.734  0.00  0.00    +0.000 N 
ATOM      4  H   UNL     1       8.277  10.162  16.816  0.00  0.00    +0.000 HD
ENDROOT
BRANCH   3   5
ATOM      5  C   UNL     1       9.263  10.674  18.578  0.00  0.00    +0.000 A 
ATOM      6  C   UNL     1       9.270  10.561  19.975  0.00  0.00    +0.000 A 
ATOM      7  C   UNL     1       9.958  11.480  20.777  0.00  0.00    +0.000 A 
ATOM      8  C   UNL     1      10.621  12.554  20.198  0.00  0.00    +0.000 A 
ATOM      9  C   UNL     1      10.595  12.695  18.812  0.00  0.00    +0.000 A 
ATOM     10  C   UNL     1       9.955  11.745  17.994  0.00  0.00    +0.000 A 
BRANCH   9  11
ATOM     11  S   UNL     1      11.338  14.152  18.102  0.00  0.00    +0.000 S 
ATOM     12  O   UNL     1      12.333  14.629  19.044  0.00  0.00    +0.000 OA
ATOM     13  O   UNL     1      11.678  13.859  16.731  0.00  0.00    +0.000 OA
BRANCH  11  14
ATOM     14  N   UNL     1      10.043  15.279  18.081  0.00  0.00    +0.000 NA
ATOM     15  C   UNL     1      10.059  16.355  19.097  0.00  0.00    +0.000 C 
ATOM     16  C   UNL     1       9.133  15.869  20.193  0.00  0.00    +0.000 C 
ATOM     17  C   UNL     1       8.040  15.137  19.441  0.00  0.00    +0.000 C 
ATOM     18  C   UNL     1       8.687  14.655  18.142  0.00  0.00    +0.000 C 
ENDBRANCH  11  14
ENDBRANCH   9  11
ENDBRANCH   3   5
BRANCH   2  19
ATOM     19  C   UNL     1       7.146   7.854  17.122  0.00  0.00    +0.000 C 
BRANCH  19  20
ATOM     20  N   UNL     1       6.767   6.516  17.493  0.00  0.00    +0.000 N 
ATOM     21  N   UNL     1       7.480   5.445  17.098  0.00  0.00    +0.000 NA
ATOM     22  N   UNL     1       6.704   4.404  17.371  0.00  0.00    +0.000 NA
ATOM     23  C   UNL     1       5.519   4.902  17.866  0.00  0.00    +0.000 A 
ATOM     24  N   UNL     1       5.521   6.246  17.929  0.00  0.00    +0.000 NA
BRANCH  23  25
ATOM     25  C   UNL     1       4.377   4.066  18.220  0.00  0.00    +0.000 A 
ATOM     26  C   UNL     1       4.460   3.150  19.282  0.00  0.00    +0.000 A 
ATOM     27  C   UNL     1       3.374   2.326  19.594  0.00  0.00    +0.000 A 
ATOM     28  C   UNL     1       2.205   2.412  18.846  0.00  0.00    +0.000 A 
ATOM     29  F   UNL     1       1.173   1.609  19.135  0.00  0.00    +0.000 F 
ATOM     30  C   UNL     1       2.096   3.318  17.800  0.00  0.00    +0.000 A 
ATOM     31  C   UNL     1       3.178   4.147  17.489  0.00  0.00    +0.000 A 
ENDBRANCH  23  25
ENDBRANCH  19  20
ENDBRANCH   2  19
TORSDOF 6
ENDMDL
MODEL 5
REMARK VINA RESULT:      -7.6      4.427      9.944
REMARK  Name = 
REMARK  6 active torsions:
REMARK  status: ('A' for Active; 'I' for Inactive)
REMARK    1  A    between atoms: C_2  and  C_3
REMARK    2  A    between atoms: C_3  and  N_4
REMARK    3  A    between atoms: C_7  and  C_8
REMARK    4  A    between atoms: N_16  and  C_17
REMARK    5  A    between atoms: C_21  and  S_22
REMARK    6  A    between atoms: S_22  and  N_25
REMARK                            x       y       z     vdW  Elec       q    Type
REMARK                         _______ _______ _______ _____ _____    ______ ____
ROOT
ATOM      1  O   UNL     1       1.445   8.491  17.548  0.00  0.00    +0.000 OA
ATOM      2  C   UNL     1       1.727   8.428  18.742  0.00  0.00    +0.000 C 
ATOM      3  N   UNL     1       2.543   7.459  19.318  0.00  0.00    +0.000 N 
ATOM      4  H   UNL     1       2.877   7.633  20.265  0.00  0.00    +0.000 HD
ENDROOT
BRANCH   3   5
ATOM      5  C   UNL     1       3.037   6.289  18.682  0.00  0.00    +0.000 A 
ATOM      6  C   UNL     1       2.809   4.997  19.176  0.00  0.00    +0.000 A 
ATOM      7  C   UNL     1       3.362   3.871  18.554  0.00  0.00    +0.000 A 
ATOM      8  C   UNL     1       4.187   4.019  17.447  0.00  0.00    +0.000 A 
ATOM      9  C   UNL     1       4.448   5.301  16.966  0.00  0.00    +0.000 A 
ATOM     10  C   UNL     1       3.850   6.434  17.549  0.00  0.00    +0.000 A 
BRANCH   9  11
ATOM     11  S   UNL     1       5.616   5.475  15.630  0.00  0.00    +0.000 S 
ATOM     12  O   UNL     1       5.587   4.240  14.870  0.00  0.00    +0.000 OA
ATOM     13  O   UNL     1       5.388   6.753  15.000  0.00  0.00    +0.000 OA
BRANCH  11  14
ATOM     14  N   UNL     1       7.126   5.565  16.442  0.00  0.00    +0.000 NA
ATOM     15  C   UNL     1       7.431   4.507  17.432  0.00  0.00    +0.000 C 
ATOM     16  C   UNL     1       7.089   5.120  18.774  0.00  0.00    +0.000 C 
ATOM     17  C   UNL     1       7.489   6.573  18.617  0.00  0.00    +0.000 C 
ATOM     18  C   UNL     1       7.380   6.871  17.122  0.00  0.00    +0.000 C 
ENDBRANCH  11  14
ENDBRANCH   9  11
ENDBRANCH   3   5
BRANCH   2  19
ATOM     19  C   UNL     1       1.062   9.390  19.700  0.00  0.00    +0.000 C 
BRANCH  19  20
ATOM     20  N   UNL     1       0.181  10.342  19.074  0.00  0.00    +0.000 N 
ATOM     21  N   UNL     1       0.475  11.654  19.034  0.00  0.00    +0.000 NA
ATOM     22  N   UNL     1      -0.654  12.241  18.654  0.00  0.00    +0.000 NA
ATOM     23  C   UNL     1      -1.605  11.251  18.542  0.00  0.00    +0.000 A 
ATOM     24  N   UNL     1      -1.108  10.035  18.830  0.00  0.00    +0.000 NA
BRANCH  23  25
ATOM     25  C   UNL     1      -3.002  11.509  18.209  0.00  0.00    +0.000 A 
ATOM     26  C   UNL     1      -3.890  12.006  19.176  0.00  0.00    +0.000 A 
ATOM     27  C   UNL     1      -5.237  12.219  18.861  0.00  0.00    +0.000 A 
ATOM     28  C   UNL     1      -5.698  11.933  17.581  0.00  0.00    +0.000 A 
ATOM     29  F   UNL     1      -6.991  12.120  17.287  0.00  0.00    +0.000 F 
ATOM     30  C   UNL     1      -4.836  11.452  16.605  0.00  0.00    +0.000 A 
ATOM     31  C   UNL     1      -3.489  11.244  16.916  0.00  0.00    +0.000 A 
ENDBRANCH  23  25
ENDBRANCH  19  20
ENDBRANCH   2  19
TORSDOF 6
ENDMDL
MODEL 6
REMARK VINA RESULT:      -7.5      3.849      9.446
REMARK  Name = 
REMARK  6 active torsions:
REMARK  status: ('A' for Active; 'I' for Inactive)
REMARK    1  A    between atoms: C_2  and  C_3
REMARK    2  A    between atoms: C_3  and  N_4
REMARK    3  A    between atoms: C_7  and  C_8
REMARK    4  A    between atoms: N_16  and  C_17
REMARK    5  A    between atoms: C_21  and  S_22
REMARK    6  A    between atoms: S_22  and  N_25
REMARK                            x       y       z     vdW  Elec       q    Type
REMARK                         _______ _______ _______ _____ _____    ______ ____
ROOT
ATOM      1  O   UNL     1       1.692   8.430  19.574  0.00  0.00    +0.000 OA
ATOM      2  C   UNL     1       1.541   8.108  20.749  0.00  0.00    +0.000 C 
ATOM      3  N   UNL     1       1.665   6.813  21.243  0.00  0.00    +0.000 N 
ATOM      4  H   UNL     1       1.732   6.703  22.255  0.00  0.00    +0.000 HD
ENDROOT
BRANCH   3   5
ATOM      5  C   UNL     1       1.802   5.628  20.472  0.00  0.00    +0.000 A 
ATOM      6  C   UNL     1       0.857   4.592  20.487  0.00  0.00    +0.000 A 
ATOM      7  C   UNL     1       1.056   3.414  19.758  0.00  0.00    +0.000 A 
ATOM      8  C   UNL     1       2.225   3.231  19.031  0.00  0.00    +0.000 A 
ATOM      9  C   UNL     1       3.187   4.240  19.034  0.00  0.00    +0.000 A 
ATOM     10  C   UNL     1       2.970   5.452  19.716  0.00  0.00    +0.000 A 
BRANCH   9  11
ATOM     11  S   UNL     1       4.734   3.927  18.205  0.00  0.00    +0.000 S 
ATOM     12  O   UNL     1       5.745   3.759  19.231  0.00  0.00    +0.000 OA
ATOM     13  O   UNL     1       4.507   2.918  17.198  0.00  0.00    +0.000 OA
BRANCH  11  14
ATOM     14  N   UNL     1       5.045   5.406  17.389  0.00  0.00    +0.000 NA
ATOM     15  C   UNL     1       5.289   5.341  15.931  0.00  0.00    +0.000 C 
ATOM     16  C   UNL     1       6.797   5.369  15.787  0.00  0.00    +0.000 C 
ATOM     17  C   UNL     1       7.245   6.298  16.897  0.00  0.00    +0.000 C 
ATOM     18  C   UNL     1       6.164   6.204  17.974  0.00  0.00    +0.000 C 
ENDBRANCH  11  14
ENDBRANCH   9  11
ENDBRANCH   3   5
BRANCH   2  19
ATOM     19  C   UNL     1       1.072   9.152  21.737  0.00  0.00    +0.000 C 
BRANCH  19  20
ATOM     20  N   UNL     1       0.470  10.314  21.136  0.00  0.00    +0.000 N 
ATOM     21  N   UNL     1      -0.630  10.220  20.366  0.00  0.00    +0.000 NA
ATOM     22  N   UNL     1      -0.726  11.403  19.772  0.00  0.00    +0.000 NA
ATOM     23  C   UNL     1       0.366  12.143  20.166  0.00  0.00    +0.000 A 
ATOM     24  N   UNL     1       1.160  11.465  21.013  0.00  0.00    +0.000 NA
BRANCH  23  25
ATOM     25  C   UNL     1       0.654  13.484  19.667  0.00  0.00    +0.000 A 
ATOM     26  C   UNL     1      -0.388  14.355  19.309  0.00  0.00    +0.000 A 
ATOM     27  C   UNL     1      -0.106  15.627  18.799  0.00  0.00    +0.000 A 
ATOM     28  C   UNL     1       1.216  16.029  18.643  0.00  0.00    +0.000 A 
ATOM     29  F   UNL     1       1.484  17.240  18.137  0.00  0.00    +0.000 F 
ATOM     30  C   UNL     1       2.262  15.190  19.001  0.00  0.00    +0.000 A 
ATOM     31  C   UNL     1       1.982  13.921  19.516  0.00  0.00    +0.000 A 
ENDBRANCH  23  25
ENDBRANCH  19  20
ENDBRANCH   2  19
TORSDOF 6
ENDMDL
MODEL 7
REMARK VINA RESULT:      -7.5      4.388      9.869
REMARK  Name = 
REMARK  6 active torsions:
REMARK  status: ('A' for Active; 'I' for Inactive)
REMARK    1  A    between atoms: C_2  and  C_3
REMARK    2  A    between atoms: C_3  and  N_4
REMARK    3  A    between atoms: C_7  and  C_8
REMARK    4  A    between atoms: N_16  and  C_17
REMARK    5  A    between atoms: C_21  and  S_22
REMARK    6  A    between atoms: S_22  and  N_25
REMARK                            x       y       z     vdW  Elec       q    Type
REMARK                         _______ _______ _______ _____ _____    ______ ____
ROOT
ATOM      1  O   UNL     1       1.664   8.213  20.427  0.00  0.00    +0.000 OA
ATOM      2  C   UNL     1       1.478   8.840  19.387  0.00  0.00    +0.000 C 
ATOM      3  N   UNL     1       1.963   8.471  18.136  0.00  0.00    +0.000 N 
ATOM      4  H   UNL     1       1.566   8.943  17.324  0.00  0.00    +0.000 HD
ENDROOT
BRANCH   3   5
ATOM      5  C   UNL     1       2.891   7.429  17.868  0.00  0.00    +0.000 A 
ATOM      6  C   UNL     1       4.177   7.664  17.362  0.00  0.00    +0.000 A 
ATOM      7  C   UNL     1       5.043   6.608  17.054  0.00  0.00    +0.000 A 
ATOM      8  C   UNL     1       4.623   5.293  17.209  0.00  0.00    +0.000 A 
ATOM      9  C   UNL     1       3.335   5.046  17.681  0.00  0.00    +0.000 A 
ATOM     10  C   UNL     1       2.479   6.101  18.048  0.00  0.00    +0.000 A 
BRANCH   9  11
ATOM     11  S   UNL     1       2.773   3.355  17.744  0.00  0.00    +0.000 S 
ATOM     12  O   UNL     1       1.380   3.350  17.340  0.00  0.00    +0.000 OA
ATOM     13  O   UNL     1       3.754   2.533  17.077  0.00  0.00    +0.000 OA
BRANCH  11  14
ATOM     14  N   UNL     1       2.844   2.982  19.419  0.00  0.00    +0.000 NA
ATOM     15  C   UNL     1       1.606   2.485  20.058  0.00  0.00    +0.000 C 
ATOM     16  C   UNL     1       0.999   3.701  20.729  0.00  0.00    +0.000 C 
ATOM     17  C   UNL     1       2.204   4.481  21.214  0.00  0.00    +0.000 C 
ATOM     18  C   UNL     1       3.347   4.099  20.274  0.00  0.00    +0.000 C 
ENDBRANCH  11  14
ENDBRANCH   9  11
ENDBRANCH   3   5
BRANCH   2  19
ATOM     19  C   UNL     1       0.774  10.176  19.457  0.00  0.00    +0.000 C 
BRANCH  19  20
ATOM     20  N   UNL     1      -0.520  10.202  18.826  0.00  0.00    +0.000 N 
ATOM     21  N   UNL     1      -0.692   9.803  17.552  0.00  0.00    +0.000 NA
ATOM     22  N   UNL     1      -1.909  10.222  17.229  0.00  0.00    +0.000 NA
ATOM     23  C   UNL     1      -2.397  10.918  18.313  0.00  0.00    +0.000 A 
ATOM     24  N   UNL     1      -1.523  10.945  19.334  0.00  0.00    +0.000 NA
BRANCH  23  25
ATOM     25  C   UNL     1      -3.689  11.596  18.320  0.00  0.00    +0.000 A 
ATOM     26  C   UNL     1      -4.152  12.246  19.475  0.00  0.00    +0.000 A 
ATOM     27  C   UNL     1      -5.407  12.866  19.487  0.00  0.00    +0.000 A 
ATOM     28  C   UNL     1      -6.201  12.834  18.346  0.00  0.00    +0.000 A 
ATOM     29  F   UNL     1      -7.409  13.412  18.366  0.00  0.00    +0.000 F 
ATOM     30  C   UNL     1      -5.759  12.208  17.189  0.00  0.00    +0.000 A 
ATOM     31  C   UNL     1      -4.504  11.594  17.173  0.00  0.00    +0.000 A 
ENDBRANCH  23  25
ENDBRANCH  19  20
ENDBRANCH   2  19
TORSDOF 6
ENDMDL
MODEL 8
REMARK VINA RESULT:      -7.4      3.747      6.067
REMARK  Name = 
REMARK  6 active torsions:
REMARK  status: ('A' for Active; 'I' for Inactive)
REMARK    1  A    between atoms: C_2  and  C_3
REMARK    2  A    between atoms: C_3  and  N_4
REMARK    3  A    between atoms: C_7  and  C_8
REMARK    4  A    between atoms: N_16  and  C_17
REMARK    5  A    between atoms: C_21  and  S_22
REMARK    6  A    between atoms: S_22  and  N_25
REMARK                            x       y       z     vdW  Elec       q    Type
REMARK                         _______ _______ _______ _____ _____    ______ ____
ROOT
ATOM      1  O   UNL     1      -0.832  12.609  19.291  0.00  0.00    +0.000 OA
ATOM      2  C   UNL     1      -0.561  11.411  19.320  0.00  0.00    +0.000 C 
ATOM      3  N   UNL     1      -1.187  10.433  18.554  0.00  0.00    +0.000 N 
ATOM      4  H   UNL     1      -0.736   9.520  18.503  0.00  0.00    +0.000 HD
ENDROOT
BRANCH   3   5
ATOM      5  C   UNL     1      -2.348  10.606  17.754  0.00  0.00    +0.000 A 
ATOM      6  C   UNL     1      -2.298  10.779  16.363  0.00  0.00    +0.000 A 
ATOM      7  C   UNL     1      -3.460  11.006  15.616  0.00  0.00    +0.000 A 
ATOM      8  C   UNL     1      -4.691  11.104  16.251  0.00  0.00    +0.000 A 
ATOM      9  C   UNL     1      -4.750  10.965  17.636  0.00  0.00    +0.000 A 
ATOM     10  C   UNL     1      -3.595  10.680  18.389  0.00  0.00    +0.000 A 
BRANCH   9  11
ATOM     11  S   UNL     1      -6.319  11.229  18.441  0.00  0.00    +0.000 S 
ATOM     12  O   UNL     1      -7.123  12.051  17.557  0.00  0.00    +0.000 OA
ATOM     13  O   UNL     1      -6.794   9.954  18.923  0.00  0.00    +0.000 OA
BRANCH  11  14
ATOM     14  N   UNL     1      -5.900  12.173  19.812  0.00  0.00    +0.000 NA
ATOM     15  C   UNL     1      -6.738  12.026  21.023  0.00  0.00    +0.000 C 
ATOM     16  C   UNL     1      -7.704  13.192  20.972  0.00  0.00    +0.000 C 
ATOM     17  C   UNL     1      -6.876  14.318  20.386  0.00  0.00    +0.000 C 
ATOM     18  C   UNL     1      -5.800  13.639  19.539  0.00  0.00    +0.000 C 
ENDBRANCH  11  14
ENDBRANCH   9  11
ENDBRANCH   3   5
BRANCH   2  19
ATOM     19  C   UNL     1       0.441  10.914  20.338  0.00  0.00    +0.000 C 
BRANCH  19  20
ATOM     20  N   UNL     1       0.827   9.537  20.173  0.00  0.00    +0.000 N 
ATOM     21  N   UNL     1       0.896   8.693  21.219  0.00  0.00    +0.000 NA
ATOM     22  N   UNL     1       1.538   7.630  20.752  0.00  0.00    +0.000 NA
ATOM     23  C   UNL     1       1.886   7.908  19.449  0.00  0.00    +0.000 A 
ATOM     24  N   UNL     1       1.470   9.127  19.062  0.00  0.00    +0.000 NA
BRANCH  23  25
ATOM     25  C   UNL     1       2.670   7.005  18.613  0.00  0.00    +0.000 A 
ATOM     26  C   UNL     1       2.527   5.613  18.730  0.00  0.00    +0.000 A 
ATOM     27  C   UNL     1       3.306   4.751  17.951  0.00  0.00    +0.000 A 
ATOM     28  C   UNL     1       4.231   5.278  17.056  0.00  0.00    +0.000 A 
ATOM     29  F   UNL     1       4.989   4.450  16.325  0.00  0.00    +0.000 F 
ATOM     30  C   UNL     1       4.382   6.650  16.915  0.00  0.00    +0.000 A 
ATOM     31  C   UNL     1       3.600   7.513  17.688  0.00  0.00    +0.000 A 
ENDBRANCH  23  25
ENDBRANCH  19  20
ENDBRANCH   2  19
TORSDOF 6
ENDMDL
MODEL 9
REMARK VINA RESULT:      -7.4      4.222     10.376
REMARK  Name = 
REMARK  6 active torsions:
REMARK  status: ('A' for Active; 'I' for Inactive)
REMARK    1  A    between atoms: C_2  and  C_3
REMARK    2  A    between atoms: C_3  and  N_4
REMARK    3  A    between atoms: C_7  and  C_8
REMARK    4  A    between atoms: N_16  and  C_17
REMARK    5  A    between atoms: C_21  and  S_22
REMARK    6  A    between atoms: S_22  and  N_25
REMARK                            x       y       z     vdW  Elec       q    Type
REMARK                         _______ _______ _______ _____ _____    ______ ____
ROOT
ATOM      1  O   UNL     1       1.268  11.801  21.226  0.00  0.00    +0.000 OA
ATOM      2  C   UNL     1       0.428  11.008  21.644  0.00  0.00    +0.000 C 
ATOM      3  N   UNL     1       0.331   9.674  21.262  0.00  0.00    +0.000 N 
ATOM      4  H   UNL     1      -0.258   9.067  21.830  0.00  0.00    +0.000 HD
ENDROOT
BRANCH   3   5
ATOM      5  C   UNL     1       1.049   9.047  20.209  0.00  0.00    +0.000 A 
ATOM      6  C   UNL     1       1.109   9.568  18.908  0.00  0.00    +0.000 A 
ATOM      7  C   UNL     1       1.779   8.890  17.883  0.00  0.00    +0.000 A 
ATOM      8  C   UNL     1       2.369   7.657  18.129  0.00  0.00    +0.000 A 
ATOM      9  C   UNL     1       2.289   7.114  19.409  0.00  0.00    +0.000 A 
ATOM     10  C   UNL     1       1.668   7.814  20.461  0.00  0.00    +0.000 A 
BRANCH   9  11
ATOM     11  S   UNL     1       2.935   5.472  19.667  0.00  0.00    +0.000 S 
ATOM     12  O   UNL     1       4.366   5.533  19.437  0.00  0.00    +0.000 OA
ATOM     13  O   UNL     1       2.391   4.966  20.904  0.00  0.00    +0.000 OA
BRANCH  11  14
ATOM     14  N   UNL     1       2.229   4.570  18.388  0.00  0.00    +0.000 NA
ATOM     15  C   UNL     1       1.215   3.555  18.750  0.00  0.00    +0.000 C 
ATOM     16  C   UNL     1       1.968   2.241  18.770  0.00  0.00    +0.000 C 
ATOM     17  C   UNL     1       2.969   2.385  17.641  0.00  0.00    +0.000 C 
ATOM     18  C   UNL     1       3.219   3.887  17.501  0.00  0.00    +0.000 C 
ENDBRANCH  11  14
ENDBRANCH   9  11
ENDBRANCH   3   5
BRANCH   2  19
ATOM     19  C   UNL     1      -0.668  11.518  22.554  0.00  0.00    +0.000 C 
BRANCH  19  20
ATOM     20  N   UNL     1      -1.683  12.292  21.888  0.00  0.00    +0.000 N 
ATOM     21  N   UNL     1      -2.331  13.293  22.513  0.00  0.00    +0.000 NA
ATOM     22  N   UNL     1      -3.356  13.577  21.719  0.00  0.00    +0.000 NA
ATOM     23  C   UNL     1      -3.316  12.684  20.672  0.00  0.00    +0.000 A 
ATOM     24  N   UNL     1      -2.277  11.836  20.767  0.00  0.00    +0.000 NA
BRANCH  23  25
ATOM     25  C   UNL     1      -4.324  12.631  19.618  0.00  0.00    +0.000 A 
ATOM     26  C   UNL     1      -4.139  11.819  18.487  0.00  0.00    +0.000 A 
ATOM     27  C   UNL     1      -5.092  11.799  17.463  0.00  0.00    +0.000 A 
ATOM     28  C   UNL     1      -6.231  12.591  17.566  0.00  0.00    +0.000 A 
ATOM     29  F   UNL     1      -7.133  12.584  16.577  0.00  0.00    +0.000 F 
ATOM     30  C   UNL     1      -6.441  13.392  18.680  0.00  0.00    +0.000 A 
ATOM     31  C   UNL     1      -5.493  13.410  19.707  0.00  0.00    +0.000 A 
ENDBRANCH  23  25
ENDBRANCH  19  20
ENDBRANCH   2  19
TORSDOF 6
ENDMDL
