MODEL 1
REMARK VINA RESULT:      -8.7      0.000      0.000
REMARK  Name = 
REMARK  7 active torsions:
REMARK  status: ('A' for Active; 'I' for Inactive)
REMARK    1  A    between atoms: C_2  and  O_3
REMARK    2  A    between atoms: C_2  and  C_21
REMARK    3  A    between atoms: O_3  and  C_4
REMARK    4  A    between atoms: N_6  and  C_7
REMARK    5  A    between atoms: C_7  and  C_8
REMARK    6  A    between atoms: C_8  and  C_9
REMARK    7  A    between atoms: C_21  and  C_22
REMARK                            x       y       z     vdW  Elec       q    Type
REMARK                         _______ _______ _______ _____ _____    ______ ____
ROOT
ATOM      1  C   UNL     1       4.139   3.122  19.295  0.00  0.00    +0.000 C 
ATOM      2  C   UNL     1       3.289   4.169  20.051  0.00  0.00    +0.000 C 
ATOM      3  N   UNL     1       1.793   4.165  19.516  0.00  0.00    +0.000 N 
ATOM      4  C   UNL     1       1.776   4.400  17.999  0.00  0.00    +0.000 C 
ATOM      5  C   UNL     1       2.668   3.378  17.309  0.00  0.00    +0.000 C 
ATOM      6  C   UNL     1       3.203   2.355  18.330  0.00  0.00    +0.000 C 
ATOM      7  C   UNL     1       2.006   1.732  19.067  0.00  0.00    +0.000 C 
ATOM      8  C   UNL     1       1.182   2.788  19.801  0.00  0.00    +0.000 C 
ENDROOT
BRANCH   1   9
ATOM      9  O   UNL     1       5.135   3.728  18.422  0.00  0.00    +0.000 OA
BRANCH   9  11
ATOM     10  O   UNL     1       5.876   5.387  19.798  0.00  0.00    +0.000 OA
ATOM     11  C   UNL     1       5.804   4.897  18.683  0.00  0.00    +0.000 C 
BRANCH  11  12
ATOM     12  C   UNL     1       6.335   5.502  17.323  0.00  0.00    +0.000 C 
ATOM     13  C   UNL     1       7.289   4.604  16.476  0.00  0.00    +0.000 C 
ATOM     14  C   UNL     1       6.681   3.530  15.559  0.00  0.00    +0.000 C 
ATOM     15  C   UNL     1       6.205   3.996  14.174  0.00  0.00    +0.000 C 
ATOM     16  C   UNL     1       5.030   4.964  14.139  0.00  0.00    +0.000 C 
ATOM     17  C   UNL     1       5.205   6.183  15.040  0.00  0.00    +0.000 C 
ATOM     18  C   UNL     1       5.045   5.819  16.513  0.00  0.00    +0.000 C 
BRANCH  12  19
ATOM     19  C   UNL     1       7.174   6.696  17.793  0.00  0.00    +0.000 C 
ATOM     20  C   UNL     1       8.154   6.774  18.715  0.00  0.00    +0.000 C 
ATOM     21  C   UNL     1       8.656   8.127  18.782  0.00  0.00    +0.000 C 
ATOM     22  C   UNL     1       7.994   8.903  17.914  0.00  0.00    +0.000 C 
ATOM     23  C   UNL     1       6.958   8.091  17.208  0.00  0.00    +0.000 C 
ENDBRANCH  12  19
ENDBRANCH  11  12
ENDBRANCH   9  11
ENDBRANCH   1   9
BRANCH   3  24
ATOM     24  C   UNL     1       1.016   5.286  20.246  0.00  0.00    +0.000 C 
BRANCH  24  25
ATOM     25  C   UNL     1       1.913   6.430  20.752  0.00  0.00    +0.000 C 
BRANCH  25  26
ATOM     26  C   UNL     1       1.832   7.632  19.850  0.00  0.00    +0.000 A 
ATOM     27  C   UNL     1       2.487   7.633  18.614  0.00  0.00    +0.000 A 
ATOM     28  C   UNL     1       2.394   8.733  17.766  0.00  0.00    +0.000 A 
ATOM     29  C   UNL     1       1.658   9.861  18.147  0.00  0.00    +0.000 A 
ATOM     30  C   UNL     1       1.001   9.859  19.381  0.00  0.00    +0.000 A 
ATOM     31 CL   UNL     1       0.088  11.224  19.861  0.00  0.00    +0.000 Cl
ATOM     32  C   UNL     1       1.080   8.753  20.236  0.00  0.00    +0.000 A 
ENDBRANCH  25  26
ENDBRANCH  24  25
ENDBRANCH   3  24
TORSDOF 7
ENDMDL
MODEL 2
REMARK VINA RESULT:      -8.3      3.308      6.026
REMARK  Name = 
REMARK  7 active torsions:
REMARK  status: ('A' for Active; 'I' for Inactive)
REMARK    1  A    between atoms: C_2  and  O_3
REMARK    2  A    between atoms: C_2  and  C_21
REMARK    3  A    between atoms: O_3  and  C_4
REMARK    4  A    between atoms: N_6  and  C_7
REMARK    5  A    between atoms: C_7  and  C_8
REMARK    6  A    between atoms: C_8  and  C_9
REMARK    7  A    between atoms: C_21  and  C_22
REMARK                            x       y       z     vdW  Elec       q    Type
REMARK                         _______ _______ _______ _____ _____    ______ ____
ROOT
ATOM      1  C   UNL     1       2.022   8.558  20.094  0.00  0.00    +0.000 C 
ATOM      2  C   UNL     1       1.434   9.806  19.394  0.00  0.00    +0.000 C 
ATOM      3  N   UNL     1       0.157  10.336  20.177  0.00  0.00    +0.000 N 
ATOM      4  C   UNL     1      -0.880   9.212  20.313  0.00  0.00    +0.000 C 
ATOM      5  C   UNL     1      -0.239   7.993  20.958  0.00  0.00    +0.000 C 
ATOM      6  C   UNL     1       1.207   8.309  21.387  0.00  0.00    +0.000 C 
ATOM      7  C   UNL     1       1.183   9.549  22.297  0.00  0.00    +0.000 C 
ATOM      8  C   UNL     1       0.596  10.764  21.582  0.00  0.00    +0.000 C 
ENDROOT
BRANCH   1   9
ATOM      9  O   UNL     1       1.842   7.339  19.318  0.00  0.00    +0.000 OA
BRANCH   9  11
ATOM     10  O   UNL     1       3.135   7.529  17.451  0.00  0.00    +0.000 OA
ATOM     11  C   UNL     1       2.729   6.861  18.387  0.00  0.00    +0.000 C 
BRANCH  11  12
ATOM     12  C   UNL     1       3.016   5.335  18.683  0.00  0.00    +0.000 C 
ATOM     13  C   UNL     1       2.989   4.891  20.179  0.00  0.00    +0.000 C 
ATOM     14  C   UNL     1       1.635   4.584  20.840  0.00  0.00    +0.000 C 
ATOM     15  C   UNL     1       1.060   3.178  20.612  0.00  0.00    +0.000 C 
ATOM     16  C   UNL     1       0.661   2.819  19.186  0.00  0.00    +0.000 C 
ATOM     17  C   UNL     1       1.752   3.082  18.154  0.00  0.00    +0.000 C 
ATOM     18  C   UNL     1       1.920   4.575  17.883  0.00  0.00    +0.000 C 
BRANCH  12  19
ATOM     19  C   UNL     1       4.466   5.170  18.213  0.00  0.00    +0.000 C 
ATOM     20  C   UNL     1       5.629   5.416  18.845  0.00  0.00    +0.000 C 
ATOM     21  C   UNL     1       6.737   5.076  17.982  0.00  0.00    +0.000 C 
ATOM     22  C   UNL     1       6.279   4.626  16.807  0.00  0.00    +0.000 C 
ATOM     23  C   UNL     1       4.785   4.660  16.808  0.00  0.00    +0.000 C 
ENDBRANCH  12  19
ENDBRANCH  11  12
ENDBRANCH   9  11
ENDBRANCH   1   9
BRANCH   3  24
ATOM     24  C   UNL     1      -0.435  11.526  19.387  0.00  0.00    +0.000 C 
BRANCH  24  25
ATOM     25  C   UNL     1      -1.834  11.952  19.869  0.00  0.00    +0.000 C 
BRANCH  25  26
ATOM     26  C   UNL     1      -2.868  11.760  18.793  0.00  0.00    +0.000 A 
ATOM     27  C   UNL     1      -4.212  12.052  19.046  0.00  0.00    +0.000 A 
ATOM     28  C   UNL     1      -5.169  11.899  18.046  0.00  0.00    +0.000 A 
ATOM     29  C   UNL     1      -4.800  11.434  16.779  0.00  0.00    +0.000 A 
ATOM     30  C   UNL     1      -3.456  11.144  16.525  0.00  0.00    +0.000 A 
ATOM     31 CL   UNL     1      -2.983  10.584  14.979  0.00  0.00    +0.000 Cl
ATOM     32  C   UNL     1      -2.485  11.304  17.521  0.00  0.00    +0.000 A 
ENDBRANCH  25  26
ENDBRANCH  24  25
ENDBRANCH   3  24
TORSDOF 7
ENDMDL
MODEL 3
REMARK VINA RESULT:      -8.3      3.154      5.765
REMARK  Name = 
REMARK  7 active torsions:
REMARK  status: ('A' for Active; 'I' for Inactive)
REMARK    1  A    between atoms: C_2  and  O_3
REMARK    2  A    between atoms: C_2  and  C_21
REMARK    3  A    between atoms: O_3  and  C_4
REMARK    4  A    between atoms: N_6  and  C_7
REMARK    5  A    between atoms: C_7  and  C_8
REMARK    6  A    between atoms: C_8  and  C_9
REMARK    7  A    between atoms: C_21  and  C_22
REMARK                            x       y       z     vdW  Elec       q    Type
REMARK                         _______ _______ _______ _____ _____    ______ ____
ROOT
ATOM      1  C   UNL     1       1.994   8.581  20.076  0.00  0.00    +0.000 C 
ATOM      2  C   UNL     1       1.041   9.686  19.562  0.00  0.00    +0.000 C 
ATOM      3  N   UNL     1      -0.118   9.958  20.614  0.00  0.00    +0.000 N 
ATOM      4  C   UNL     1      -0.866   8.653  20.921  0.00  0.00    +0.000 C 
ATOM      5  C   UNL     1       0.121   7.586  21.371  0.00  0.00    +0.000 C 
ATOM      6  C   UNL     1       1.536   8.182  21.500  0.00  0.00    +0.000 C 
ATOM      7  C   UNL     1       1.467   9.397  22.441  0.00  0.00    +0.000 C 
ATOM      8  C   UNL     1       0.518  10.470  21.911  0.00  0.00    +0.000 C 
ENDROOT
BRANCH   1   9
ATOM      9  O   UNL     1       1.892   7.347  19.309  0.00  0.00    +0.000 OA
BRANCH   9  11
ATOM     10  O   UNL     1       3.304   7.597  17.537  0.00  0.00    +0.000 OA
ATOM     11  C   UNL     1       2.831   6.896  18.416  0.00  0.00    +0.000 C 
BRANCH  11  12
ATOM     12  C   UNL     1       3.079   5.355  18.663  0.00  0.00    +0.000 C 
ATOM     13  C   UNL     1       3.075   4.870  20.146  0.00  0.00    +0.000 C 
ATOM     14  C   UNL     1       1.729   4.584  20.832  0.00  0.00    +0.000 C 
ATOM     15  C   UNL     1       1.106   3.202  20.581  0.00  0.00    +0.000 C 
ATOM     16  C   UNL     1       0.663   2.895  19.156  0.00  0.00    +0.000 C 
ATOM     17  C   UNL     1       1.737   3.155  18.104  0.00  0.00    +0.000 C 
ATOM     18  C   UNL     1       1.942   4.649  17.870  0.00  0.00    +0.000 C 
BRANCH  12  19
ATOM     19  C   UNL     1       4.512   5.160  18.153  0.00  0.00    +0.000 C 
ATOM     20  C   UNL     1       5.697   5.397  18.748  0.00  0.00    +0.000 C 
ATOM     21  C   UNL     1       6.774   5.027  17.857  0.00  0.00    +0.000 C 
ATOM     22  C   UNL     1       6.274   4.570  16.702  0.00  0.00    +0.000 C 
ATOM     23  C   UNL     1       4.782   4.628  16.746  0.00  0.00    +0.000 C 
ENDBRANCH  12  19
ENDBRANCH  11  12
ENDBRANCH   9  11
ENDBRANCH   1   9
BRANCH   3  24
ATOM     24  C   UNL     1      -1.083  11.005  20.010  0.00  0.00    +0.000 C 
BRANCH  24  25
ATOM     25  C   UNL     1      -0.779  11.349  18.541  0.00  0.00    +0.000 C 
BRANCH  25  26
ATOM     26  C   UNL     1      -1.960  11.061  17.653  0.00  0.00    +0.000 A 
ATOM     27  C   UNL     1      -1.882  10.060  16.679  0.00  0.00    +0.000 A 
ATOM     28  C   UNL     1      -2.981   9.773  15.872  0.00  0.00    +0.000 A 
ATOM     29  C   UNL     1      -4.171  10.495  16.014  0.00  0.00    +0.000 A 
ATOM     30  C   UNL     1      -4.249  11.493  16.990  0.00  0.00    +0.000 A 
ATOM     31 CL   UNL     1      -5.699  12.380  17.186  0.00  0.00    +0.000 Cl
ATOM     32  C   UNL     1      -3.154  11.782  17.812  0.00  0.00    +0.000 A 
ENDBRANCH  25  26
ENDBRANCH  24  25
ENDBRANCH   3  24
TORSDOF 7
ENDMDL
MODEL 4
REMARK VINA RESULT:      -8.2      0.877      1.466
REMARK  Name = 
REMARK  7 active torsions:
REMARK  status: ('A' for Active; 'I' for Inactive)
REMARK    1  A    between atoms: C_2  and  O_3
REMARK    2  A    between atoms: C_2  and  C_21
REMARK    3  A    between atoms: O_3  and  C_4
REMARK    4  A    between atoms: N_6  and  C_7
REMARK    5  A    between atoms: C_7  and  C_8
REMARK    6  A    between atoms: C_8  and  C_9
REMARK    7  A    between atoms: C_21  and  C_22
REMARK                            x       y       z     vdW  Elec       q    Type
REMARK                         _______ _______ _______ _____ _____    ______ ____
ROOT
ATOM      1  C   UNL     1       4.210   3.522  19.519  0.00  0.00    +0.000 C 
ATOM      2  C   UNL     1       3.484   4.702  20.206  0.00  0.00    +0.000 C 
ATOM      3  N   UNL     1       1.969   4.777  19.734  0.00  0.00    +0.000 N 
ATOM      4  C   UNL     1       1.899   4.875  18.204  0.00  0.00    +0.000 C 
ATOM      5  C   UNL     1       2.671   3.723  17.577  0.00  0.00    +0.000 C 
ATOM      6  C   UNL     1       3.169   2.754  18.667  0.00  0.00    +0.000 C 
ATOM      7  C   UNL     1       1.962   2.305  19.506  0.00  0.00    +0.000 C 
ATOM      8  C   UNL     1       1.263   3.489  20.171  0.00  0.00    +0.000 C 
ENDROOT
BRANCH   1   9
ATOM      9  O   UNL     1       5.209   3.960  18.554  0.00  0.00    +0.000 OA
BRANCH   9  11
ATOM     10  O   UNL     1       6.529   5.248  19.892  0.00  0.00    +0.000 OA
ATOM     11  C   UNL     1       6.144   4.939  18.777  0.00  0.00    +0.000 C 
BRANCH  11  12
ATOM     12  C   UNL     1       6.516   5.620  17.401  0.00  0.00    +0.000 C 
ATOM     13  C   UNL     1       7.458   4.818  16.449  0.00  0.00    +0.000 C 
ATOM     14  C   UNL     1       6.853   3.730  15.547  0.00  0.00    +0.000 C 
ATOM     15  C   UNL     1       6.233   4.200  14.222  0.00  0.00    +0.000 C 
ATOM     16  C   UNL     1       4.994   5.081  14.316  0.00  0.00    +0.000 C 
ATOM     17  C   UNL     1       5.157   6.283  15.241  0.00  0.00    +0.000 C 
ATOM     18  C   UNL     1       5.145   5.866  16.709  0.00  0.00    +0.000 C 
BRANCH  12  19
ATOM     19  C   UNL     1       7.307   6.858  17.843  0.00  0.00    +0.000 C 
ATOM     20  C   UNL     1       8.283   6.996  18.761  0.00  0.00    +0.000 C 
ATOM     21  C   UNL     1       8.730   8.370  18.797  0.00  0.00    +0.000 C 
ATOM     22  C   UNL     1       8.034   9.099  17.915  0.00  0.00    +0.000 C 
ATOM     23  C   UNL     1       7.032   8.229  17.229  0.00  0.00    +0.000 C 
ENDBRANCH  12  19
ENDBRANCH  11  12
ENDBRANCH   9  11
ENDBRANCH   1   9
BRANCH   3  24
ATOM     24  C   UNL     1       1.321   6.021  20.386  0.00  0.00    +0.000 C 
BRANCH  24  25
ATOM     25  C   UNL     1       2.038   7.340  20.046  0.00  0.00    +0.000 C 
BRANCH  25  26
ATOM     26  C   UNL     1       1.278   8.530  20.567  0.00  0.00    +0.000 A 
ATOM     27  C   UNL     1       0.983   8.637  21.930  0.00  0.00    +0.000 A 
ATOM     28  C   UNL     1       0.302   9.748  22.420  0.00  0.00    +0.000 A 
ATOM     29  C   UNL     1      -0.112  10.764  21.553  0.00  0.00    +0.000 A 
ATOM     30  C   UNL     1       0.185  10.659  20.190  0.00  0.00    +0.000 A 
ATOM     31 CL   UNL     1      -0.303  11.896  19.114  0.00  0.00    +0.000 Cl
ATOM     32  C   UNL     1       0.879   9.550  19.689  0.00  0.00    +0.000 A 
ENDBRANCH  25  26
ENDBRANCH  24  25
ENDBRANCH   3  24
TORSDOF 7
ENDMDL
MODEL 5
REMARK VINA RESULT:      -8.1      3.301      5.949
REMARK  Name = 
REMARK  7 active torsions:
REMARK  status: ('A' for Active; 'I' for Inactive)
REMARK    1  A    between atoms: C_2  and  O_3
REMARK    2  A    between atoms: C_2  and  C_21
REMARK    3  A    between atoms: O_3  and  C_4
REMARK    4  A    between atoms: N_6  and  C_7
REMARK    5  A    between atoms: C_7  and  C_8
REMARK    6  A    between atoms: C_8  and  C_9
REMARK    7  A    between atoms: C_21  and  C_22
REMARK                            x       y       z     vdW  Elec       q    Type
REMARK                         _______ _______ _______ _____ _____    ______ ____
ROOT
ATOM      1  C   UNL     1       2.064   8.441  20.140  0.00  0.00    +0.000 C 
ATOM      2  C   UNL     1       1.290   9.560  19.404  0.00  0.00    +0.000 C 
ATOM      3  N   UNL     1       0.040  10.032  20.264  0.00  0.00    +0.000 N 
ATOM      4  C   UNL     1      -0.859   8.831  20.589  0.00  0.00    +0.000 C 
ATOM      5  C   UNL     1      -0.040   7.740  21.262  0.00  0.00    +0.000 C 
ATOM      6  C   UNL     1       1.398   8.230  21.522  0.00  0.00    +0.000 C 
ATOM      7  C   UNL     1       1.327   9.537  22.329  0.00  0.00    +0.000 C 
ATOM      8  C   UNL     1       0.555  10.622  21.581  0.00  0.00    +0.000 C 
ENDROOT
BRANCH   1   9
ATOM      9  O   UNL     1       1.943   7.147  19.483  0.00  0.00    +0.000 OA
BRANCH   9  11
ATOM     10  O   UNL     1       3.175   7.387  17.581  0.00  0.00    +0.000 OA
ATOM     11  C   UNL     1       2.775   6.685  18.495  0.00  0.00    +0.000 C 
BRANCH  11  12
ATOM     12  C   UNL     1       3.007   5.135  18.698  0.00  0.00    +0.000 C 
ATOM     13  C   UNL     1       3.126   4.627  20.169  0.00  0.00    +0.000 C 
ATOM     14  C   UNL     1       1.842   4.363  20.971  0.00  0.00    +0.000 C 
ATOM     15  C   UNL     1       1.165   2.999  20.759  0.00  0.00    +0.000 C 
ATOM     16  C   UNL     1       0.587   2.725  19.377  0.00  0.00    +0.000 C 
ATOM     17  C   UNL     1       1.566   2.976  18.235  0.00  0.00    +0.000 C 
ATOM     18  C   UNL     1       1.786   4.468  18.003  0.00  0.00    +0.000 C 
BRANCH  12  19
ATOM     19  C   UNL     1       4.382   4.915  18.056  0.00  0.00    +0.000 C 
ATOM     20  C   UNL     1       4.719   4.460  16.833  0.00  0.00    +0.000 C 
ATOM     21  C   UNL     1       6.157   4.455  16.693  0.00  0.00    +0.000 C 
ATOM     22  C   UNL     1       6.728   4.894  17.822  0.00  0.00    +0.000 C 
ATOM     23  C   UNL     1       5.668   5.209  18.827  0.00  0.00    +0.000 C 
ENDBRANCH  12  19
ENDBRANCH  11  12
ENDBRANCH   9  11
ENDBRANCH   1   9
BRANCH   3  24
ATOM     24  C   UNL     1      -0.741  11.086  19.444  0.00  0.00    +0.000 C 
BRANCH  24  25
ATOM     25  C   UNL     1      -1.144  10.600  18.040  0.00  0.00    +0.000 C 
BRANCH  25  26
ATOM     26  C   UNL     1      -2.546  11.023  17.693  0.00  0.00    +0.000 A 
ATOM     27  C   UNL     1      -3.045  10.823  16.402  0.00  0.00    +0.000 A 
ATOM     28  C   UNL     1      -4.350  11.190  16.085  0.00  0.00    +0.000 A 
ATOM     29  C   UNL     1      -5.174  11.780  17.049  0.00  0.00    +0.000 A 
ATOM     30  C   UNL     1      -4.676  11.978  18.340  0.00  0.00    +0.000 A 
ATOM     31 CL   UNL     1      -5.671  12.689  19.537  0.00  0.00    +0.000 Cl
ATOM     32  C   UNL     1      -3.369  11.603  18.673  0.00  0.00    +0.000 A 
ENDBRANCH  25  26
ENDBRANCH  24  25
ENDBRANCH   3  24
TORSDOF 7
ENDMDL
MODEL 6
REMARK VINA RESULT:      -7.8      3.492      6.122
REMARK  Name = 
REMARK  7 active torsions:
REMARK  status: ('A' for Active; 'I' for Inactive)
REMARK    1  A    between atoms: C_2  and  O_3
REMARK    2  A    between atoms: C_2  and  C_21
REMARK    3  A    between atoms: O_3  and  C_4
REMARK    4  A    between atoms: N_6  and  C_7
REMARK    5  A    between atoms: C_7  and  C_8
REMARK    6  A    between atoms: C_8  and  C_9
REMARK    7  A    between atoms: C_21  and  C_22
REMARK                            x       y       z     vdW  Elec       q    Type
REMARK                         _______ _______ _______ _____ _____    ______ ____
ROOT
ATOM      1  C   UNL     1       1.151   8.169  18.986  0.00  0.00    +0.000 C 
ATOM      2  C   UNL     1       0.669   8.758  20.333  0.00  0.00    +0.000 C 
ATOM      3  N   UNL     1       0.280  10.289  20.165  0.00  0.00    +0.000 N 
ATOM      4  C   UNL     1       1.468  11.074  19.589  0.00  0.00    +0.000 C 
ATOM      5  C   UNL     1       1.936  10.424  18.295  0.00  0.00    +0.000 C 
ATOM      6  C   UNL     1       0.997   9.266  17.904  0.00  0.00    +0.000 C 
ATOM      7  C   UNL     1      -0.440   9.808  17.838  0.00  0.00    +0.000 C 
ATOM      8  C   UNL     1      -0.889  10.385  19.179  0.00  0.00    +0.000 C 
ENDROOT
BRANCH   1   9
ATOM      9  O   UNL     1       2.575   7.861  18.983  0.00  0.00    +0.000 OA
BRANCH   9  11
ATOM     10  O   UNL     1       3.543   7.631  16.933  0.00  0.00    +0.000 OA
ATOM     11  C   UNL     1       3.225   7.149  18.007  0.00  0.00    +0.000 C 
BRANCH  11  12
ATOM     12  C   UNL     1       3.371   5.647  18.476  0.00  0.00    +0.000 C 
ATOM     13  C   UNL     1       3.325   5.380  20.012  0.00  0.00    +0.000 C 
ATOM     14  C   UNL     1       1.958   5.281  20.710  0.00  0.00    +0.000 C 
ATOM     15  C   UNL     1       1.250   3.918  20.647  0.00  0.00    +0.000 C 
ATOM     16  C   UNL     1       0.799   3.440  19.274  0.00  0.00    +0.000 C 
ATOM     17  C   UNL     1       1.894   3.478  18.213  0.00  0.00    +0.000 C 
ATOM     18  C   UNL     1       2.198   4.908  17.772  0.00  0.00    +0.000 C 
BRANCH  12  19
ATOM     19  C   UNL     1       4.792   5.292  18.021  0.00  0.00    +0.000 C 
ATOM     20  C   UNL     1       5.982   5.486  18.623  0.00  0.00    +0.000 C 
ATOM     21  C   UNL     1       7.041   4.951  17.797  0.00  0.00    +0.000 C 
ATOM     22  C   UNL     1       6.526   4.431  16.675  0.00  0.00    +0.000 C 
ATOM     23  C   UNL     1       5.043   4.613  16.676  0.00  0.00    +0.000 C 
ENDBRANCH  12  19
ENDBRANCH  11  12
ENDBRANCH   9  11
ENDBRANCH   1   9
BRANCH   3  24
ATOM     24  C   UNL     1      -0.111  10.844  21.555  0.00  0.00    +0.000 C 
BRANCH  24  25
ATOM     25  C   UNL     1      -0.430  12.350  21.551  0.00  0.00    +0.000 C 
BRANCH  25  26
ATOM     26  C   UNL     1      -1.888  12.604  21.824  0.00  0.00    +0.000 A 
ATOM     27  C   UNL     1      -2.727  13.067  20.805  0.00  0.00    +0.000 A 
ATOM     28  C   UNL     1      -4.081  13.280  21.048  0.00  0.00    +0.000 A 
ATOM     29  C   UNL     1      -4.618  13.050  22.319  0.00  0.00    +0.000 A 
ATOM     30  C   UNL     1      -3.779  12.585  23.337  0.00  0.00    +0.000 A 
ATOM     31 CL   UNL     1      -4.418  12.288  24.896  0.00  0.00    +0.000 Cl
ATOM     32  C   UNL     1      -2.418  12.358  23.100  0.00  0.00    +0.000 A 
ENDBRANCH  25  26
ENDBRANCH  24  25
ENDBRANCH   3  24
TORSDOF 7
ENDMDL
MODEL 7
REMARK VINA RESULT:      -7.8      3.474      6.149
REMARK  Name = 
REMARK  7 active torsions:
REMARK  status: ('A' for Active; 'I' for Inactive)
REMARK    1  A    between atoms: C_2  and  O_3
REMARK    2  A    between atoms: C_2  and  C_21
REMARK    3  A    between atoms: O_3  and  C_4
REMARK    4  A    between atoms: N_6  and  C_7
REMARK    5  A    between atoms: C_7  and  C_8
REMARK    6  A    between atoms: C_8  and  C_9
REMARK    7  A    between atoms: C_21  and  C_22
REMARK                            x       y       z     vdW  Elec       q    Type
REMARK                         _______ _______ _______ _____ _____    ______ ____
ROOT
ATOM      1  C   UNL     1       2.011   8.586  20.180  0.00  0.00    +0.000 C 
ATOM      2  C   UNL     1       1.405   9.767  19.387  0.00  0.00    +0.000 C 
ATOM      3  N   UNL     1       0.097  10.310  20.106  0.00  0.00    +0.000 N 
ATOM      4  C   UNL     1      -0.912   9.168  20.294  0.00  0.00    +0.000 C 
ATOM      5  C   UNL     1      -0.252   8.013  21.032  0.00  0.00    +0.000 C 
ATOM      6  C   UNL     1       1.174   8.398  21.469  0.00  0.00    +0.000 C 
ATOM      7  C   UNL     1       1.095   9.694  22.294  0.00  0.00    +0.000 C 
ATOM      8  C   UNL     1       0.491  10.842  21.488  0.00  0.00    +0.000 C 
ENDROOT
BRANCH   1   9
ATOM      9  O   UNL     1       1.883   7.314  19.482  0.00  0.00    +0.000 OA
BRANCH   9  11
ATOM     10  O   UNL     1       3.149   7.540  17.601  0.00  0.00    +0.000 OA
ATOM     11  C   UNL     1       2.748   6.850  18.524  0.00  0.00    +0.000 C 
BRANCH  11  12
ATOM     12  C   UNL     1       3.018   5.313  18.772  0.00  0.00    +0.000 C 
ATOM     13  C   UNL     1       2.879   4.801  20.239  0.00  0.00    +0.000 C 
ATOM     14  C   UNL     1       1.480   4.463  20.779  0.00  0.00    +0.000 C 
ATOM     15  C   UNL     1       0.930   3.068  20.444  0.00  0.00    +0.000 C 
ATOM     16  C   UNL     1       0.644   2.775  18.977  0.00  0.00    +0.000 C 
ATOM     17  C   UNL     1       1.810   3.086  18.044  0.00  0.00    +0.000 C 
ATOM     18  C   UNL     1       1.991   4.589  17.855  0.00  0.00    +0.000 C 
BRANCH  12  19
ATOM     19  C   UNL     1       4.501   5.171  18.407  0.00  0.00    +0.000 C 
ATOM     20  C   UNL     1       5.612   5.392  19.137  0.00  0.00    +0.000 C 
ATOM     21  C   UNL     1       6.784   5.091  18.347  0.00  0.00    +0.000 C 
ATOM     22  C   UNL     1       6.419   4.691  17.122  0.00  0.00    +0.000 C 
ATOM     23  C   UNL     1       4.930   4.723  17.010  0.00  0.00    +0.000 C 
ENDBRANCH  12  19
ENDBRANCH  11  12
ENDBRANCH   9  11
ENDBRANCH   1   9
BRANCH   3  24
ATOM     24  C   UNL     1      -0.509  11.428  19.226  0.00  0.00    +0.000 C 
BRANCH  24  25
ATOM     25  C   UNL     1      -1.730  10.975  18.406  0.00  0.00    +0.000 C 
BRANCH  25  26
ATOM     26  C   UNL     1      -2.992  11.644  18.880  0.00  0.00    +0.000 A 
ATOM     27  C   UNL     1      -2.957  12.529  19.963  0.00  0.00    +0.000 A 
ATOM     28  C   UNL     1      -4.118  13.169  20.389  0.00  0.00    +0.000 A 
ATOM     29  C   UNL     1      -5.338  12.923  19.751  0.00  0.00    +0.000 A 
ATOM     30  C   UNL     1      -5.372  12.040  18.667  0.00  0.00    +0.000 A 
ATOM     31 CL   UNL     1      -6.852  11.733  17.865  0.00  0.00    +0.000 Cl
ATOM     32  C   UNL     1      -4.209  11.399  18.224  0.00  0.00    +0.000 A 
ENDBRANCH  25  26
ENDBRANCH  24  25
ENDBRANCH   3  24
TORSDOF 7
ENDMDL
MODEL 8
REMARK VINA RESULT:      -7.8      3.719      6.306
REMARK  Name = 
REMARK  7 active torsions:
REMARK  status: ('A' for Active; 'I' for Inactive)
REMARK    1  A    between atoms: C_2  and  O_3
REMARK    2  A    between atoms: C_2  and  C_21
REMARK    3  A    between atoms: O_3  and  C_4
REMARK    4  A    between atoms: N_6  and  C_7
REMARK    5  A    between atoms: C_7  and  C_8
REMARK    6  A    between atoms: C_8  and  C_9
REMARK    7  A    between atoms: C_21  and  C_22
REMARK                            x       y       z     vdW  Elec       q    Type
REMARK                         _______ _______ _______ _____ _____    ______ ____
ROOT
ATOM      1  C   UNL     1       1.122   8.507  19.207  0.00  0.00    +0.000 C 
ATOM      2  C   UNL     1       0.889   9.211  20.564  0.00  0.00    +0.000 C 
ATOM      3  N   UNL     1       0.508  10.738  20.343  0.00  0.00    +0.000 N 
ATOM      4  C   UNL     1       1.595  11.436  19.513  0.00  0.00    +0.000 C 
ATOM      5  C   UNL     1       1.822  10.676  18.215  0.00  0.00    +0.000 C 
ATOM      6  C   UNL     1       0.807   9.524  18.082  0.00  0.00    +0.000 C 
ATOM      7  C   UNL     1      -0.609  10.107  18.217  0.00  0.00    +0.000 C 
ATOM      8  C   UNL     1      -0.810  10.798  19.564  0.00  0.00    +0.000 C 
ENDROOT
BRANCH   1   9
ATOM      9  O   UNL     1       2.518   8.152  18.988  0.00  0.00    +0.000 OA
BRANCH   9  11
ATOM     10  O   UNL     1       3.067   7.829  16.800  0.00  0.00    +0.000 OA
ATOM     11  C   UNL     1       2.984   7.401  17.939  0.00  0.00    +0.000 C 
BRANCH  11  12
ATOM     12  C   UNL     1       3.270   5.931  18.445  0.00  0.00    +0.000 C 
ATOM     13  C   UNL     1       3.210   5.691  19.985  0.00  0.00    +0.000 C 
ATOM     14  C   UNL     1       1.842   5.466  20.650  0.00  0.00    +0.000 C 
ATOM     15  C   UNL     1       1.278   4.038  20.600  0.00  0.00    +0.000 C 
ATOM     16  C   UNL     1       0.915   3.488  19.227  0.00  0.00    +0.000 C 
ATOM     17  C   UNL     1       2.029   3.618  18.194  0.00  0.00    +0.000 C 
ATOM     18  C   UNL     1       2.197   5.062  17.729  0.00  0.00    +0.000 C 
BRANCH  12  19
ATOM     19  C   UNL     1       4.732   5.714  18.034  0.00  0.00    +0.000 C 
ATOM     20  C   UNL     1       5.304   5.659  16.815  0.00  0.00    +0.000 C 
ATOM     21  C   UNL     1       6.728   5.456  16.953  0.00  0.00    +0.000 C 
ATOM     22  C   UNL     1       7.055   5.373  18.249  0.00  0.00    +0.000 C 
ATOM     23  C   UNL     1       5.822   5.499  19.083  0.00  0.00    +0.000 C 
ENDBRANCH  12  19
ENDBRANCH  11  12
ENDBRANCH   9  11
ENDBRANCH   1   9
BRANCH   3  24
ATOM     24  C   UNL     1       0.372  11.408  21.730  0.00  0.00    +0.000 C 
BRANCH  24  25
ATOM     25  C   UNL     1      -0.887  10.975  22.503  0.00  0.00    +0.000 C 
BRANCH  25  26
ATOM     26  C   UNL     1      -1.666  12.165  22.996  0.00  0.00    +0.000 A 
ATOM     27  C   UNL     1      -1.062  13.425  23.064  0.00  0.00    +0.000 A 
ATOM     28  C   UNL     1      -1.786  14.533  23.496  0.00  0.00    +0.000 A 
ATOM     29  C   UNL     1      -3.123  14.397  23.886  0.00  0.00    +0.000 A 
ATOM     30  C   UNL     1      -3.727  13.138  23.816  0.00  0.00    +0.000 A 
ATOM     31 CL   UNL     1      -5.364  12.952  24.278  0.00  0.00    +0.000 Cl
ATOM     32  C   UNL     1      -3.010  12.020  23.373  0.00  0.00    +0.000 A 
ENDBRANCH  25  26
ENDBRANCH  24  25
ENDBRANCH   3  24
TORSDOF 7
ENDMDL
MODEL 9
REMARK VINA RESULT:      -7.7      3.504      6.180
REMARK  Name = 
REMARK  7 active torsions:
REMARK  status: ('A' for Active; 'I' for Inactive)
REMARK    1  A    between atoms: C_2  and  O_3
REMARK    2  A    between atoms: C_2  and  C_21
REMARK    3  A    between atoms: O_3  and  C_4
REMARK    4  A    between atoms: N_6  and  C_7
REMARK    5  A    between atoms: C_7  and  C_8
REMARK    6  A    between atoms: C_8  and  C_9
REMARK    7  A    between atoms: C_21  and  C_22
REMARK                            x       y       z     vdW  Elec       q    Type
REMARK                         _______ _______ _______ _____ _____    ______ ____
ROOT
ATOM      1  C   UNL     1       2.030   8.511  19.924  0.00  0.00    +0.000 C 
ATOM      2  C   UNL     1       1.095   9.598  19.345  0.00  0.00    +0.000 C 
ATOM      3  N   UNL     1      -0.085   9.917  20.360  0.00  0.00    +0.000 N 
ATOM      4  C   UNL     1      -0.847   8.629  20.703  0.00  0.00    +0.000 C 
ATOM      5  C   UNL     1       0.125   7.576  21.217  0.00  0.00    +0.000 C 
ATOM      6  C   UNL     1       1.540   8.171  21.353  0.00  0.00    +0.000 C 
ATOM      7  C   UNL     1       1.457   9.423  22.242  0.00  0.00    +0.000 C 
ATOM      8  C   UNL     1       0.526  10.478  21.649  0.00  0.00    +0.000 C 
ENDROOT
BRANCH   1   9
ATOM      9  O   UNL     1       1.939   7.247  19.205  0.00  0.00    +0.000 OA
BRANCH   9  11
ATOM     10  O   UNL     1       3.391   7.463  17.461  0.00  0.00    +0.000 OA
ATOM     11  C   UNL     1       2.879   6.771  18.326  0.00  0.00    +0.000 C 
BRANCH  11  12
ATOM     12  C   UNL     1       3.073   5.222  18.566  0.00  0.00    +0.000 C 
ATOM     13  C   UNL     1       3.244   4.754  20.045  0.00  0.00    +0.000 C 
ATOM     14  C   UNL     1       1.990   4.554  20.912  0.00  0.00    +0.000 C 
ATOM     15  C   UNL     1       1.264   3.207  20.774  0.00  0.00    +0.000 C 
ATOM     16  C   UNL     1       0.614   2.911  19.428  0.00  0.00    +0.000 C 
ATOM     17  C   UNL     1       1.547   3.097  18.236  0.00  0.00    +0.000 C 
ATOM     18  C   UNL     1       1.801   4.574  17.948  0.00  0.00    +0.000 C 
BRANCH  12  19
ATOM     19  C   UNL     1       4.409   4.939  17.870  0.00  0.00    +0.000 C 
ATOM     20  C   UNL     1       4.676   4.454  16.641  0.00  0.00    +0.000 C 
ATOM     21  C   UNL     1       6.105   4.391  16.440  0.00  0.00    +0.000 C 
ATOM     22  C   UNL     1       6.740   4.823  17.537  0.00  0.00    +0.000 C 
ATOM     23  C   UNL     1       5.738   5.194  18.580  0.00  0.00    +0.000 C 
ENDBRANCH  12  19
ENDBRANCH  11  12
ENDBRANCH   9  11
ENDBRANCH   1   9
BRANCH   3  24
ATOM     24  C   UNL     1      -1.031  10.944  19.694  0.00  0.00    +0.000 C 
BRANCH  24  25
ATOM     25  C   UNL     1      -1.101  12.290  20.436  0.00  0.00    +0.000 C 
BRANCH  25  26
ATOM     26  C   UNL     1      -2.439  12.486  21.096  0.00  0.00    +0.000 A 
ATOM     27  C   UNL     1      -2.546  12.476  22.491  0.00  0.00    +0.000 A 
ATOM     28  C   UNL     1      -3.779  12.681  23.105  0.00  0.00    +0.000 A 
ATOM     29  C   UNL     1      -4.929  12.882  22.336  0.00  0.00    +0.000 A 
ATOM     30  C   UNL     1      -4.821  12.894  20.942  0.00  0.00    +0.000 A 
ATOM     31 CL   UNL     1      -6.215  13.149  19.982  0.00  0.00    +0.000 Cl
ATOM     32  C   UNL     1      -3.585  12.699  20.314  0.00  0.00    +0.000 A 
ENDBRANCH  25  26
ENDBRANCH  24  25
ENDBRANCH   3  24
TORSDOF 7
ENDMDL
