MODEL 1
REMARK VINA RESULT:      -8.3      0.000      0.000
REMARK  Name = 
REMARK  7 active torsions:
REMARK  status: ('A' for Active; 'I' for Inactive)
REMARK    1  A    between atoms: C_1  and  O_2
REMARK    2  A    between atoms: O_2  and  C_3
REMARK    3  A    between atoms: C_8  and  N_9
REMARK    4  A    between atoms: C_13  and  C_15
REMARK    5  A    between atoms: C_17  and  C_18
REMARK    6  A    between atoms: C_21  and  S_22
REMARK    7  A    between atoms: S_22  and  C_23
REMARK                            x       y       z     vdW  Elec       q    Type
REMARK                         _______ _______ _______ _____ _____    ______ ____
ROOT
ATOM      1  N   UNL     1       4.071   4.247  18.621  0.00  0.00    +0.000 N 
ATOM      2  C   UNL     1       5.015   3.581  17.708  0.00  0.00    +0.000 C 
ATOM      3  C   UNL     1       5.641   4.620  16.750  0.00  0.00    +0.000 C 
ATOM      4  N   UNL     1       6.181   5.784  17.462  0.00  0.00    +0.000 N 
ATOM      5  C   UNL     1       7.240   6.475  16.876  0.00  0.00    +0.000 C 
ATOM      6  O   UNL     1       7.688   6.162  15.771  0.00  0.00    +0.000 OA
ATOM      7  C   UNL     1       5.213   6.391  18.402  0.00  0.00    +0.000 C 
ATOM      8  C   UNL     1       4.665   5.350  19.388  0.00  0.00    +0.000 C 
ENDROOT
BRANCH   1  14
ATOM      9  C   UNL     1       2.014   4.236  19.995  0.00  0.00    +0.000 A 
ATOM     10  C   UNL     1       0.775   3.643  20.291  0.00  0.00    +0.000 A 
ATOM     11  C   UNL     1       0.323   2.537  19.579  0.00  0.00    +0.000 A 
ATOM     12  C   UNL     1       1.115   1.998  18.578  0.00  0.00    +0.000 A 
ATOM     13  C   UNL     1       2.360   2.565  18.294  0.00  0.00    +0.000 A 
ATOM     14  C   UNL     1       2.851   3.691  18.983  0.00  0.00    +0.000 A 
BRANCH   9  16
ATOM     15  C   UNL     1       1.657   6.537  20.527  0.00  0.00    +0.000 C 
ATOM     16  O   UNL     1       2.453   5.365  20.656  0.00  0.00    +0.000 OA
ENDBRANCH   9  16
ENDBRANCH   1  14
BRANCH   5  17
ATOM     17  C   UNL     1       7.812   7.575  17.603  0.00  0.00    +0.000 A 
ATOM     18  C   UNL     1       7.852   8.934  17.372  0.00  0.00    +0.000 A 
ATOM     19  C   UNL     1       8.678   9.483  18.381  0.00  0.00    +0.000 A 
ATOM     20  N   UNL     1       9.000   8.546  19.284  0.00  0.00    +0.000 NA
ATOM     21  N   UNL     1       8.414   7.426  18.823  0.00  0.00    +0.000 N 
ATOM     22  H   UNL     1       8.490   6.569  19.364  0.00  0.00    +0.000 HD
BRANCH  19  23
ATOM     23  C   UNL     1       9.140  10.866  18.475  0.00  0.00    +0.000 A 
ATOM     24  C   UNL     1      10.216  11.200  19.308  0.00  0.00    +0.000 A 
ATOM     25  C   UNL     1      10.626  12.529  19.437  0.00  0.00    +0.000 A 
ATOM     26  C   UNL     1       9.970  13.525  18.712  0.00  0.00    +0.000 A 
ATOM     27  C   UNL     1       8.904  13.212  17.868  0.00  0.00    +0.000 A 
ATOM     28  C   UNL     1       8.497  11.882  17.746  0.00  0.00    +0.000 A 
BRANCH  26  29
ATOM     29  S   UNL     1      10.459  15.223  18.907  0.00  0.00    +0.000 S 
ATOM     30  C   UNL     1       8.939  16.111  18.704  0.00  0.00    +0.000 C 
ATOM     31  O   UNL     1      10.900  15.393  20.278  0.00  0.00    +0.000 OA
ATOM     32  O   UNL     1      11.331  15.556  17.798  0.00  0.00    +0.000 OA
ENDBRANCH  26  29
ENDBRANCH  19  23
ENDBRANCH   5  17
TORSDOF 5
ENDMDL
MODEL 2
REMARK VINA RESULT:      -8.2      0.697      1.336
REMARK  Name = 
REMARK  7 active torsions:
REMARK  status: ('A' for Active; 'I' for Inactive)
REMARK    1  A    between atoms: C_1  and  O_2
REMARK    2  A    between atoms: O_2  and  C_3
REMARK    3  A    between atoms: C_8  and  N_9
REMARK    4  A    between atoms: C_13  and  C_15
REMARK    5  A    between atoms: C_17  and  C_18
REMARK    6  A    between atoms: C_21  and  S_22
REMARK    7  A    between atoms: S_22  and  C_23
REMARK                            x       y       z     vdW  Elec       q    Type
REMARK                         _______ _______ _______ _____ _____    ______ ____
ROOT
ATOM      1  N   UNL     1       4.171   4.228  18.508  0.00  0.00    +0.000 N 
ATOM      2  C   UNL     1       5.106   3.631  17.538  0.00  0.00    +0.000 C 
ATOM      3  C   UNL     1       5.695   4.734  16.630  0.00  0.00    +0.000 C 
ATOM      4  N   UNL     1       6.233   5.864  17.398  0.00  0.00    +0.000 N 
ATOM      5  C   UNL     1       7.269   6.605  16.831  0.00  0.00    +0.000 C 
ATOM      6  O   UNL     1       7.698   6.364  15.702  0.00  0.00    +0.000 OA
ATOM      7  C   UNL     1       5.275   6.400  18.391  0.00  0.00    +0.000 C 
ATOM      8  C   UNL     1       4.764   5.294  19.325  0.00  0.00    +0.000 C 
ENDROOT
BRANCH   1  14
ATOM      9  C   UNL     1       1.845   4.363  19.338  0.00  0.00    +0.000 A 
ATOM     10  C   UNL     1       0.644   3.702  19.648  0.00  0.00    +0.000 A 
ATOM     11  C   UNL     1       0.513   2.330  19.460  0.00  0.00    +0.000 A 
ATOM     12  C   UNL     1       1.589   1.600  18.981  0.00  0.00    +0.000 A 
ATOM     13  C   UNL     1       2.795   2.244  18.694  0.00  0.00    +0.000 A 
ATOM     14  C   UNL     1       2.968   3.632  18.860  0.00  0.00    +0.000 A 
BRANCH   9  16
ATOM     15  C   UNL     1       1.601   6.295  20.720  0.00  0.00    +0.000 C 
ATOM     16  O   UNL     1       1.974   5.730  19.469  0.00  0.00    +0.000 OA
ENDBRANCH   9  16
ENDBRANCH   1  14
BRANCH   5  17
ATOM     17  C   UNL     1       7.838   7.670  17.610  0.00  0.00    +0.000 A 
ATOM     18  C   UNL     1       7.848   9.041  17.460  0.00  0.00    +0.000 A 
ATOM     19  C   UNL     1       8.689   9.545  18.481  0.00  0.00    +0.000 A 
ATOM     20  N   UNL     1       9.050   8.562  19.317  0.00  0.00    +0.000 NA
ATOM     21  N   UNL     1       8.472   7.460  18.804  0.00  0.00    +0.000 N 
ATOM     22  H   UNL     1       8.577   6.574  19.291  0.00  0.00    +0.000 HD
BRANCH  19  23
ATOM     23  C   UNL     1       9.129  10.929  18.646  0.00  0.00    +0.000 A 
ATOM     24  C   UNL     1       8.745  11.910  17.722  0.00  0.00    +0.000 A 
ATOM     25  C   UNL     1       9.207  13.222  17.850  0.00  0.00    +0.000 A 
ATOM     26  C   UNL     1      10.039  13.558  18.920  0.00  0.00    +0.000 A 
ATOM     27  C   UNL     1      10.423  12.597  19.857  0.00  0.00    +0.000 A 
ATOM     28  C   UNL     1       9.962  11.287  19.720  0.00  0.00    +0.000 A 
BRANCH  26  29
ATOM     29  S   UNL     1      10.665  15.215  19.062  0.00  0.00    +0.000 S 
ATOM     30  C   UNL     1      12.331  14.976  19.618  0.00  0.00    +0.000 C 
ATOM     31  O   UNL     1      10.714  15.777  17.726  0.00  0.00    +0.000 OA
ATOM     32  O   UNL     1       9.924  15.873  20.119  0.00  0.00    +0.000 OA
ENDBRANCH  26  29
ENDBRANCH  19  23
ENDBRANCH   5  17
TORSDOF 5
ENDMDL
MODEL 3
REMARK VINA RESULT:      -8.1      7.614     10.963
REMARK  Name = 
REMARK  7 active torsions:
REMARK  status: ('A' for Active; 'I' for Inactive)
REMARK    1  A    between atoms: C_1  and  O_2
REMARK    2  A    between atoms: O_2  and  C_3
REMARK    3  A    between atoms: C_8  and  N_9
REMARK    4  A    between atoms: C_13  and  C_15
REMARK    5  A    between atoms: C_17  and  C_18
REMARK    6  A    between atoms: C_21  and  S_22
REMARK    7  A    between atoms: S_22  and  C_23
REMARK                            x       y       z     vdW  Elec       q    Type
REMARK                         _______ _______ _______ _____ _____    ______ ____
ROOT
ATOM      1  N   UNL     1      -3.747  13.024  20.131  0.00  0.00    +0.000 N 
ATOM      2  C   UNL     1      -2.777  14.043  20.568  0.00  0.00    +0.000 C 
ATOM      3  C   UNL     1      -1.579  13.362  21.268  0.00  0.00    +0.000 C 
ATOM      4  N   UNL     1      -1.014  12.266  20.471  0.00  0.00    +0.000 N 
ATOM      5  C   UNL     1       0.336  11.963  20.641  0.00  0.00    +0.000 C 
ATOM      6  O   UNL     1       1.035  12.554  21.466  0.00  0.00    +0.000 OA
ATOM      7  C   UNL     1      -2.032  11.293  20.015  0.00  0.00    +0.000 C 
ATOM      8  C   UNL     1      -3.171  11.993  19.259  0.00  0.00    +0.000 C 
ENDROOT
BRANCH   1  14
ATOM      9  C   UNL     1      -5.866  12.824  21.391  0.00  0.00    +0.000 A 
ATOM     10  C   UNL     1      -7.251  13.053  21.449  0.00  0.00    +0.000 A 
ATOM     11  C   UNL     1      -7.917  13.681  20.400  0.00  0.00    +0.000 A 
ATOM     12  C   UNL     1      -7.208  14.065  19.274  0.00  0.00    +0.000 A 
ATOM     13  C   UNL     1      -5.835  13.818  19.196  0.00  0.00    +0.000 A 
ATOM     14  C   UNL     1      -5.121  13.195  20.238  0.00  0.00    +0.000 A 
BRANCH   9  16
ATOM     15  C   UNL     1      -5.015  13.046  23.612  0.00  0.00    +0.000 C 
ATOM     16  O   UNL     1      -5.182  12.251  22.443  0.00  0.00    +0.000 OA
ENDBRANCH   9  16
ENDBRANCH   1  14
BRANCH   5  17
ATOM     17  C   UNL     1       0.905  10.935  19.813  0.00  0.00    +0.000 A 
ATOM     18  C   UNL     1       1.135   9.589  20.013  0.00  0.00    +0.000 A 
ATOM     19  C   UNL     1       1.845   9.137  18.876  0.00  0.00    +0.000 A 
ATOM     20  N   UNL     1       1.911  10.103  17.949  0.00  0.00    +0.000 NA
ATOM     21  N   UNL     1       1.283  11.150  18.516  0.00  0.00    +0.000 N 
ATOM     22  H   UNL     1       1.174  12.009  17.984  0.00  0.00    +0.000 HD
BRANCH  19  23
ATOM     23  C   UNL     1       2.441   7.815  18.688  0.00  0.00    +0.000 A 
ATOM     24  C   UNL     1       2.371   6.855  19.705  0.00  0.00    +0.000 A 
ATOM     25  C   UNL     1       2.984   5.610  19.546  0.00  0.00    +0.000 A 
ATOM     26  C   UNL     1       3.651   5.317  18.355  0.00  0.00    +0.000 A 
ATOM     27  C   UNL     1       3.721   6.257  17.325  0.00  0.00    +0.000 A 
ATOM     28  C   UNL     1       3.110   7.500  17.492  0.00  0.00    +0.000 A 
BRANCH  26  29
ATOM     29  S   UNL     1       4.470   3.752  18.166  0.00  0.00    +0.000 S 
ATOM     30  C   UNL     1       3.127   2.607  17.998  0.00  0.00    +0.000 C 
ATOM     31  O   UNL     1       5.190   3.787  16.907  0.00  0.00    +0.000 OA
ATOM     32  O   UNL     1       5.158   3.465  19.409  0.00  0.00    +0.000 OA
ENDBRANCH  26  29
ENDBRANCH  19  23
ENDBRANCH   5  17
TORSDOF 5
ENDMDL
MODEL 4
REMARK VINA RESULT:      -8.0      1.064      1.474
REMARK  Name = 
REMARK  7 active torsions:
REMARK  status: ('A' for Active; 'I' for Inactive)
REMARK    1  A    between atoms: C_1  and  O_2
REMARK    2  A    between atoms: O_2  and  C_3
REMARK    3  A    between atoms: C_8  and  N_9
REMARK    4  A    between atoms: C_13  and  C_15
REMARK    5  A    between atoms: C_17  and  C_18
REMARK    6  A    between atoms: C_21  and  S_22
REMARK    7  A    between atoms: S_22  and  C_23
REMARK                            x       y       z     vdW  Elec       q    Type
REMARK                         _______ _______ _______ _____ _____    ______ ____
ROOT
ATOM      1  N   UNL     1       4.104   4.222  18.962  0.00  0.00    +0.000 N 
ATOM      2  C   UNL     1       4.960   3.574  17.953  0.00  0.00    +0.000 C 
ATOM      3  C   UNL     1       5.492   4.631  16.959  0.00  0.00    +0.000 C 
ATOM      4  N   UNL     1       6.095   5.785  17.638  0.00  0.00    +0.000 N 
ATOM      5  C   UNL     1       7.093   6.490  16.967  0.00  0.00    +0.000 C 
ATOM      6  O   UNL     1       7.437   6.196  15.821  0.00  0.00    +0.000 OA
ATOM      7  C   UNL     1       5.217   6.373  18.675  0.00  0.00    +0.000 C 
ATOM      8  C   UNL     1       4.766   5.313  19.689  0.00  0.00    +0.000 C 
ENDROOT
BRANCH   1  14
ATOM      9  C   UNL     1       1.684   3.765  18.740  0.00  0.00    +0.000 A 
ATOM     10  C   UNL     1       0.531   3.141  19.247  0.00  0.00    +0.000 A 
ATOM     11  C   UNL     1       0.585   2.373  20.406  0.00  0.00    +0.000 A 
ATOM     12  C   UNL     1       1.786   2.240  21.083  0.00  0.00    +0.000 A 
ATOM     13  C   UNL     1       2.932   2.878  20.601  0.00  0.00    +0.000 A 
ATOM     14  C   UNL     1       2.924   3.655  19.426  0.00  0.00    +0.000 A 
BRANCH   9  16
ATOM     15  C   UNL     1       1.656   5.904  17.678  0.00  0.00    +0.000 C 
ATOM     16  O   UNL     1       1.659   4.485  17.564  0.00  0.00    +0.000 OA
ENDBRANCH   9  16
ENDBRANCH   1  14
BRANCH   5  17
ATOM     17  C   UNL     1       7.728   7.578  17.657  0.00  0.00    +0.000 A 
ATOM     18  C   UNL     1       7.755   8.940  17.438  0.00  0.00    +0.000 A 
ATOM     19  C   UNL     1       8.664   9.475  18.382  0.00  0.00    +0.000 A 
ATOM     20  N   UNL     1       9.056   8.525  19.245  0.00  0.00    +0.000 NA
ATOM     21  N   UNL     1       8.428   7.413  18.821  0.00  0.00    +0.000 N 
ATOM     22  H   UNL     1       8.545   6.550  19.345  0.00  0.00    +0.000 HD
BRANCH  19  23
ATOM     23  C   UNL     1       9.139  10.855  18.452  0.00  0.00    +0.000 A 
ATOM     24  C   UNL     1       8.557  11.847  17.653  0.00  0.00    +0.000 A 
ATOM     25  C   UNL     1       9.043  13.156  17.681  0.00  0.00    +0.000 A 
ATOM     26  C   UNL     1      10.105  13.477  18.529  0.00  0.00    +0.000 A 
ATOM     27  C   UNL     1      10.691  12.506  19.342  0.00  0.00    +0.000 A 
ATOM     28  C   UNL     1      10.202  11.199  19.306  0.00  0.00    +0.000 A 
BRANCH  26  29
ATOM     29  S   UNL     1      10.757  15.130  18.536  0.00  0.00    +0.000 S 
ATOM     30  C   UNL     1       9.831  15.929  19.819  0.00  0.00    +0.000 C 
ATOM     31  O   UNL     1      12.141  15.050  18.963  0.00  0.00    +0.000 OA
ATOM     32  O   UNL     1      10.403  15.745  17.272  0.00  0.00    +0.000 OA
ENDBRANCH  26  29
ENDBRANCH  19  23
ENDBRANCH   5  17
TORSDOF 5
ENDMDL
MODEL 5
REMARK VINA RESULT:      -8.0      6.857     10.305
REMARK  Name = 
REMARK  7 active torsions:
REMARK  status: ('A' for Active; 'I' for Inactive)
REMARK    1  A    between atoms: C_1  and  O_2
REMARK    2  A    between atoms: O_2  and  C_3
REMARK    3  A    between atoms: C_8  and  N_9
REMARK    4  A    between atoms: C_13  and  C_15
REMARK    5  A    between atoms: C_17  and  C_18
REMARK    6  A    between atoms: C_21  and  S_22
REMARK    7  A    between atoms: S_22  and  C_23
REMARK                            x       y       z     vdW  Elec       q    Type
REMARK                         _______ _______ _______ _____ _____    ______ ____
ROOT
ATOM      1  N   UNL     1      -1.713  12.792  22.399  0.00  0.00    +0.000 N 
ATOM      2  C   UNL     1      -2.703  12.471  21.356  0.00  0.00    +0.000 C 
ATOM      3  C   UNL     1      -1.989  12.248  20.004  0.00  0.00    +0.000 C 
ATOM      4  N   UNL     1      -0.870  11.303  20.111  0.00  0.00    +0.000 N 
ATOM      5  C   UNL     1      -0.524  10.568  18.978  0.00  0.00    +0.000 C 
ATOM      6  O   UNL     1      -1.098  10.730  17.899  0.00  0.00    +0.000 OA
ATOM      7  C   UNL     1       0.073  11.640  21.202  0.00  0.00    +0.000 C 
ATOM      8  C   UNL     1      -0.657  11.782  22.545  0.00  0.00    +0.000 C 
ENDROOT
BRANCH   1  14
ATOM      9  C   UNL     1      -1.002  14.796  23.661  0.00  0.00    +0.000 A 
ATOM     10  C   UNL     1      -1.296  15.762  24.639  0.00  0.00    +0.000 A 
ATOM     11  C   UNL     1      -2.510  15.747  25.318  0.00  0.00    +0.000 A 
ATOM     12  C   UNL     1      -3.435  14.753  25.042  0.00  0.00    +0.000 A 
ATOM     13  C   UNL     1      -3.141  13.773  24.091  0.00  0.00    +0.000 A 
ATOM     14  C   UNL     1      -1.929  13.757  23.373  0.00  0.00    +0.000 A 
BRANCH   9  16
ATOM     15  C   UNL     1       0.350  15.916  22.042  0.00  0.00    +0.000 C 
ATOM     16  O   UNL     1       0.174  14.828  22.942  0.00  0.00    +0.000 OA
ENDBRANCH   9  16
ENDBRANCH   1  14
BRANCH   5  17
ATOM     17  C   UNL     1       0.528   9.597  19.101  0.00  0.00    +0.000 A 
ATOM     18  C   UNL     1       1.586   9.251  18.286  0.00  0.00    +0.000 A 
ATOM     19  C   UNL     1       2.199   8.127  18.889  0.00  0.00    +0.000 A 
ATOM     20  N   UNL     1       1.656   7.887  20.091  0.00  0.00    +0.000 NA
ATOM     21  N   UNL     1       0.699   8.824  20.217  0.00  0.00    +0.000 N 
ATOM     22  H   UNL     1       0.159   8.868  21.077  0.00  0.00    +0.000 HD
BRANCH  19  23
ATOM     23  C   UNL     1       3.273   7.312  18.325  0.00  0.00    +0.000 A 
ATOM     24  C   UNL     1       3.711   6.159  18.991  0.00  0.00    +0.000 A 
ATOM     25  C   UNL     1       4.772   5.407  18.480  0.00  0.00    +0.000 A 
ATOM     26  C   UNL     1       5.382   5.799  17.286  0.00  0.00    +0.000 A 
ATOM     27  C   UNL     1       4.951   6.937  16.603  0.00  0.00    +0.000 A 
ATOM     28  C   UNL     1       3.894   7.686  17.121  0.00  0.00    +0.000 A 
BRANCH  26  29
ATOM     29  S   UNL     1       6.760   4.871  16.656  0.00  0.00    +0.000 S 
ATOM     30  C   UNL     1       5.988   3.592  15.702  0.00  0.00    +0.000 C 
ATOM     31  O   UNL     1       7.486   5.736  15.745  0.00  0.00    +0.000 OA
ATOM     32  O   UNL     1       7.425   4.255  17.786  0.00  0.00    +0.000 OA
ENDBRANCH  26  29
ENDBRANCH  19  23
ENDBRANCH   5  17
TORSDOF 5
ENDMDL
MODEL 6
REMARK VINA RESULT:      -7.9      6.808     11.370
REMARK  Name = 
REMARK  7 active torsions:
REMARK  status: ('A' for Active; 'I' for Inactive)
REMARK    1  A    between atoms: C_1  and  O_2
REMARK    2  A    between atoms: O_2  and  C_3
REMARK    3  A    between atoms: C_8  and  N_9
REMARK    4  A    between atoms: C_13  and  C_15
REMARK    5  A    between atoms: C_17  and  C_18
REMARK    6  A    between atoms: C_21  and  S_22
REMARK    7  A    between atoms: S_22  and  C_23
REMARK                            x       y       z     vdW  Elec       q    Type
REMARK                         _______ _______ _______ _____ _____    ______ ____
ROOT
ATOM      1  N   UNL     1       1.169  14.731  19.648  0.00  0.00    +0.000 N 
ATOM      2  C   UNL     1       1.095  14.936  21.105  0.00  0.00    +0.000 C 
ATOM      3  C   UNL     1       0.072  13.955  21.722  0.00  0.00    +0.000 C 
ATOM      4  N   UNL     1       0.300  12.568  21.299  0.00  0.00    +0.000 N 
ATOM      5  C   UNL     1      -0.102  11.548  22.160  0.00  0.00    +0.000 C 
ATOM      6  O   UNL     1      -0.678  11.785  23.223  0.00  0.00    +0.000 OA
ATOM      7  C   UNL     1       0.414  12.419  19.831  0.00  0.00    +0.000 C 
ATOM      8  C   UNL     1       1.491  13.352  19.258  0.00  0.00    +0.000 C 
ENDROOT
BRANCH   1  14
ATOM      9  C   UNL     1       0.218  16.708  18.507  0.00  0.00    +0.000 A 
ATOM     10  C   UNL     1       0.393  17.767  17.600  0.00  0.00    +0.000 A 
ATOM     11  C   UNL     1       1.606  17.953  16.943  0.00  0.00    +0.000 A 
ATOM     12  C   UNL     1       2.648  17.069  17.170  0.00  0.00    +0.000 A 
ATOM     13  C   UNL     1       2.475  15.998  18.050  0.00  0.00    +0.000 A 
ATOM     14  C   UNL     1       1.268  15.779  18.743  0.00  0.00    +0.000 A 
BRANCH   9  16
ATOM     15  C   UNL     1      -1.935  17.569  19.079  0.00  0.00    +0.000 C 
ATOM     16  O   UNL     1      -0.960  16.541  19.205  0.00  0.00    +0.000 OA
ENDBRANCH   9  16
ENDBRANCH   1  14
BRANCH   5  17
ATOM     17  C   UNL     1       0.180  10.192  21.776  0.00  0.00    +0.000 A 
ATOM     18  C   UNL     1       1.297   9.580  21.246  0.00  0.00    +0.000 A 
ATOM     19  C   UNL     1       0.919   8.248  20.957  0.00  0.00    +0.000 A 
ATOM     20  N   UNL     1      -0.311   7.997  21.430  0.00  0.00    +0.000 NA
ATOM     21  N   UNL     1      -0.702   9.166  21.971  0.00  0.00    +0.000 N 
ATOM     22  H   UNL     1      -1.607   9.219  22.430  0.00  0.00    +0.000 HD
BRANCH  19  23
ATOM     23  C   UNL     1       1.716   7.247  20.251  0.00  0.00    +0.000 A 
ATOM     24  C   UNL     1       1.798   5.935  20.735  0.00  0.00    +0.000 A 
ATOM     25  C   UNL     1       2.601   4.991  20.089  0.00  0.00    +0.000 A 
ATOM     26  C   UNL     1       3.307   5.358  18.941  0.00  0.00    +0.000 A 
ATOM     27  C   UNL     1       3.228   6.657  18.437  0.00  0.00    +0.000 A 
ATOM     28  C   UNL     1       2.428   7.596  19.089  0.00  0.00    +0.000 A 
BRANCH  26  29
ATOM     29  S   UNL     1       4.363   4.173  18.142  0.00  0.00    +0.000 S 
ATOM     30  C   UNL     1       3.313   2.760  17.940  0.00  0.00    +0.000 C 
ATOM     31  O   UNL     1       4.679   4.691  16.825  0.00  0.00    +0.000 OA
ATOM     32  O   UNL     1       5.416   3.826  19.076  0.00  0.00    +0.000 OA
ENDBRANCH  26  29
ENDBRANCH  19  23
ENDBRANCH   5  17
TORSDOF 5
ENDMDL
MODEL 7
REMARK VINA RESULT:      -7.9      7.431     10.926
REMARK  Name = 
REMARK  7 active torsions:
REMARK  status: ('A' for Active; 'I' for Inactive)
REMARK    1  A    between atoms: C_1  and  O_2
REMARK    2  A    between atoms: O_2  and  C_3
REMARK    3  A    between atoms: C_8  and  N_9
REMARK    4  A    between atoms: C_13  and  C_15
REMARK    5  A    between atoms: C_17  and  C_18
REMARK    6  A    between atoms: C_21  and  S_22
REMARK    7  A    between atoms: S_22  and  C_23
REMARK                            x       y       z     vdW  Elec       q    Type
REMARK                         _______ _______ _______ _____ _____    ______ ____
ROOT
ATOM      1  N   UNL     1      -1.703  13.397  22.448  0.00  0.00    +0.000 N 
ATOM      2  C   UNL     1      -2.860  13.023  21.616  0.00  0.00    +0.000 C 
ATOM      3  C   UNL     1      -2.457  13.022  20.125  0.00  0.00    +0.000 C 
ATOM      4  N   UNL     1      -1.235  12.247  19.876  0.00  0.00    +0.000 N 
ATOM      5  C   UNL     1      -1.073  11.668  18.617  0.00  0.00    +0.000 C 
ATOM      6  O   UNL     1      -1.897  11.834  17.716  0.00  0.00    +0.000 OA
ATOM      7  C   UNL     1      -0.114  12.626  20.766  0.00  0.00    +0.000 C 
ATOM      8  C   UNL     1      -0.525  12.545  22.243  0.00  0.00    +0.000 C 
ENDROOT
BRANCH   1  14
ATOM      9  C   UNL     1      -0.815  15.194  23.897  0.00  0.00    +0.000 A 
ATOM     10  C   UNL     1      -0.994  16.034  25.009  0.00  0.00    +0.000 A 
ATOM     11  C   UNL     1      -2.157  15.974  25.771  0.00  0.00    +0.000 A 
ATOM     12  C   UNL     1      -3.142  15.058  25.443  0.00  0.00    +0.000 A 
ATOM     13  C   UNL     1      -2.962  14.200  24.355  0.00  0.00    +0.000 A 
ATOM     14  C   UNL     1      -1.806  14.234  23.551  0.00  0.00    +0.000 A 
BRANCH   9  16
ATOM     15  C   UNL     1       0.868  16.572  22.909  0.00  0.00    +0.000 C 
ATOM     16  O   UNL     1       0.308  15.277  23.100  0.00  0.00    +0.000 OA
ENDBRANCH   9  16
ENDBRANCH   1  14
BRANCH   5  17
ATOM     17  C   UNL     1       0.091  10.856  18.395  0.00  0.00    +0.000 A 
ATOM     18  C   UNL     1       0.307   9.494  18.434  0.00  0.00    +0.000 A 
ATOM     19  C   UNL     1       1.698   9.308  18.256  0.00  0.00    +0.000 A 
ATOM     20  N   UNL     1       2.292  10.474  17.961  0.00  0.00    +0.000 NA
ATOM     21  N   UNL     1       1.291  11.373  17.990  0.00  0.00    +0.000 N 
ATOM     22  H   UNL     1       1.491  12.343  17.762  0.00  0.00    +0.000 HD
BRANCH  19  23
ATOM     23  C   UNL     1       2.432   8.050  18.366  0.00  0.00    +0.000 A 
ATOM     24  C   UNL     1       2.210   7.191  19.451  0.00  0.00    +0.000 A 
ATOM     25  C   UNL     1       2.947   6.013  19.585  0.00  0.00    +0.000 A 
ATOM     26  C   UNL     1       3.897   5.681  18.616  0.00  0.00    +0.000 A 
ATOM     27  C   UNL     1       4.125   6.517  17.522  0.00  0.00    +0.000 A 
ATOM     28  C   UNL     1       3.387   7.695  17.397  0.00  0.00    +0.000 A 
BRANCH  26  29
ATOM     29  S   UNL     1       4.869   4.206  18.804  0.00  0.00    +0.000 S 
ATOM     30  C   UNL     1       5.085   3.644  17.137  0.00  0.00    +0.000 C 
ATOM     31  O   UNL     1       6.166   4.602  19.317  0.00  0.00    +0.000 OA
ATOM     32  O   UNL     1       4.056   3.234  19.508  0.00  0.00    +0.000 OA
ENDBRANCH  26  29
ENDBRANCH  19  23
ENDBRANCH   5  17
TORSDOF 5
ENDMDL
MODEL 8
REMARK VINA RESULT:      -7.8      7.419     11.224
REMARK  Name = 
REMARK  7 active torsions:
REMARK  status: ('A' for Active; 'I' for Inactive)
REMARK    1  A    between atoms: C_1  and  O_2
REMARK    2  A    between atoms: O_2  and  C_3
REMARK    3  A    between atoms: C_8  and  N_9
REMARK    4  A    between atoms: C_13  and  C_15
REMARK    5  A    between atoms: C_17  and  C_18
REMARK    6  A    between atoms: C_21  and  S_22
REMARK    7  A    between atoms: S_22  and  C_23
REMARK                            x       y       z     vdW  Elec       q    Type
REMARK                         _______ _______ _______ _____ _____    ______ ____
ROOT
ATOM      1  N   UNL     1      -2.298  13.459  20.989  0.00  0.00    +0.000 N 
ATOM      2  C   UNL     1      -1.471  14.406  20.221  0.00  0.00    +0.000 C 
ATOM      3  C   UNL     1       0.013  13.978  20.284  0.00  0.00    +0.000 C 
ATOM      4  N   UNL     1       0.203  12.563  19.938  0.00  0.00    +0.000 N 
ATOM      5  C   UNL     1       1.426  12.184  19.387  0.00  0.00    +0.000 C 
ATOM      6  O   UNL     1       2.347  12.988  19.234  0.00  0.00    +0.000 OA
ATOM      7  C   UNL     1      -0.682  11.655  20.701  0.00  0.00    +0.000 C 
ATOM      8  C   UNL     1      -2.156  12.062  20.558  0.00  0.00    +0.000 C 
ENDROOT
BRANCH   1  14
ATOM      9  C   UNL     1      -3.239  14.024  23.206  0.00  0.00    +0.000 A 
ATOM     10  C   UNL     1      -4.338  14.466  23.963  0.00  0.00    +0.000 A 
ATOM     11  C   UNL     1      -5.545  14.790  23.351  0.00  0.00    +0.000 A 
ATOM     12  C   UNL     1      -5.673  14.655  21.978  0.00  0.00    +0.000 A 
ATOM     13  C   UNL     1      -4.595  14.191  21.220  0.00  0.00    +0.000 A 
ATOM     14  C   UNL     1      -3.353  13.862  21.797  0.00  0.00    +0.000 A 
BRANCH   9  16
ATOM     15  C   UNL     1      -1.264  14.860  24.256  0.00  0.00    +0.000 C 
ATOM     16  O   UNL     1      -2.021  13.748  23.790  0.00  0.00    +0.000 OA
ENDBRANCH   9  16
ENDBRANCH   1  14
BRANCH   5  17
ATOM     17  C   UNL     1       1.588  10.813  18.988  0.00  0.00    +0.000 A 
ATOM     18  C   UNL     1       1.454   9.617  19.663  0.00  0.00    +0.000 A 
ATOM     19  C   UNL     1       1.877   8.607  18.766  0.00  0.00    +0.000 A 
ATOM     20  N   UNL     1       2.107   9.126  17.551  0.00  0.00    +0.000 NA
ATOM     21  N   UNL     1       1.864  10.441  17.701  0.00  0.00    +0.000 N 
ATOM     22  H   UNL     1       1.940  11.053  16.893  0.00  0.00    +0.000 HD
BRANCH  19  23
ATOM     23  C   UNL     1       2.055   7.189  19.069  0.00  0.00    +0.000 A 
ATOM     24  C   UNL     1       2.515   6.305  18.084  0.00  0.00    +0.000 A 
ATOM     25  C   UNL     1       2.636   4.941  18.357  0.00  0.00    +0.000 A 
ATOM     26  C   UNL     1       2.315   4.462  19.629  0.00  0.00    +0.000 A 
ATOM     27  C   UNL     1       1.866   5.328  20.627  0.00  0.00    +0.000 A 
ATOM     28  C   UNL     1       1.743   6.690  20.346  0.00  0.00    +0.000 A 
BRANCH  26  29
ATOM     29  S   UNL     1       2.425   2.721  19.968  0.00  0.00    +0.000 S 
ATOM     30  C   UNL     1       1.798   2.587  21.620  0.00  0.00    +0.000 C 
ATOM     31  O   UNL     1       1.499   2.046  19.079  0.00  0.00    +0.000 OA
ATOM     32  O   UNL     1       3.830   2.367  19.986  0.00  0.00    +0.000 OA
ENDBRANCH  26  29
ENDBRANCH  19  23
ENDBRANCH   5  17
TORSDOF 5
ENDMDL
MODEL 9
REMARK VINA RESULT:      -7.7      7.267     11.066
REMARK  Name = 
REMARK  7 active torsions:
REMARK  status: ('A' for Active; 'I' for Inactive)
REMARK    1  A    between atoms: C_1  and  O_2
REMARK    2  A    between atoms: O_2  and  C_3
REMARK    3  A    between atoms: C_8  and  N_9
REMARK    4  A    between atoms: C_13  and  C_15
REMARK    5  A    between atoms: C_17  and  C_18
REMARK    6  A    between atoms: C_21  and  S_22
REMARK    7  A    between atoms: S_22  and  C_23
REMARK                            x       y       z     vdW  Elec       q    Type
REMARK                         _______ _______ _______ _____ _____    ______ ____
ROOT
ATOM      1  N   UNL     1      -2.311  13.088  21.136  0.00  0.00    +0.000 N 
ATOM      2  C   UNL     1      -1.751  14.024  20.146  0.00  0.00    +0.000 C 
ATOM      3  C   UNL     1      -0.234  13.779  19.991  0.00  0.00    +0.000 C 
ATOM      4  N   UNL     1       0.085  12.364  19.760  0.00  0.00    +0.000 N 
ATOM      5  C   UNL     1       1.243  12.063  19.044  0.00  0.00    +0.000 C 
ATOM      6  O   UNL     1       2.012  12.943  18.654  0.00  0.00    +0.000 OA
ATOM      7  C   UNL     1      -0.537  11.459  20.751  0.00  0.00    +0.000 C 
ATOM      8  C   UNL     1      -2.055  11.675  20.828  0.00  0.00    +0.000 C 
ENDROOT
BRANCH   1  14
ATOM      9  C   UNL     1      -2.941  13.984  23.354  0.00  0.00    +0.000 A 
ATOM     10  C   UNL     1      -3.957  14.374  24.243  0.00  0.00    +0.000 A 
ATOM     11  C   UNL     1      -5.297  14.294  23.878  0.00  0.00    +0.000 A 
ATOM     12  C   UNL     1      -5.637  13.803  22.628  0.00  0.00    +0.000 A 
ATOM     13  C   UNL     1      -4.635  13.388  21.746  0.00  0.00    +0.000 A 
ATOM     14  C   UNL     1      -3.267  13.462  22.072  0.00  0.00    +0.000 A 
BRANCH   9  16
ATOM     15  C   UNL     1      -1.267  15.098  24.643  0.00  0.00    +0.000 C 
ATOM     16  O   UNL     1      -1.607  14.106  23.680  0.00  0.00    +0.000 OA
ENDBRANCH   9  16
ENDBRANCH   1  14
BRANCH   5  17
ATOM     17  C   UNL     1       1.520  10.682  18.762  0.00  0.00    +0.000 A 
ATOM     18  C   UNL     1       1.273   9.514  19.453  0.00  0.00    +0.000 A 
ATOM     19  C   UNL     1       1.903   8.480  18.721  0.00  0.00    +0.000 A 
ATOM     20  N   UNL     1       2.376   8.950  17.558  0.00  0.00    +0.000 NA
ATOM     21  N   UNL     1       2.074  10.262  17.584  0.00  0.00    +0.000 N 
ATOM     22  H   UNL     1       2.308  10.838  16.780  0.00  0.00    +0.000 HD
BRANCH  19  23
ATOM     23  C   UNL     1       2.045   7.084  19.129  0.00  0.00    +0.000 A 
ATOM     24  C   UNL     1       1.767   6.698  20.447  0.00  0.00    +0.000 A 
ATOM     25  C   UNL     1       1.952   5.374  20.851  0.00  0.00    +0.000 A 
ATOM     26  C   UNL     1       2.396   4.427  19.925  0.00  0.00    +0.000 A 
ATOM     27  C   UNL     1       2.667   4.790  18.605  0.00  0.00    +0.000 A 
ATOM     28  C   UNL     1       2.485   6.115  18.209  0.00  0.00    +0.000 A 
BRANCH  26  29
ATOM     29  S   UNL     1       2.675   2.751  20.445  0.00  0.00    +0.000 S 
ATOM     30  C   UNL     1       4.319   2.415  19.875  0.00  0.00    +0.000 C 
ATOM     31  O   UNL     1       2.692   2.743  21.896  0.00  0.00    +0.000 OA
ATOM     32  O   UNL     1       1.757   1.906  19.708  0.00  0.00    +0.000 OA
ENDBRANCH  26  29
ENDBRANCH  19  23
ENDBRANCH   5  17
TORSDOF 5
ENDMDL
