MODEL 1
REMARK VINA RESULT:      -7.5      0.000      0.000
REMARK  Name = 
REMARK  6 active torsions:
REMARK  status: ('A' for Active; 'I' for Inactive)
REMARK    1  A    between atoms: C_2  and  C_3
REMARK    2  A    between atoms: C_3  and  N_4
REMARK    3  A    between atoms: C_5  and  C_7
REMARK    4  A    between atoms: C_25  and  C_26
REMARK    5  A    between atoms: C_30  and  O_31
REMARK    6  A    between atoms: O_31  and  C_32
REMARK                            x       y       z     vdW  Elec       q    Type
REMARK                         _______ _______ _______ _____ _____    ______ ____
ROOT
ATOM      1  C   UNL     1       0.259  10.034  18.302  0.00  0.00    +0.000 A 
ATOM      2  C   UNL     1      -0.922   9.792  17.560  0.00  0.00    +0.000 A 
ATOM      3  C   UNL     1      -2.103  10.524  17.802  0.00  0.00    +0.000 A 
ATOM      4  C   UNL     1      -2.086  11.515  18.773  0.00  0.00    +0.000 A 
ATOM      5  C   UNL     1      -0.900  11.759  19.451  0.00  0.00    +0.000 A 
ATOM      6  C   UNL     1       0.276  11.056  19.254  0.00  0.00    +0.000 A 
ATOM      7  C   UNL     1      -1.157  12.839  20.386  0.00  0.00    +0.000 C 
ATOM      8  O   UNL     1      -0.336  13.351  21.116  0.00  0.00    +0.000 OA
ATOM      9  C   UNL     1      -2.595  13.176  20.267  0.00  0.00    +0.000 C 
ATOM     10  C   UNL     1      -3.135  12.395  19.310  0.00  0.00    +0.000 C 
ATOM     11  N   UNL     1      -4.436  12.298  18.882  0.00  0.00    +0.000 N 
ATOM     12  C   UNL     1      -5.547  12.381  19.758  0.00  0.00    +0.000 A 
ATOM     13  C   UNL     1      -6.364  11.247  19.923  0.00  0.00    +0.000 A 
ATOM     14  C   UNL     1      -7.433  11.251  20.828  0.00  0.00    +0.000 A 
ATOM     15  C   UNL     1      -7.711  12.397  21.567  0.00  0.00    +0.000 A 
ATOM     16  C   UNL     1      -6.904  13.523  21.431  0.00  0.00    +0.000 A 
ATOM     17  C   UNL     1      -5.796  13.510  20.563  0.00  0.00    +0.000 A 
ATOM     18  S   UNL     1      -4.745  14.958  20.514  0.00  0.00    +0.000 S 
ATOM     19  C   UNL     1      -3.165  14.237  21.146  0.00  0.00    +0.000 C 
ATOM     20  H   UNL     1      -4.597  11.697  18.082  0.00  0.00    +0.000 HD
ENDROOT
BRANCH  19  21
ATOM     21  C   UNL     1      -3.303  13.841  22.612  0.00  0.00    +0.000 A 
ATOM     22  C   UNL     1      -3.888  12.627  23.010  0.00  0.00    +0.000 A 
ATOM     23  C   UNL     1      -4.118  12.356  24.357  0.00  0.00    +0.000 A 
ATOM     24  C   UNL     1      -3.762  13.294  25.324  0.00  0.00    +0.000 A 
ATOM     25  C   UNL     1      -3.142  14.490  24.958  0.00  0.00    +0.000 A 
ATOM     26  C   UNL     1      -2.904  14.753  23.608  0.00  0.00    +0.000 A 
BRANCH  25  27
ATOM     27  O   UNL     1      -2.840  15.322  26.001  0.00  0.00    +0.000 OA
ATOM     28  C   UNL     1      -1.524  15.860  26.026  0.00  0.00    +0.000 C 
ENDBRANCH  25  27
ENDBRANCH  19  21
BRANCH   1  30
ATOM     29  N   UNL     1       1.613   8.047  18.776  0.00  0.00    +0.000 N 
ATOM     30  C   UNL     1       1.480   9.206  18.042  0.00  0.00    +0.000 C 
ATOM     31  O   UNL     1       2.281   9.560  17.180  0.00  0.00    +0.000 OA
ATOM     32  H   UNL     1       0.845   7.699  19.329  0.00  0.00    +0.000 HD
BRANCH  29  33
ATOM     33  C   UNL     1       2.737   7.159  18.564  0.00  0.00    +0.000 C 
BRANCH  33  35
ATOM     34  C   UNL     1       1.875   4.558  17.879  0.00  0.00    +0.000 C 
ATOM     35  C   UNL     1       2.274   5.759  18.196  0.00  0.00    +0.000 C 
ENDBRANCH  33  35
ENDBRANCH  29  33
ENDBRANCH   1  30
TORSDOF 5
ENDMDL
MODEL 2
REMARK VINA RESULT:      -6.9      3.891      6.378
REMARK  Name = 
REMARK  6 active torsions:
REMARK  status: ('A' for Active; 'I' for Inactive)
REMARK    1  A    between atoms: C_2  and  C_3
REMARK    2  A    between atoms: C_3  and  N_4
REMARK    3  A    between atoms: C_5  and  C_7
REMARK    4  A    between atoms: C_25  and  C_26
REMARK    5  A    between atoms: C_30  and  O_31
REMARK    6  A    between atoms: O_31  and  C_32
REMARK                            x       y       z     vdW  Elec       q    Type
REMARK                         _______ _______ _______ _____ _____    ______ ____
ROOT
ATOM      1  C   UNL     1      -3.489  10.558  15.505  0.00  0.00    +0.000 A 
ATOM      2  C   UNL     1      -2.254  10.663  16.191  0.00  0.00    +0.000 A 
ATOM      3  C   UNL     1      -2.185  11.165  17.507  0.00  0.00    +0.000 A 
ATOM      4  C   UNL     1      -3.362  11.537  18.140  0.00  0.00    +0.000 A 
ATOM      5  C   UNL     1      -4.561  11.379  17.459  0.00  0.00    +0.000 A 
ATOM      6  C   UNL     1      -4.671  10.904  16.164  0.00  0.00    +0.000 A 
ATOM      7  C   UNL     1      -5.619  11.826  18.347  0.00  0.00    +0.000 C 
ATOM      8  O   UNL     1      -6.806  11.791  18.104  0.00  0.00    +0.000 OA
ATOM      9  C   UNL     1      -4.963  12.326  19.578  0.00  0.00    +0.000 C 
ATOM     10  C   UNL     1      -3.633  12.146  19.451  0.00  0.00    +0.000 C 
ATOM     11  N   UNL     1      -2.612  12.500  20.298  0.00  0.00    +0.000 N 
ATOM     12  C   UNL     1      -2.606  13.707  21.042  0.00  0.00    +0.000 A 
ATOM     13  C   UNL     1      -1.625  14.674  20.755  0.00  0.00    +0.000 A 
ATOM     14  C   UNL     1      -1.615  15.912  21.409  0.00  0.00    +0.000 A 
ATOM     15  C   UNL     1      -2.577  16.192  22.375  0.00  0.00    +0.000 A 
ATOM     16  C   UNL     1      -3.567  15.256  22.661  0.00  0.00    +0.000 A 
ATOM     17  C   UNL     1      -3.615  14.031  21.969  0.00  0.00    +0.000 A 
ATOM     18  S   UNL     1      -4.973  12.919  22.318  0.00  0.00    +0.000 S 
ATOM     19  C   UNL     1      -5.806  12.893  20.668  0.00  0.00    +0.000 C 
ATOM     20  H   UNL     1      -1.685  12.186  20.033  0.00  0.00    +0.000 HD
ENDROOT
BRANCH  19  21
ATOM     21  C   UNL     1      -6.419  14.254  20.354  0.00  0.00    +0.000 A 
ATOM     22  C   UNL     1      -7.269  14.921  21.254  0.00  0.00    +0.000 A 
ATOM     23  C   UNL     1      -7.915  16.097  20.883  0.00  0.00    +0.000 A 
ATOM     24  C   UNL     1      -7.718  16.624  19.608  0.00  0.00    +0.000 A 
ATOM     25  C   UNL     1      -6.848  16.004  18.710  0.00  0.00    +0.000 A 
ATOM     26  C   UNL     1      -6.194  14.831  19.090  0.00  0.00    +0.000 A 
BRANCH  25  27
ATOM     27  O   UNL     1      -6.739  16.624  17.495  0.00  0.00    +0.000 OA
ATOM     28  C   UNL     1      -7.152  15.876  16.359  0.00  0.00    +0.000 C 
ENDBRANCH  25  27
ENDBRANCH  19  21
BRANCH   1  30
ATOM     29  N   UNL     1      -4.746   9.980  13.484  0.00  0.00    +0.000 N 
ATOM     30  C   UNL     1      -3.513  10.059  14.093  0.00  0.00    +0.000 C 
ATOM     31  O   UNL     1      -2.457   9.779  13.530  0.00  0.00    +0.000 OA
ATOM     32  H   UNL     1      -5.558  10.396  13.912  0.00  0.00    +0.000 HD
BRANCH  29  33
ATOM     33  C   UNL     1      -4.866   9.550  12.105  0.00  0.00    +0.000 C 
BRANCH  33  35
ATOM     34  C   UNL     1      -7.428  10.131  11.070  0.00  0.00    +0.000 C 
ATOM     35  C   UNL     1      -6.245   9.862  11.548  0.00  0.00    +0.000 C 
ENDBRANCH  33  35
ENDBRANCH  29  33
ENDBRANCH   1  30
TORSDOF 5
ENDMDL
MODEL 3
REMARK VINA RESULT:      -6.9      9.351     12.875
REMARK  Name = 
REMARK  6 active torsions:
REMARK  status: ('A' for Active; 'I' for Inactive)
REMARK    1  A    between atoms: C_2  and  C_3
REMARK    2  A    between atoms: C_3  and  N_4
REMARK    3  A    between atoms: C_5  and  C_7
REMARK    4  A    between atoms: C_25  and  C_26
REMARK    5  A    between atoms: C_30  and  O_31
REMARK    6  A    between atoms: O_31  and  C_32
REMARK                            x       y       z     vdW  Elec       q    Type
REMARK                         _______ _______ _______ _____ _____    ______ ____
ROOT
ATOM      1  C   UNL     1       3.935  15.271  18.587  0.00  0.00    +0.000 A 
ATOM      2  C   UNL     1       4.249  16.588  19.001  0.00  0.00    +0.000 A 
ATOM      3  C   UNL     1       5.575  17.066  18.984  0.00  0.00    +0.000 A 
ATOM      4  C   UNL     1       6.581  16.226  18.528  0.00  0.00    +0.000 A 
ATOM      5  C   UNL     1       6.235  14.957  18.087  0.00  0.00    +0.000 A 
ATOM      6  C   UNL     1       4.949  14.444  18.098  0.00  0.00    +0.000 A 
ATOM      7  C   UNL     1       7.460  14.306  17.658  0.00  0.00    +0.000 C 
ATOM      8  O   UNL     1       7.537  13.199  17.169  0.00  0.00    +0.000 OA
ATOM      9  C   UNL     1       8.568  15.249  17.938  0.00  0.00    +0.000 C 
ATOM     10  C   UNL     1       8.041  16.381  18.446  0.00  0.00    +0.000 C 
ATOM     11  N   UNL     1       8.666  17.512  18.909  0.00  0.00    +0.000 N 
ATOM     12  C   UNL     1       9.880  17.482  19.639  0.00  0.00    +0.000 A 
ATOM     13  C   UNL     1       9.875  17.910  20.980  0.00  0.00    +0.000 A 
ATOM     14  C   UNL     1      11.029  17.836  21.769  0.00  0.00    +0.000 A 
ATOM     15  C   UNL     1      12.213  17.349  21.220  0.00  0.00    +0.000 A 
ATOM     16  C   UNL     1      12.234  16.904  19.901  0.00  0.00    +0.000 A 
ATOM     17  C   UNL     1      11.065  16.926  19.118  0.00  0.00    +0.000 A 
ATOM     18  S   UNL     1      11.144  16.247  17.465  0.00  0.00    +0.000 S 
ATOM     19  C   UNL     1       9.967  14.832  17.636  0.00  0.00    +0.000 C 
ATOM     20  H   UNL     1       8.058  18.281  19.170  0.00  0.00    +0.000 HD
ENDROOT
BRANCH  19  21
ATOM     21  C   UNL     1      10.532  13.773  18.576  0.00  0.00    +0.000 A 
ATOM     22  C   UNL     1      11.572  12.908  18.195  0.00  0.00    +0.000 A 
ATOM     23  C   UNL     1      11.973  11.868  19.029  0.00  0.00    +0.000 A 
ATOM     24  C   UNL     1      11.342  11.680  20.258  0.00  0.00    +0.000 A 
ATOM     25  C   UNL     1      10.334  12.550  20.678  0.00  0.00    +0.000 A 
ATOM     26  C   UNL     1       9.942  13.597  19.843  0.00  0.00    +0.000 A 
BRANCH  25  27
ATOM     27  O   UNL     1       9.800  12.260  21.903  0.00  0.00    +0.000 OA
ATOM     28  C   UNL     1       8.809  13.153  22.394  0.00  0.00    +0.000 C 
ENDBRANCH  25  27
ENDBRANCH  19  21
BRANCH   1  30
ATOM     29  N   UNL     1       2.325  13.424  18.636  0.00  0.00    +0.000 N 
ATOM     30  C   UNL     1       2.518  14.788  18.660  0.00  0.00    +0.000 C 
ATOM     31  O   UNL     1       1.605  15.603  18.771  0.00  0.00    +0.000 OA
ATOM     32  H   UNL     1       3.105  12.793  18.737  0.00  0.00    +0.000 HD
BRANCH  29  33
ATOM     33  C   UNL     1       0.995  12.862  18.746  0.00  0.00    +0.000 C 
BRANCH  33  35
ATOM     34  C   UNL     1       1.071  10.039  18.779  0.00  0.00    +0.000 C 
ATOM     35  C   UNL     1       1.037  11.343  18.763  0.00  0.00    +0.000 C 
ENDBRANCH  33  35
ENDBRANCH  29  33
ENDBRANCH   1  30
TORSDOF 5
ENDMDL
MODEL 4
REMARK VINA RESULT:      -6.9      2.491      4.138
REMARK  Name = 
REMARK  6 active torsions:
REMARK  status: ('A' for Active; 'I' for Inactive)
REMARK    1  A    between atoms: C_2  and  C_3
REMARK    2  A    between atoms: C_3  and  N_4
REMARK    3  A    between atoms: C_5  and  C_7
REMARK    4  A    between atoms: C_25  and  C_26
REMARK    5  A    between atoms: C_30  and  O_31
REMARK    6  A    between atoms: O_31  and  C_32
REMARK                            x       y       z     vdW  Elec       q    Type
REMARK                         _______ _______ _______ _____ _____    ______ ____
ROOT
ATOM      1  C   UNL     1       1.251  10.055  19.497  0.00  0.00    +0.000 A 
ATOM      2  C   UNL     1       1.685  11.302  18.987  0.00  0.00    +0.000 A 
ATOM      3  C   UNL     1       1.292  12.518  19.585  0.00  0.00    +0.000 A 
ATOM      4  C   UNL     1       0.482  12.475  20.710  0.00  0.00    +0.000 A 
ATOM      5  C   UNL     1       0.111  11.236  21.214  0.00  0.00    +0.000 A 
ATOM      6  C   UNL     1       0.464  10.022  20.651  0.00  0.00    +0.000 A 
ATOM      7  C   UNL     1      -0.711  11.480  22.386  0.00  0.00    +0.000 C 
ATOM      8  O   UNL     1      -1.177  10.628  23.111  0.00  0.00    +0.000 OA
ATOM      9  C   UNL     1      -0.861  12.950  22.506  0.00  0.00    +0.000 C 
ATOM     10  C   UNL     1      -0.150  13.529  21.518  0.00  0.00    +0.000 C 
ATOM     11  N   UNL     1      -0.027  14.855  21.183  0.00  0.00    +0.000 N 
ATOM     12  C   UNL     1      -1.102  15.775  21.256  0.00  0.00    +0.000 A 
ATOM     13  C   UNL     1      -1.584  16.350  20.064  0.00  0.00    +0.000 A 
ATOM     14  C   UNL     1      -2.688  17.210  20.070  0.00  0.00    +0.000 A 
ATOM     15  C   UNL     1      -3.317  17.523  21.272  0.00  0.00    +0.000 A 
ATOM     16  C   UNL     1      -2.867  16.951  22.459  0.00  0.00    +0.000 A 
ATOM     17  C   UNL     1      -1.791  16.044  22.455  0.00  0.00    +0.000 A 
ATOM     18  S   UNL     1      -1.332  15.272  24.003  0.00  0.00    +0.000 S 
ATOM     19  C   UNL     1      -1.698  13.504  23.608  0.00  0.00    +0.000 C 
ATOM     20  H   UNL     1       0.636  15.068  20.446  0.00  0.00    +0.000 HD
ENDROOT
BRANCH  19  21
ATOM     21  C   UNL     1      -3.198  13.290  23.435  0.00  0.00    +0.000 A 
ATOM     22  C   UNL     1      -4.058  13.087  24.528  0.00  0.00    +0.000 A 
ATOM     23  C   UNL     1      -5.398  12.764  24.327  0.00  0.00    +0.000 A 
ATOM     24  C   UNL     1      -5.897  12.644  23.031  0.00  0.00    +0.000 A 
ATOM     25  C   UNL     1      -5.074  12.882  21.929  0.00  0.00    +0.000 A 
ATOM     26  C   UNL     1      -3.734  13.215  22.135  0.00  0.00    +0.000 A 
BRANCH  25  27
ATOM     27  O   UNL     1      -5.685  12.736  20.714  0.00  0.00    +0.000 OA
ATOM     28  C   UNL     1      -6.665  11.711  20.613  0.00  0.00    +0.000 C 
ENDBRANCH  25  27
ENDBRANCH  19  21
BRANCH   1  30
ATOM     29  N   UNL     1       2.094   7.758  19.611  0.00  0.00    +0.000 N 
ATOM     30  C   UNL     1       1.658   8.789  18.808  0.00  0.00    +0.000 C 
ATOM     31  O   UNL     1       1.556   8.704  17.586  0.00  0.00    +0.000 OA
ATOM     32  H   UNL     1       1.981   7.802  20.611  0.00  0.00    +0.000 HD
BRANCH  29  33
ATOM     33  C   UNL     1       2.467   6.480  19.039  0.00  0.00    +0.000 C 
BRANCH  33  35
ATOM     34  C   UNL     1       1.615   4.337  20.669  0.00  0.00    +0.000 C 
ATOM     35  C   UNL     1       2.008   5.327  19.916  0.00  0.00    +0.000 C 
ENDBRANCH  33  35
ENDBRANCH  29  33
ENDBRANCH   1  30
TORSDOF 5
ENDMDL
MODEL 5
REMARK VINA RESULT:      -6.8      9.301     13.137
REMARK  Name = 
REMARK  6 active torsions:
REMARK  status: ('A' for Active; 'I' for Inactive)
REMARK    1  A    between atoms: C_2  and  C_3
REMARK    2  A    between atoms: C_3  and  N_4
REMARK    3  A    between atoms: C_5  and  C_7
REMARK    4  A    between atoms: C_25  and  C_26
REMARK    5  A    between atoms: C_30  and  O_31
REMARK    6  A    between atoms: O_31  and  C_32
REMARK                            x       y       z     vdW  Elec       q    Type
REMARK                         _______ _______ _______ _____ _____    ______ ____
ROOT
ATOM      1  C   UNL     1       3.792  15.476  18.623  0.00  0.00    +0.000 A 
ATOM      2  C   UNL     1       4.176  16.757  19.086  0.00  0.00    +0.000 A 
ATOM      3  C   UNL     1       5.529  17.157  19.103  0.00  0.00    +0.000 A 
ATOM      4  C   UNL     1       6.490  16.276  18.631  0.00  0.00    +0.000 A 
ATOM      5  C   UNL     1       6.077  15.044  18.141  0.00  0.00    +0.000 A 
ATOM      6  C   UNL     1       4.764  14.608  18.119  0.00  0.00    +0.000 A 
ATOM      7  C   UNL     1       7.268  14.337  17.705  0.00  0.00    +0.000 C 
ATOM      8  O   UNL     1       7.287  13.245  17.179  0.00  0.00    +0.000 OA
ATOM      9  C   UNL     1       8.425  15.204  18.032  0.00  0.00    +0.000 C 
ATOM     10  C   UNL     1       7.958  16.346  18.572  0.00  0.00    +0.000 C 
ATOM     11  N   UNL     1       8.641  17.423  19.082  0.00  0.00    +0.000 N 
ATOM     12  C   UNL     1       9.841  17.297  19.826  0.00  0.00    +0.000 A 
ATOM     13  C   UNL     1       9.841  17.679  21.181  0.00  0.00    +0.000 A 
ATOM     14  C   UNL     1      10.978  17.510  21.981  0.00  0.00    +0.000 A 
ATOM     15  C   UNL     1      12.138  16.973  21.430  0.00  0.00    +0.000 A 
ATOM     16  C   UNL     1      12.153  16.573  20.097  0.00  0.00    +0.000 A 
ATOM     17  C   UNL     1      10.999  16.690  19.301  0.00  0.00    +0.000 A 
ATOM     18  S   UNL     1      11.062  16.064  17.626  0.00  0.00    +0.000 S 
ATOM     19  C   UNL     1       9.802  14.716  17.733  0.00  0.00    +0.000 C 
ATOM     20  H   UNL     1       8.075  18.217  19.362  0.00  0.00    +0.000 HD
ENDROOT
BRANCH  19  21
ATOM     21  C   UNL     1      10.290  13.594  18.643  0.00  0.00    +0.000 A 
ATOM     22  C   UNL     1      11.400  12.794  18.320  0.00  0.00    +0.000 A 
ATOM     23  C   UNL     1      11.738  11.696  19.107  0.00  0.00    +0.000 A 
ATOM     24  C   UNL     1      10.973  11.385  20.229  0.00  0.00    +0.000 A 
ATOM     25  C   UNL     1       9.890  12.187  20.596  0.00  0.00    +0.000 A 
ATOM     26  C   UNL     1       9.562  13.292  19.810  0.00  0.00    +0.000 A 
BRANCH  25  27
ATOM     27  O   UNL     1       9.226  11.776  21.718  0.00  0.00    +0.000 OA
ATOM     28  C   UNL     1       8.884  12.784  22.661  0.00  0.00    +0.000 C 
ENDBRANCH  25  27
ENDBRANCH  19  21
BRANCH   1  30
ATOM     29  N   UNL     1       1.423  16.095  18.698  0.00  0.00    +0.000 N 
ATOM     30  C   UNL     1       2.349  15.075  18.661  0.00  0.00    +0.000 C 
ATOM     31  O   UNL     1       2.049  13.885  18.621  0.00  0.00    +0.000 OA
ATOM     32  H   UNL     1       1.703  17.050  18.537  0.00  0.00    +0.000 HD
BRANCH  29  33
ATOM     33  C   UNL     1       0.003  15.807  18.691  0.00  0.00    +0.000 C 
BRANCH  33  35
ATOM     34  C   UNL     1      -1.518  18.148  18.271  0.00  0.00    +0.000 C 
ATOM     35  C   UNL     1      -0.815  17.067  18.465  0.00  0.00    +0.000 C 
ENDBRANCH  33  35
ENDBRANCH  29  33
ENDBRANCH   1  30
TORSDOF 5
ENDMDL
MODEL 6
REMARK VINA RESULT:      -6.8      2.452      3.973
REMARK  Name = 
REMARK  6 active torsions:
REMARK  status: ('A' for Active; 'I' for Inactive)
REMARK    1  A    between atoms: C_2  and  C_3
REMARK    2  A    between atoms: C_3  and  N_4
REMARK    3  A    between atoms: C_5  and  C_7
REMARK    4  A    between atoms: C_25  and  C_26
REMARK    5  A    between atoms: C_30  and  O_31
REMARK    6  A    between atoms: O_31  and  C_32
REMARK                            x       y       z     vdW  Elec       q    Type
REMARK                         _______ _______ _______ _____ _____    ______ ____
ROOT
ATOM      1  C   UNL     1       1.644   9.886  19.018  0.00  0.00    +0.000 A 
ATOM      2  C   UNL     1       2.140  11.157  18.641  0.00  0.00    +0.000 A 
ATOM      3  C   UNL     1       1.720  12.333  19.296  0.00  0.00    +0.000 A 
ATOM      4  C   UNL     1       0.819  12.226  20.345  0.00  0.00    +0.000 A 
ATOM      5  C   UNL     1       0.385  10.961  20.720  0.00  0.00    +0.000 A 
ATOM      6  C   UNL     1       0.762   9.785  20.097  0.00  0.00    +0.000 A 
ATOM      7  C   UNL     1      -0.527  11.137  21.836  0.00  0.00    +0.000 C 
ATOM      8  O   UNL     1      -1.066  10.244  22.454  0.00  0.00    +0.000 OA
ATOM      9  C   UNL     1      -0.661  12.596  22.056  0.00  0.00    +0.000 C 
ATOM     10  C   UNL     1       0.139  13.231  21.177  0.00  0.00    +0.000 C 
ATOM     11  N   UNL     1       0.314  14.575  20.955  0.00  0.00    +0.000 N 
ATOM     12  C   UNL     1      -0.748  15.512  21.010  0.00  0.00    +0.000 A 
ATOM     13  C   UNL     1      -1.119  16.186  19.830  0.00  0.00    +0.000 A 
ATOM     14  C   UNL     1      -2.205  17.069  19.811  0.00  0.00    +0.000 A 
ATOM     15  C   UNL     1      -2.926  17.306  20.978  0.00  0.00    +0.000 A 
ATOM     16  C   UNL     1      -2.587  16.636  22.151  0.00  0.00    +0.000 A 
ATOM     17  C   UNL     1      -1.530  15.707  22.166  0.00  0.00    +0.000 A 
ATOM     18  S   UNL     1      -1.215  14.811  23.682  0.00  0.00    +0.000 S 
ATOM     19  C   UNL     1      -1.577  13.086  23.124  0.00  0.00    +0.000 C 
ATOM     20  H   UNL     1       1.039  14.826  20.293  0.00  0.00    +0.000 HD
ENDROOT
BRANCH  19  21
ATOM     21  C   UNL     1      -3.061  12.922  22.814  0.00  0.00    +0.000 A 
ATOM     22  C   UNL     1      -3.552  12.870  21.498  0.00  0.00    +0.000 A 
ATOM     23  C   UNL     1      -4.922  12.853  21.250  0.00  0.00    +0.000 A 
ATOM     24  C   UNL     1      -5.820  12.883  22.315  0.00  0.00    +0.000 A 
ATOM     25  C   UNL     1      -5.360  12.892  23.633  0.00  0.00    +0.000 A 
ATOM     26  C   UNL     1      -3.985  12.900  23.876  0.00  0.00    +0.000 A 
BRANCH  25  27
ATOM     27  O   UNL     1      -6.342  12.917  24.584  0.00  0.00    +0.000 OA
ATOM     28  C   UNL     1      -7.620  13.378  24.168  0.00  0.00    +0.000 C 
ENDBRANCH  25  27
ENDBRANCH  19  21
BRANCH   1  30
ATOM     29  N   UNL     1       2.232   7.508  19.001  0.00  0.00    +0.000 N 
ATOM     30  C   UNL     1       2.085   8.665  18.269  0.00  0.00    +0.000 C 
ATOM     31  O   UNL     1       2.259   8.729  17.055  0.00  0.00    +0.000 OA
ATOM     32  H   UNL     1       1.897   7.453  19.950  0.00  0.00    +0.000 HD
BRANCH  29  33
ATOM     33  C   UNL     1       2.612   6.266  18.358  0.00  0.00    +0.000 C 
BRANCH  33  35
ATOM     34  C   UNL     1       1.419   4.044  19.627  0.00  0.00    +0.000 C 
ATOM     35  C   UNL     1       1.971   5.071  19.041  0.00  0.00    +0.000 C 
ENDBRANCH  33  35
ENDBRANCH  29  33
ENDBRANCH   1  30
TORSDOF 5
ENDMDL
MODEL 7
REMARK VINA RESULT:      -6.7      2.480      4.161
REMARK  Name = 
REMARK  6 active torsions:
REMARK  status: ('A' for Active; 'I' for Inactive)
REMARK    1  A    between atoms: C_2  and  C_3
REMARK    2  A    between atoms: C_3  and  N_4
REMARK    3  A    between atoms: C_5  and  C_7
REMARK    4  A    between atoms: C_25  and  C_26
REMARK    5  A    between atoms: C_30  and  O_31
REMARK    6  A    between atoms: O_31  and  C_32
REMARK                            x       y       z     vdW  Elec       q    Type
REMARK                         _______ _______ _______ _____ _____    ______ ____
ROOT
ATOM      1  C   UNL     1       1.209  10.068  19.337  0.00  0.00    +0.000 A 
ATOM      2  C   UNL     1       1.649  11.323  18.853  0.00  0.00    +0.000 A 
ATOM      3  C   UNL     1       1.279  12.526  19.490  0.00  0.00    +0.000 A 
ATOM      4  C   UNL     1       0.487  12.462  20.627  0.00  0.00    +0.000 A 
ATOM      5  C   UNL     1       0.110  11.214  21.103  0.00  0.00    +0.000 A 
ATOM      6  C   UNL     1       0.440  10.012  20.502  0.00  0.00    +0.000 A 
ATOM      7  C   UNL     1      -0.690  11.435  22.294  0.00  0.00    +0.000 C 
ATOM      8  O   UNL     1      -1.154  10.569  23.004  0.00  0.00    +0.000 OA
ATOM      9  C   UNL     1      -0.822  12.903  22.456  0.00  0.00    +0.000 C 
ATOM     10  C   UNL     1      -0.121  13.501  21.473  0.00  0.00    +0.000 C 
ATOM     11  N   UNL     1       0.012  14.834  21.171  0.00  0.00    +0.000 N 
ATOM     12  C   UNL     1      -1.052  15.763  21.287  0.00  0.00    +0.000 A 
ATOM     13  C   UNL     1      -1.545  16.375  20.119  0.00  0.00    +0.000 A 
ATOM     14  C   UNL     1      -2.640  17.247  20.165  0.00  0.00    +0.000 A 
ATOM     15  C   UNL     1      -3.246  17.533  21.386  0.00  0.00    +0.000 A 
ATOM     16  C   UNL     1      -2.784  16.925  22.549  0.00  0.00    +0.000 A 
ATOM     17  C   UNL     1      -1.718  16.007  22.504  0.00  0.00    +0.000 A 
ATOM     18  S   UNL     1      -1.243  15.189  24.023  0.00  0.00    +0.000 S 
ATOM     19  C   UNL     1      -1.635  13.436  23.586  0.00  0.00    +0.000 C 
ATOM     20  H   UNL     1       0.665  15.059  20.429  0.00  0.00    +0.000 HD
ENDROOT
BRANCH  19  21
ATOM     21  C   UNL     1      -3.140  13.243  23.432  0.00  0.00    +0.000 A 
ATOM     22  C   UNL     1      -3.991  13.062  24.536  0.00  0.00    +0.000 A 
ATOM     23  C   UNL     1      -5.337  12.758  24.353  0.00  0.00    +0.000 A 
ATOM     24  C   UNL     1      -5.852  12.634  23.064  0.00  0.00    +0.000 A 
ATOM     25  C   UNL     1      -5.038  12.849  21.950  0.00  0.00    +0.000 A 
ATOM     26  C   UNL     1      -3.691  13.164  22.139  0.00  0.00    +0.000 A 
BRANCH  25  27
ATOM     27  O   UNL     1      -5.665  12.701  20.744  0.00  0.00    +0.000 OA
ATOM     28  C   UNL     1      -6.830  11.887  20.727  0.00  0.00    +0.000 C 
ENDBRANCH  25  27
ENDBRANCH  19  21
BRANCH   1  30
ATOM     29  N   UNL     1       2.176   7.817  19.354  0.00  0.00    +0.000 N 
ATOM     30  C   UNL     1       1.591   8.817  18.607  0.00  0.00    +0.000 C 
ATOM     31  O   UNL     1       1.343   8.714  17.409  0.00  0.00    +0.000 OA
ATOM     32  H   UNL     1       2.186   7.866  20.360  0.00  0.00    +0.000 HD
BRANCH  29  33
ATOM     33  C   UNL     1       2.539   6.553  18.745  0.00  0.00    +0.000 C 
BRANCH  33  35
ATOM     34  C   UNL     1       4.852   6.809  17.145  0.00  0.00    +0.000 C 
ATOM     35  C   UNL     1       3.784   6.692  17.885  0.00  0.00    +0.000 C 
ENDBRANCH  33  35
ENDBRANCH  29  33
ENDBRANCH   1  30
TORSDOF 5
ENDMDL
MODEL 8
REMARK VINA RESULT:      -6.7      3.842      5.786
REMARK  Name = 
REMARK  6 active torsions:
REMARK  status: ('A' for Active; 'I' for Inactive)
REMARK    1  A    between atoms: C_2  and  C_3
REMARK    2  A    between atoms: C_3  and  N_4
REMARK    3  A    between atoms: C_5  and  C_7
REMARK    4  A    between atoms: C_25  and  C_26
REMARK    5  A    between atoms: C_30  and  O_31
REMARK    6  A    between atoms: O_31  and  C_32
REMARK                            x       y       z     vdW  Elec       q    Type
REMARK                         _______ _______ _______ _____ _____    ______ ____
ROOT
ATOM      1  C   UNL     1       1.584   7.227  20.329  0.00  0.00    +0.000 A 
ATOM      2  C   UNL     1       0.471   7.391  21.188  0.00  0.00    +0.000 A 
ATOM      3  C   UNL     1      -0.232   8.612  21.252  0.00  0.00    +0.000 A 
ATOM      4  C   UNL     1       0.170   9.657  20.434  0.00  0.00    +0.000 A 
ATOM      5  C   UNL     1       1.236   9.450  19.569  0.00  0.00    +0.000 A 
ATOM      6  C   UNL     1       1.961   8.274  19.484  0.00  0.00    +0.000 A 
ATOM      7  C   UNL     1       1.433  10.684  18.831  0.00  0.00    +0.000 C 
ATOM      8  O   UNL     1       2.250  10.858  17.952  0.00  0.00    +0.000 OA
ATOM      9  C   UNL     1       0.456  11.663  19.363  0.00  0.00    +0.000 C 
ATOM     10  C   UNL     1      -0.288  11.049  20.304  0.00  0.00    +0.000 C 
ATOM     11  N   UNL     1      -1.276  11.553  21.114  0.00  0.00    +0.000 N 
ATOM     12  C   UNL     1      -1.224  12.851  21.681  0.00  0.00    +0.000 A 
ATOM     13  C   UNL     1      -1.129  12.976  23.080  0.00  0.00    +0.000 A 
ATOM     14  C   UNL     1      -1.004  14.230  23.688  0.00  0.00    +0.000 A 
ATOM     15  C   UNL     1      -0.992  15.381  22.905  0.00  0.00    +0.000 A 
ATOM     16  C   UNL     1      -1.067  15.279  21.519  0.00  0.00    +0.000 A 
ATOM     17  C   UNL     1      -1.139  14.018  20.897  0.00  0.00    +0.000 A 
ATOM     18  S   UNL     1      -1.133  13.959  19.108  0.00  0.00    +0.000 S 
ATOM     19  C   UNL     1       0.450  13.050  18.817  0.00  0.00    +0.000 C 
ATOM     20  H   UNL     1      -1.762  10.879  21.695  0.00  0.00    +0.000 HD
ENDROOT
BRANCH  19  21
ATOM     21  C   UNL     1       1.644  13.903  19.236  0.00  0.00    +0.000 A 
ATOM     22  C   UNL     1       2.307  13.716  20.461  0.00  0.00    +0.000 A 
ATOM     23  C   UNL     1       3.307  14.596  20.869  0.00  0.00    +0.000 A 
ATOM     24  C   UNL     1       3.660  15.671  20.055  0.00  0.00    +0.000 A 
ATOM     25  C   UNL     1       3.046  15.855  18.815  0.00  0.00    +0.000 A 
ATOM     26  C   UNL     1       2.051  14.965  18.406  0.00  0.00    +0.000 A 
BRANCH  25  27
ATOM     27  O   UNL     1       3.484  16.944  18.113  0.00  0.00    +0.000 OA
ATOM     28  C   UNL     1       2.728  17.309  16.966  0.00  0.00    +0.000 C 
ENDBRANCH  25  27
ENDBRANCH  19  21
BRANCH   1  30
ATOM     29  N   UNL     1       1.747   4.873  20.990  0.00  0.00    +0.000 N 
ATOM     30  C   UNL     1       2.329   5.927  20.321  0.00  0.00    +0.000 C 
ATOM     31  O   UNL     1       3.388   5.839  19.703  0.00  0.00    +0.000 OA
ATOM     32  H   UNL     1       0.795   4.936  21.318  0.00  0.00    +0.000 HD
BRANCH  29  33
ATOM     33  C   UNL     1       2.370   3.566  21.001  0.00  0.00    +0.000 C 
BRANCH  33  35
ATOM     34  C   UNL     1       1.479   1.984  18.838  0.00  0.00    +0.000 C 
ATOM     35  C   UNL     1       1.890   2.715  19.837  0.00  0.00    +0.000 C 
ENDBRANCH  33  35
ENDBRANCH  29  33
ENDBRANCH   1  30
TORSDOF 5
ENDMDL
MODEL 9
REMARK VINA RESULT:      -6.7      3.794      5.740
REMARK  Name = 
REMARK  6 active torsions:
REMARK  status: ('A' for Active; 'I' for Inactive)
REMARK    1  A    between atoms: C_2  and  C_3
REMARK    2  A    between atoms: C_3  and  N_4
REMARK    3  A    between atoms: C_5  and  C_7
REMARK    4  A    between atoms: C_25  and  C_26
REMARK    5  A    between atoms: C_30  and  O_31
REMARK    6  A    between atoms: O_31  and  C_32
REMARK                            x       y       z     vdW  Elec       q    Type
REMARK                         _______ _______ _______ _____ _____    ______ ____
ROOT
ATOM      1  C   UNL     1       1.523   7.245  20.382  0.00  0.00    +0.000 A 
ATOM      2  C   UNL     1       0.419   7.417  21.251  0.00  0.00    +0.000 A 
ATOM      3  C   UNL     1      -0.278   8.641  21.320  0.00  0.00    +0.000 A 
ATOM      4  C   UNL     1       0.121   9.682  20.495  0.00  0.00    +0.000 A 
ATOM      5  C   UNL     1       1.177   9.467  19.620  0.00  0.00    +0.000 A 
ATOM      6  C   UNL     1       1.896   8.288  19.530  0.00  0.00    +0.000 A 
ATOM      7  C   UNL     1       1.372  10.699  18.876  0.00  0.00    +0.000 C 
ATOM      8  O   UNL     1       2.181  10.867  17.989  0.00  0.00    +0.000 OA
ATOM      9  C   UNL     1       0.405  11.684  19.416  0.00  0.00    +0.000 C 
ATOM     10  C   UNL     1      -0.332  11.075  20.366  0.00  0.00    +0.000 C 
ATOM     11  N   UNL     1      -1.309  11.586  21.185  0.00  0.00    +0.000 N 
ATOM     12  C   UNL     1      -1.246  12.885  21.747  0.00  0.00    +0.000 A 
ATOM     13  C   UNL     1      -1.135  13.013  23.145  0.00  0.00    +0.000 A 
ATOM     14  C   UNL     1      -0.998  14.269  23.749  0.00  0.00    +0.000 A 
ATOM     15  C   UNL     1      -0.989  15.418  22.963  0.00  0.00    +0.000 A 
ATOM     16  C   UNL     1      -1.079  15.312  21.578  0.00  0.00    +0.000 A 
ATOM     17  C   UNL     1      -1.163  14.050  20.960  0.00  0.00    +0.000 A 
ATOM     18  S   UNL     1      -1.175  13.986  19.171  0.00  0.00    +0.000 S 
ATOM     19  C   UNL     1       0.401  13.069  18.867  0.00  0.00    +0.000 C 
ATOM     20  H   UNL     1      -1.792  10.916  21.772  0.00  0.00    +0.000 HD
ENDROOT
BRANCH  19  21
ATOM     21  C   UNL     1       1.603  13.917  19.271  0.00  0.00    +0.000 A 
ATOM     22  C   UNL     1       2.322  13.684  20.455  0.00  0.00    +0.000 A 
ATOM     23  C   UNL     1       3.329  14.557  20.859  0.00  0.00    +0.000 A 
ATOM     24  C   UNL     1       3.634  15.672  20.081  0.00  0.00    +0.000 A 
ATOM     25  C   UNL     1       2.963  15.905  18.879  0.00  0.00    +0.000 A 
ATOM     26  C   UNL     1       1.961  15.021  18.474  0.00  0.00    +0.000 A 
BRANCH  25  27
ATOM     27  O   UNL     1       3.358  17.030  18.209  0.00  0.00    +0.000 OA
ATOM     28  C   UNL     1       2.738  17.273  16.953  0.00  0.00    +0.000 C 
ENDBRANCH  25  27
ENDBRANCH  19  21
BRANCH   1  30
ATOM     29  N   UNL     1       3.485   5.928  19.736  0.00  0.00    +0.000 N 
ATOM     30  C   UNL     1       2.261   5.941  20.369  0.00  0.00    +0.000 C 
ATOM     31  O   UNL     1       1.780   4.966  20.941  0.00  0.00    +0.000 OA
ATOM     32  H   UNL     1       3.926   6.788  19.451  0.00  0.00    +0.000 HD
BRANCH  29  33
ATOM     33  C   UNL     1       4.294   4.726  19.711  0.00  0.00    +0.000 C 
BRANCH  33  35
ATOM     34  C   UNL     1       3.778   3.189  17.399  0.00  0.00    +0.000 C 
ATOM     35  C   UNL     1       4.016   3.899  18.467  0.00  0.00    +0.000 C 
ENDBRANCH  33  35
ENDBRANCH  29  33
ENDBRANCH   1  30
TORSDOF 5
ENDMDL
