MODEL 1
REMARK VINA RESULT:      -8.0      0.000      0.000
REMARK  Name = 
REMARK  5 active torsions:
REMARK  status: ('A' for Active; 'I' for Inactive)
REMARK    1  A    between atoms: C_1  and  O_2
REMARK    2  A    between atoms: O_2  and  C_3
REMARK    3  A    between atoms: C_3  and  C_4
REMARK    4  A    between atoms: C_3  and  C_25
REMARK    5  A    between atoms: N_11  and  C_12
REMARK                            x       y       z     vdW  Elec       q    Type
REMARK                         _______ _______ _______ _____ _____    ______ ____
ROOT
ATOM      1  C   UNL     1       2.591   5.439  18.939  0.00  0.00    +0.000 C 
ATOM      2  O   UNL     1       1.868   5.398  19.933  0.00  0.00    +0.000 OA
ATOM      3  N   UNL     1       2.743   6.516  18.090  0.00  0.00    +0.000 N 
ATOM      4  C   UNL     1       2.255   7.789  18.274  0.00  0.00    +0.000 A 
ATOM      5  N   UNL     1       2.324   8.719  17.348  0.00  0.00    +0.000 NA
ATOM      6  N   UNL     1       1.827   9.935  17.791  0.00  0.00    +0.000 NA
ATOM      7  C   UNL     1       1.439   9.902  19.049  0.00  0.00    +0.000 A 
ATOM      8  N   UNL     1       0.965  10.951  19.776  0.00  0.00    +0.000 N 
ATOM      9  S   UNL     1       1.594   8.333  19.751  0.00  0.00    +0.000 S 
ATOM     10  H   UNL     1       3.224   6.351  17.211  0.00  0.00    +0.000 HD
ATOM     11  H   UNL     1       0.545  10.743  20.676  0.00  0.00    +0.000 HD
ENDROOT
BRANCH   8  12
ATOM     12  C   UNL     1       0.385  12.102  19.075  0.00  0.00    +0.000 C 
ATOM     13  C   UNL     1       0.355  13.333  19.978  0.00  0.00    +0.000 C 
ATOM     14  C   UNL     1      -1.004  13.314  20.681  0.00  0.00    +0.000 C 
ATOM     15  N   UNL     1      -1.834  12.394  19.902  0.00  0.00    +0.000 N 
ATOM     16  C   UNL     1      -3.200  12.630  19.822  0.00  0.00    +0.000 A 
ATOM     17  C   UNL     1      -4.027  11.807  19.067  0.00  0.00    +0.000 A 
ATOM     18  C   UNL     1      -5.396  12.052  19.020  0.00  0.00    +0.000 A 
ATOM     19 CL   UNL     1      -6.423  11.027  18.101  0.00  0.00    +0.000 Cl
ATOM     20  C   UNL     1      -5.913  13.115  19.723  0.00  0.00    +0.000 A 
ATOM     21  N   UNL     1      -5.122  13.908  20.461  0.00  0.00    +0.000 NA
ATOM     22  N   UNL     1      -3.765  13.647  20.513  0.00  0.00    +0.000 NA
ATOM     23  C   UNL     1      -1.103  11.876  18.743  0.00  0.00    +0.000 C 
ENDBRANCH   8  12
BRANCH   1  24
ATOM     24  C   UNL     1       3.475   4.218  18.545  0.00  0.00    +0.000 C 
BRANCH  24  25
ATOM     25  C   UNL     1       4.910   4.654  18.302  0.00  0.00    +0.000 A 
ATOM     26  C   UNL     1       5.663   5.227  19.340  0.00  0.00    +0.000 A 
ATOM     27  C   UNL     1       7.002   5.561  19.140  0.00  0.00    +0.000 A 
ATOM     28  C   UNL     1       7.601   5.335  17.901  0.00  0.00    +0.000 A 
ATOM     29  C   UNL     1       6.866   4.770  16.863  0.00  0.00    +0.000 A 
ATOM     30  C   UNL     1       5.530   4.425  17.062  0.00  0.00    +0.000 A 
ENDBRANCH  24  25
BRANCH  24  32
ATOM     31  C   UNL     1       2.460   2.231  17.711  0.00  0.00    +0.000 C 
ATOM     32  O   UNL     1       2.961   3.533  17.390  0.00  0.00    +0.000 OA
ENDBRANCH  24  32
ENDBRANCH   1  24
TORSDOF 4
ENDMDL
MODEL 2
REMARK VINA RESULT:      -8.0      1.464      1.804
REMARK  Name = 
REMARK  5 active torsions:
REMARK  status: ('A' for Active; 'I' for Inactive)
REMARK    1  A    between atoms: C_1  and  O_2
REMARK    2  A    between atoms: O_2  and  C_3
REMARK    3  A    between atoms: C_3  and  C_4
REMARK    4  A    between atoms: C_3  and  C_25
REMARK    5  A    between atoms: N_11  and  C_12
REMARK                            x       y       z     vdW  Elec       q    Type
REMARK                         _______ _______ _______ _____ _____    ______ ____
ROOT
ATOM      1  C   UNL     1       2.538   5.499  19.011  0.00  0.00    +0.000 C 
ATOM      2  O   UNL     1       1.868   5.383  20.036  0.00  0.00    +0.000 OA
ATOM      3  N   UNL     1       2.655   6.641  18.244  0.00  0.00    +0.000 N 
ATOM      4  C   UNL     1       2.190   7.898  18.556  0.00  0.00    +0.000 A 
ATOM      5  N   UNL     1       2.220   8.899  17.706  0.00  0.00    +0.000 NA
ATOM      6  N   UNL     1       1.758  10.078  18.271  0.00  0.00    +0.000 NA
ATOM      7  C   UNL     1       1.438   9.945  19.541  0.00  0.00    +0.000 A 
ATOM      8  N   UNL     1       1.014  10.936  20.375  0.00  0.00    +0.000 N 
ATOM      9  S   UNL     1       1.614   8.325  20.106  0.00  0.00    +0.000 S 
ATOM     10  H   UNL     1       3.087   6.545  17.331  0.00  0.00    +0.000 HD
ATOM     11  H   UNL     1       0.640  10.658  21.277  0.00  0.00    +0.000 HD
ENDROOT
BRANCH   8  12
ATOM     12  C   UNL     1       0.409  12.142  19.801  0.00  0.00    +0.000 C 
ATOM     13  C   UNL     1      -0.552  12.795  20.792  0.00  0.00    +0.000 C 
ATOM     14  C   UNL     1      -1.931  12.196  20.507  0.00  0.00    +0.000 C 
ATOM     15  N   UNL     1      -1.827  11.591  19.179  0.00  0.00    +0.000 N 
ATOM     16  C   UNL     1      -2.952  11.569  18.365  0.00  0.00    +0.000 A 
ATOM     17  C   UNL     1      -2.898  11.037  17.081  0.00  0.00    +0.000 A 
ATOM     18  C   UNL     1      -4.043  11.007  16.293  0.00  0.00    +0.000 A 
ATOM     19 CL   UNL     1      -3.984  10.336  14.712  0.00  0.00    +0.000 Cl
ATOM     20  C   UNL     1      -5.220  11.510  16.797  0.00  0.00    +0.000 A 
ATOM     21  N   UNL     1      -5.281  12.017  18.037  0.00  0.00    +0.000 NA
ATOM     22  N   UNL     1      -4.141  12.028  18.818  0.00  0.00    +0.000 NA
ATOM     23  C   UNL     1      -0.499  11.810  18.601  0.00  0.00    +0.000 C 
ENDBRANCH   8  12
BRANCH   1  24
ATOM     24  C   UNL     1       3.386   4.310  18.474  0.00  0.00    +0.000 C 
BRANCH  24  25
ATOM     25  C   UNL     1       4.741   4.797  17.986  0.00  0.00    +0.000 A 
ATOM     26  C   UNL     1       4.995   4.924  16.611  0.00  0.00    +0.000 A 
ATOM     27  C   UNL     1       6.212   5.439  16.163  0.00  0.00    +0.000 A 
ATOM     28  C   UNL     1       7.189   5.822  17.081  0.00  0.00    +0.000 A 
ATOM     29  C   UNL     1       6.951   5.698  18.446  0.00  0.00    +0.000 A 
ATOM     30  C   UNL     1       5.732   5.194  18.899  0.00  0.00    +0.000 A 
ENDBRANCH  24  25
BRANCH  24  32
ATOM     31  C   UNL     1       2.600   2.196  17.708  0.00  0.00    +0.000 C 
ATOM     32  O   UNL     1       2.708   3.595  17.426  0.00  0.00    +0.000 OA
ENDBRANCH  24  32
ENDBRANCH   1  24
TORSDOF 4
ENDMDL
MODEL 3
REMARK VINA RESULT:      -8.0      3.448      4.899
REMARK  Name = 
REMARK  5 active torsions:
REMARK  status: ('A' for Active; 'I' for Inactive)
REMARK    1  A    between atoms: C_1  and  O_2
REMARK    2  A    between atoms: O_2  and  C_3
REMARK    3  A    between atoms: C_3  and  C_4
REMARK    4  A    between atoms: C_3  and  C_25
REMARK    5  A    between atoms: N_11  and  C_12
REMARK                            x       y       z     vdW  Elec       q    Type
REMARK                         _______ _______ _______ _____ _____    ______ ____
ROOT
ATOM      1  C   UNL     1       4.520   6.023  17.734  0.00  0.00    +0.000 C 
ATOM      2  O   UNL     1       4.860   6.843  16.882  0.00  0.00    +0.000 OA
ATOM      3  N   UNL     1       3.616   6.241  18.754  0.00  0.00    +0.000 N 
ATOM      4  C   UNL     1       2.808   7.342  18.922  0.00  0.00    +0.000 A 
ATOM      5  N   UNL     1       2.079   7.532  19.998  0.00  0.00    +0.000 NA
ATOM      6  N   UNL     1       1.300   8.675  19.906  0.00  0.00    +0.000 NA
ATOM      7  C   UNL     1       1.427   9.289  18.748  0.00  0.00    +0.000 A 
ATOM      8  N   UNL     1       0.748  10.398  18.343  0.00  0.00    +0.000 N 
ATOM      9  S   UNL     1       2.584   8.531  17.717  0.00  0.00    +0.000 S 
ATOM     10  H   UNL     1       3.569   5.543  19.490  0.00  0.00    +0.000 HD
ATOM     11  H   UNL     1       1.070  10.860  17.498  0.00  0.00    +0.000 HD
ENDROOT
BRANCH   8  12
ATOM     12  C   UNL     1       0.171  11.292  19.353  0.00  0.00    +0.000 C 
ATOM     13  C   UNL     1      -1.080  11.984  18.818  0.00  0.00    +0.000 C 
ATOM     14  C   UNL     1      -0.606  13.300  18.198  0.00  0.00    +0.000 C 
ATOM     15  N   UNL     1       0.736  13.525  18.734  0.00  0.00    +0.000 N 
ATOM     16  C   UNL     1       1.166  14.830  18.935  0.00  0.00    +0.000 A 
ATOM     17  C   UNL     1       2.419  15.097  19.475  0.00  0.00    +0.000 A 
ATOM     18  C   UNL     1       2.835  16.413  19.647  0.00  0.00    +0.000 A 
ATOM     19 CL   UNL     1       4.390  16.747  20.299  0.00  0.00    +0.000 Cl
ATOM     20  C   UNL     1       1.994  17.438  19.280  0.00  0.00    +0.000 A 
ATOM     21  N   UNL     1       0.788  17.187  18.751  0.00  0.00    +0.000 NA
ATOM     22  N   UNL     1       0.389  15.876  18.570  0.00  0.00    +0.000 NA
ATOM     23  C   UNL     1       1.112  12.469  19.677  0.00  0.00    +0.000 C 
ENDBRANCH   8  12
BRANCH   1  24
ATOM     24  C   UNL     1       5.087   4.573  17.716  0.00  0.00    +0.000 C 
BRANCH  24  25
ATOM     25  C   UNL     1       4.053   3.588  18.235  0.00  0.00    +0.000 A 
ATOM     26  C   UNL     1       4.149   3.081  19.541  0.00  0.00    +0.000 A 
ATOM     27  C   UNL     1       3.162   2.234  20.044  0.00  0.00    +0.000 A 
ATOM     28  C   UNL     1       2.076   1.876  19.247  0.00  0.00    +0.000 A 
ATOM     29  C   UNL     1       1.969   2.369  17.950  0.00  0.00    +0.000 A 
ATOM     30  C   UNL     1       2.948   3.225  17.447  0.00  0.00    +0.000 A 
ENDBRANCH  24  25
BRANCH  24  32
ATOM     31  C   UNL     1       7.467   4.650  17.661  0.00  0.00    +0.000 C 
ATOM     32  O   UNL     1       6.304   4.462  18.473  0.00  0.00    +0.000 OA
ENDBRANCH  24  32
ENDBRANCH   1  24
TORSDOF 4
ENDMDL
MODEL 4
REMARK VINA RESULT:      -8.0      2.398      2.776
REMARK  Name = 
REMARK  5 active torsions:
REMARK  status: ('A' for Active; 'I' for Inactive)
REMARK    1  A    between atoms: C_1  and  O_2
REMARK    2  A    between atoms: O_2  and  C_3
REMARK    3  A    between atoms: C_3  and  C_4
REMARK    4  A    between atoms: C_3  and  C_25
REMARK    5  A    between atoms: N_11  and  C_12
REMARK                            x       y       z     vdW  Elec       q    Type
REMARK                         _______ _______ _______ _____ _____    ______ ____
ROOT
ATOM      1  C   UNL     1       2.991   5.071  19.148  0.00  0.00    +0.000 C 
ATOM      2  O   UNL     1       2.525   4.883  20.271  0.00  0.00    +0.000 OA
ATOM      3  N   UNL     1       2.792   6.190  18.366  0.00  0.00    +0.000 N 
ATOM      4  C   UNL     1       2.182   7.365  18.742  0.00  0.00    +0.000 A 
ATOM      5  N   UNL     1       1.907   8.328  17.891  0.00  0.00    +0.000 NA
ATOM      6  N   UNL     1       1.355   9.435  18.518  0.00  0.00    +0.000 NA
ATOM      7  C   UNL     1       1.270   9.295  19.824  0.00  0.00    +0.000 A 
ATOM      8  N   UNL     1       0.829  10.231  20.710  0.00  0.00    +0.000 N 
ATOM      9  S   UNL     1       1.802   7.745  20.362  0.00  0.00    +0.000 S 
ATOM     10  H   UNL     1       3.080   6.135  17.394  0.00  0.00    +0.000 HD
ATOM     11  H   UNL     1       0.657   9.927  21.663  0.00  0.00    +0.000 HD
ENDROOT
BRANCH   8  12
ATOM     12  C   UNL     1      -0.053  11.303  20.236  0.00  0.00    +0.000 C 
ATOM     13  C   UNL     1       0.653  12.657  20.295  0.00  0.00    +0.000 C 
ATOM     14  C   UNL     1       0.324  13.249  21.667  0.00  0.00    +0.000 C 
ATOM     15  N   UNL     1      -0.827  12.489  22.155  0.00  0.00    +0.000 N 
ATOM     16  C   UNL     1      -1.756  13.129  22.966  0.00  0.00    +0.000 A 
ATOM     17  C   UNL     1      -2.885  12.462  23.427  0.00  0.00    +0.000 A 
ATOM     18  C   UNL     1      -3.790  13.119  24.256  0.00  0.00    +0.000 A 
ATOM     19 CL   UNL     1      -5.178  12.293  24.841  0.00  0.00    +0.000 Cl
ATOM     20  C   UNL     1      -3.554  14.428  24.605  0.00  0.00    +0.000 A 
ATOM     21  N   UNL     1      -2.462  15.075  24.170  0.00  0.00    +0.000 NA
ATOM     22  N   UNL     1      -1.561  14.409  23.360  0.00  0.00    +0.000 NA
ATOM     23  C   UNL     1      -1.264  11.499  21.168  0.00  0.00    +0.000 C 
ENDBRANCH   8  12
BRANCH   1  24
ATOM     24  C   UNL     1       3.927   4.018  18.486  0.00  0.00    +0.000 C 
BRANCH  24  25
ATOM     25  C   UNL     1       5.190   4.680  17.961  0.00  0.00    +0.000 A 
ATOM     26  C   UNL     1       5.425   4.765  16.579  0.00  0.00    +0.000 A 
ATOM     27  C   UNL     1       6.548   5.435  16.094  0.00  0.00    +0.000 A 
ATOM     28  C   UNL     1       7.451   6.019  16.981  0.00  0.00    +0.000 A 
ATOM     29  C   UNL     1       7.232   5.939  18.353  0.00  0.00    +0.000 A 
ATOM     30  C   UNL     1       6.105   5.280  18.842  0.00  0.00    +0.000 A 
ENDBRANCH  24  25
BRANCH  24  32
ATOM     31  C   UNL     1       2.277   2.394  17.927  0.00  0.00    +0.000 C 
ATOM     32  O   UNL     1       3.266   3.300  17.430  0.00  0.00    +0.000 OA
ENDBRANCH  24  32
ENDBRANCH   1  24
TORSDOF 4
ENDMDL
MODEL 5
REMARK VINA RESULT:      -7.9      1.750      1.966
REMARK  Name = 
REMARK  5 active torsions:
REMARK  status: ('A' for Active; 'I' for Inactive)
REMARK    1  A    between atoms: C_1  and  O_2
REMARK    2  A    between atoms: O_2  and  C_3
REMARK    3  A    between atoms: C_3  and  C_4
REMARK    4  A    between atoms: C_3  and  C_25
REMARK    5  A    between atoms: N_11  and  C_12
REMARK                            x       y       z     vdW  Elec       q    Type
REMARK                         _______ _______ _______ _____ _____    ______ ____
ROOT
ATOM      1  C   UNL     1       2.976   4.748  18.767  0.00  0.00    +0.000 C 
ATOM      2  O   UNL     1       2.045   4.540  19.543  0.00  0.00    +0.000 OA
ATOM      3  N   UNL     1       3.298   5.961  18.193  0.00  0.00    +0.000 N 
ATOM      4  C   UNL     1       2.755   7.189  18.496  0.00  0.00    +0.000 A 
ATOM      5  N   UNL     1       3.018   8.274  17.803  0.00  0.00    +0.000 NA
ATOM      6  N   UNL     1       2.408   9.397  18.340  0.00  0.00    +0.000 NA
ATOM      7  C   UNL     1       1.742   9.138  19.446  0.00  0.00    +0.000 A 
ATOM      8  N   UNL     1       1.093  10.044  20.229  0.00  0.00    +0.000 N 
ATOM      9  S   UNL     1       1.762   7.463  19.858  0.00  0.00    +0.000 S 
ATOM     10  H   UNL     1       3.971   5.952  17.434  0.00  0.00    +0.000 HD
ATOM     11  H   UNL     1       0.481   9.682  20.953  0.00  0.00    +0.000 HD
ENDROOT
BRANCH   8  12
ATOM     12  C   UNL     1       0.667  11.319  19.643  0.00  0.00    +0.000 C 
ATOM     13  C   UNL     1      -0.185  12.116  20.629  0.00  0.00    +0.000 C 
ATOM     14  C   UNL     1      -1.637  11.720  20.354  0.00  0.00    +0.000 C 
ATOM     15  N   UNL     1      -1.628  11.091  19.033  0.00  0.00    +0.000 N 
ATOM     16  C   UNL     1      -2.747  11.223  18.222  0.00  0.00    +0.000 A 
ATOM     17  C   UNL     1      -2.776  10.675  16.945  0.00  0.00    +0.000 A 
ATOM     18  C   UNL     1      -3.918  10.802  16.160  0.00  0.00    +0.000 A 
ATOM     19 CL   UNL     1      -3.963  10.112  14.587  0.00  0.00    +0.000 Cl
ATOM     20  C   UNL     1      -5.007  11.476  16.661  0.00  0.00    +0.000 A 
ATOM     21  N   UNL     1      -4.989  12.000  17.895  0.00  0.00    +0.000 NA
ATOM     22  N   UNL     1      -3.855  11.855  18.673  0.00  0.00    +0.000 NA
ATOM     23  C   UNL     1      -0.285  11.109  18.449  0.00  0.00    +0.000 C 
ENDBRANCH   8  12
BRANCH   1  24
ATOM     24  C   UNL     1       3.950   3.602  18.364  0.00  0.00    +0.000 C 
BRANCH  24  25
ATOM     25  C   UNL     1       5.010   4.114  17.403  0.00  0.00    +0.000 A 
ATOM     26  C   UNL     1       6.262   4.530  17.883  0.00  0.00    +0.000 A 
ATOM     27  C   UNL     1       7.260   4.932  16.996  0.00  0.00    +0.000 A 
ATOM     28  C   UNL     1       7.017   4.931  15.623  0.00  0.00    +0.000 A 
ATOM     29  C   UNL     1       5.779   4.523  15.134  0.00  0.00    +0.000 A 
ATOM     30  C   UNL     1       4.782   4.111  16.016  0.00  0.00    +0.000 A 
ENDBRANCH  24  25
BRANCH  24  32
ATOM     31  C   UNL     1       3.582   1.250  18.438  0.00  0.00    +0.000 C 
ATOM     32  O   UNL     1       3.255   2.482  17.789  0.00  0.00    +0.000 OA
ENDBRANCH  24  32
ENDBRANCH   1  24
TORSDOF 4
ENDMDL
MODEL 6
REMARK VINA RESULT:      -7.8      3.661      5.405
REMARK  Name = 
REMARK  5 active torsions:
REMARK  status: ('A' for Active; 'I' for Inactive)
REMARK    1  A    between atoms: C_1  and  O_2
REMARK    2  A    between atoms: O_2  and  C_3
REMARK    3  A    between atoms: C_3  and  C_4
REMARK    4  A    between atoms: C_3  and  C_25
REMARK    5  A    between atoms: N_11  and  C_12
REMARK                            x       y       z     vdW  Elec       q    Type
REMARK                         _______ _______ _______ _____ _____    ______ ____
ROOT
ATOM      1  C   UNL     1       3.771   6.179  17.970  0.00  0.00    +0.000 C 
ATOM      2  O   UNL     1       4.117   6.894  17.031  0.00  0.00    +0.000 OA
ATOM      3  N   UNL     1       2.978   6.562  19.032  0.00  0.00    +0.000 N 
ATOM      4  C   UNL     1       2.294   7.748  19.167  0.00  0.00    +0.000 A 
ATOM      5  N   UNL     1       1.675   8.091  20.275  0.00  0.00    +0.000 NA
ATOM      6  N   UNL     1       1.004   9.297  20.145  0.00  0.00    +0.000 NA
ATOM      7  C   UNL     1       1.094   9.807  18.935  0.00  0.00    +0.000 A 
ATOM      8  N   UNL     1       0.492  10.945  18.490  0.00  0.00    +0.000 N 
ATOM      9  S   UNL     1       2.087   8.860  17.888  0.00  0.00    +0.000 S 
ATOM     10  H   UNL     1       2.924   5.930  19.824  0.00  0.00    +0.000 HD
ATOM     11  H   UNL     1       0.788  11.308  17.589  0.00  0.00    +0.000 HD
ENDROOT
BRANCH   8  12
ATOM     12  C   UNL     1       0.087  11.965  19.463  0.00  0.00    +0.000 C 
ATOM     13  C   UNL     1      -0.792  13.027  18.805  0.00  0.00    +0.000 C 
ATOM     14  C   UNL     1       0.156  14.129  18.328  0.00  0.00    +0.000 C 
ATOM     15  N   UNL     1       1.409  13.907  19.051  0.00  0.00    +0.000 N 
ATOM     16  C   UNL     1       2.194  15.004  19.380  0.00  0.00    +0.000 A 
ATOM     17  C   UNL     1       3.375  14.852  20.097  0.00  0.00    +0.000 A 
ATOM     18  C   UNL     1       4.156  15.965  20.396  0.00  0.00    +0.000 A 
ATOM     19 CL   UNL     1       5.624  15.778  21.267  0.00  0.00    +0.000 Cl
ATOM     20  C   UNL     1       3.742  17.208  19.978  0.00  0.00    +0.000 A 
ATOM     21  N   UNL     1       2.607  17.361  19.279  0.00  0.00    +0.000 NA
ATOM     22  N   UNL     1       1.847  16.248  18.973  0.00  0.00    +0.000 NA
ATOM     23  C   UNL     1       1.293  12.777  19.975  0.00  0.00    +0.000 C 
ENDBRANCH   8  12
BRANCH   1  24
ATOM     24  C   UNL     1       4.195   4.681  18.030  0.00  0.00    +0.000 C 
BRANCH  24  25
ATOM     25  C   UNL     1       3.112   3.846  18.692  0.00  0.00    +0.000 A 
ATOM     26  C   UNL     1       3.256   3.423  20.023  0.00  0.00    +0.000 A 
ATOM     27  C   UNL     1       2.232   2.717  20.655  0.00  0.00    +0.000 A 
ATOM     28  C   UNL     1       1.059   2.419  19.963  0.00  0.00    +0.000 A 
ATOM     29  C   UNL     1       0.904   2.829  18.642  0.00  0.00    +0.000 A 
ATOM     30  C   UNL     1       1.921   3.544  18.010  0.00  0.00    +0.000 A 
ENDBRANCH  24  25
BRANCH  24  32
ATOM     31  C   UNL     1       6.567   4.626  17.831  0.00  0.00    +0.000 C 
ATOM     32  O   UNL     1       5.447   4.504  18.713  0.00  0.00    +0.000 OA
ENDBRANCH  24  32
ENDBRANCH   1  24
TORSDOF 4
ENDMDL
MODEL 7
REMARK VINA RESULT:      -7.8      0.840      1.264
REMARK  Name = 
REMARK  5 active torsions:
REMARK  status: ('A' for Active; 'I' for Inactive)
REMARK    1  A    between atoms: C_1  and  O_2
REMARK    2  A    between atoms: O_2  and  C_3
REMARK    3  A    between atoms: C_3  and  C_4
REMARK    4  A    between atoms: C_3  and  C_25
REMARK    5  A    between atoms: N_11  and  C_12
REMARK                            x       y       z     vdW  Elec       q    Type
REMARK                         _______ _______ _______ _____ _____    ______ ____
ROOT
ATOM      1  C   UNL     1       2.703   5.315  19.036  0.00  0.00    +0.000 C 
ATOM      2  O   UNL     1       2.003   5.328  20.047  0.00  0.00    +0.000 OA
ATOM      3  N   UNL     1       2.829   6.343  18.123  0.00  0.00    +0.000 N 
ATOM      4  C   UNL     1       2.336   7.622  18.246  0.00  0.00    +0.000 A 
ATOM      5  N   UNL     1       2.379   8.498  17.267  0.00  0.00    +0.000 NA
ATOM      6  N   UNL     1       1.883   9.734  17.651  0.00  0.00    +0.000 NA
ATOM      7  C   UNL     1       1.524   9.771  18.918  0.00  0.00    +0.000 A 
ATOM      8  N   UNL     1       1.060  10.858  19.594  0.00  0.00    +0.000 N 
ATOM      9  S   UNL     1       1.705   8.246  19.704  0.00  0.00    +0.000 S 
ATOM     10  H   UNL     1       3.291   6.131  17.245  0.00  0.00    +0.000 HD
ATOM     11  H   UNL     1       0.661  10.699  20.514  0.00  0.00    +0.000 HD
ENDROOT
BRANCH   8  12
ATOM     12  C   UNL     1       0.456  11.963  18.843  0.00  0.00    +0.000 C 
ATOM     13  C   UNL     1       0.897  13.312  19.406  0.00  0.00    +0.000 C 
ATOM     14  C   UNL     1      -0.150  13.700  20.452  0.00  0.00    +0.000 C 
ATOM     15  N   UNL     1      -1.310  12.852  20.177  0.00  0.00    +0.000 N 
ATOM     16  C   UNL     1      -2.580  13.350  20.438  0.00  0.00    +0.000 A 
ATOM     17  C   UNL     1      -3.716  12.598  20.162  0.00  0.00    +0.000 A 
ATOM     18  C   UNL     1      -4.976  13.111  20.453  0.00  0.00    +0.000 A 
ATOM     19 CL   UNL     1      -6.382  12.177  20.129  0.00  0.00    +0.000 Cl
ATOM     20  C   UNL     1      -5.080  14.364  21.009  0.00  0.00    +0.000 A 
ATOM     21  N   UNL     1      -3.988  15.092  21.286  0.00  0.00    +0.000 NA
ATOM     22  N   UNL     1      -2.739  14.567  21.007  0.00  0.00    +0.000 NA
ATOM     23  C   UNL     1      -1.076  11.998  19.010  0.00  0.00    +0.000 C 
ENDBRANCH   8  12
BRANCH   1  24
ATOM     24  C   UNL     1       3.586   4.079  18.692  0.00  0.00    +0.000 C 
BRANCH  24  25
ATOM     25  C   UNL     1       5.013   4.508  18.392  0.00  0.00    +0.000 A 
ATOM     26  C   UNL     1       5.561   4.302  17.116  0.00  0.00    +0.000 A 
ATOM     27  C   UNL     1       6.845   4.760  16.817  0.00  0.00    +0.000 A 
ATOM     28  C   UNL     1       7.596   5.417  17.790  0.00  0.00    +0.000 A 
ATOM     29  C   UNL     1       7.066   5.625  19.060  0.00  0.00    +0.000 A 
ATOM     30  C   UNL     1       5.779   5.179  19.359  0.00  0.00    +0.000 A 
ENDBRANCH  24  25
BRANCH  24  32
ATOM     31  C   UNL     1       2.061   2.381  18.011  0.00  0.00    +0.000 C 
ATOM     32  O   UNL     1       3.051   3.326  17.590  0.00  0.00    +0.000 OA
ENDBRANCH  24  32
ENDBRANCH   1  24
TORSDOF 4
ENDMDL
MODEL 8
REMARK VINA RESULT:      -7.8      3.991     10.742
REMARK  Name = 
REMARK  5 active torsions:
REMARK  status: ('A' for Active; 'I' for Inactive)
REMARK    1  A    between atoms: C_1  and  O_2
REMARK    2  A    between atoms: O_2  and  C_3
REMARK    3  A    between atoms: C_3  and  C_4
REMARK    4  A    between atoms: C_3  and  C_25
REMARK    5  A    between atoms: N_11  and  C_12
REMARK                            x       y       z     vdW  Elec       q    Type
REMARK                         _______ _______ _______ _____ _____    ______ ____
ROOT
ATOM      1  C   UNL     1      -4.307  11.356  18.241  0.00  0.00    +0.000 C 
ATOM      2  O   UNL     1      -4.464  10.300  17.630  0.00  0.00    +0.000 OA
ATOM      3  N   UNL     1      -3.146  11.768  18.864  0.00  0.00    +0.000 N 
ATOM      4  C   UNL     1      -1.909  11.169  18.787  0.00  0.00    +0.000 A 
ATOM      5  N   UNL     1      -0.889  11.546  19.524  0.00  0.00    +0.000 NA
ATOM      6  N   UNL     1       0.264  10.839  19.220  0.00  0.00    +0.000 NA
ATOM      7  C   UNL     1       0.095   9.985  18.233  0.00  0.00    +0.000 A 
ATOM      8  N   UNL     1       1.055   9.197  17.673  0.00  0.00    +0.000 N 
ATOM      9  S   UNL     1      -1.532   9.942  17.661  0.00  0.00    +0.000 S 
ATOM     10  H   UNL     1      -3.210  12.568  19.484  0.00  0.00    +0.000 HD
ATOM     11  H   UNL     1       0.748   8.465  17.040  0.00  0.00    +0.000 HD
ENDROOT
BRANCH   8  12
ATOM     12  C   UNL     1       2.257   8.875  18.450  0.00  0.00    +0.000 C 
ATOM     13  C   UNL     1       3.429   8.541  17.529  0.00  0.00    +0.000 C 
ATOM     14  C   UNL     1       3.388   7.026  17.320  0.00  0.00    +0.000 C 
ATOM     15  N   UNL     1       2.533   6.507  18.387  0.00  0.00    +0.000 N 
ATOM     16  C   UNL     1       2.796   5.243  18.900  0.00  0.00    +0.000 A 
ATOM     17  C   UNL     1       2.037   4.717  19.939  0.00  0.00    +0.000 A 
ATOM     18  C   UNL     1       2.307   3.440  20.420  0.00  0.00    +0.000 A 
ATOM     19 CL   UNL     1       1.359   2.781  21.693  0.00  0.00    +0.000 Cl
ATOM     20  C   UNL     1       3.331   2.713  19.860  0.00  0.00    +0.000 A 
ATOM     21  N   UNL     1       4.063   3.211  18.852  0.00  0.00    +0.000 NA
ATOM     22  N   UNL     1       3.777   4.475  18.371  0.00  0.00    +0.000 NA
ATOM     23  C   UNL     1       2.077   7.583  19.271  0.00  0.00    +0.000 C 
ENDBRANCH   8  12
BRANCH   1  24
ATOM     24  C   UNL     1      -5.461  12.396  18.346  0.00  0.00    +0.000 C 
BRANCH  24  25
ATOM     25  C   UNL     1      -6.287  12.154  19.598  0.00  0.00    +0.000 A 
ATOM     26  C   UNL     1      -6.356  13.133  20.602  0.00  0.00    +0.000 A 
ATOM     27  C   UNL     1      -7.170  12.944  21.719  0.00  0.00    +0.000 A 
ATOM     28  C   UNL     1      -7.916  11.773  21.849  0.00  0.00    +0.000 A 
ATOM     29  C   UNL     1      -7.854  10.793  20.863  0.00  0.00    +0.000 A 
ATOM     30  C   UNL     1      -7.050  10.983  19.740  0.00  0.00    +0.000 A 
ENDBRANCH  24  25
BRANCH  24  32
ATOM     31  C   UNL     1      -6.802  13.682  16.856  0.00  0.00    +0.000 C 
ATOM     32  O   UNL     1      -6.306  12.381  17.182  0.00  0.00    +0.000 OA
ENDBRANCH  24  32
ENDBRANCH   1  24
TORSDOF 4
ENDMDL
MODEL 9
REMARK VINA RESULT:      -7.8      3.503      5.160
REMARK  Name = 
REMARK  5 active torsions:
REMARK  status: ('A' for Active; 'I' for Inactive)
REMARK    1  A    between atoms: C_1  and  O_2
REMARK    2  A    between atoms: O_2  and  C_3
REMARK    3  A    between atoms: C_3  and  C_4
REMARK    4  A    between atoms: C_3  and  C_25
REMARK    5  A    between atoms: N_11  and  C_12
REMARK                            x       y       z     vdW  Elec       q    Type
REMARK                         _______ _______ _______ _____ _____    ______ ____
ROOT
ATOM      1  C   UNL     1       4.097   6.221  17.765  0.00  0.00    +0.000 C 
ATOM      2  O   UNL     1       4.402   7.005  16.868  0.00  0.00    +0.000 OA
ATOM      3  N   UNL     1       3.260   6.491  18.828  0.00  0.00    +0.000 N 
ATOM      4  C   UNL     1       2.485   7.615  19.006  0.00  0.00    +0.000 A 
ATOM      5  N   UNL     1       1.825   7.856  20.116  0.00  0.00    +0.000 NA
ATOM      6  N   UNL     1       1.065   9.012  20.031  0.00  0.00    +0.000 NA
ATOM      7  C   UNL     1       1.136   9.585  18.847  0.00  0.00    +0.000 A 
ATOM      8  N   UNL     1       0.456  10.695  18.445  0.00  0.00    +0.000 N 
ATOM      9  S   UNL     1       2.214   8.768  17.776  0.00  0.00    +0.000 S 
ATOM     10  H   UNL     1       3.242   5.819  19.589  0.00  0.00    +0.000 HD
ATOM     11  H   UNL     1       0.737  11.122  17.568  0.00  0.00    +0.000 HD
ENDROOT
BRANCH   8  12
ATOM     12  C   UNL     1      -0.042  11.633  19.456  0.00  0.00    +0.000 C 
ATOM     13  C   UNL     1      -1.085  12.576  18.860  0.00  0.00    +0.000 C 
ATOM     14  C   UNL     1      -0.317  13.805  18.369  0.00  0.00    +0.000 C 
ATOM     15  N   UNL     1       0.984  13.745  19.034  0.00  0.00    +0.000 N 
ATOM     16  C   UNL     1       1.626  14.933  19.356  0.00  0.00    +0.000 A 
ATOM     17  C   UNL     1       2.848  14.932  20.020  0.00  0.00    +0.000 A 
ATOM     18  C   UNL     1       3.482  16.136  20.312  0.00  0.00    +0.000 A 
ATOM     19 CL   UNL     1       4.999  16.137  21.118  0.00  0.00    +0.000 Cl
ATOM     20  C   UNL     1       2.884  17.318  19.940  0.00  0.00    +0.000 A 
ATOM     21  N   UNL     1       1.710  17.326  19.292  0.00  0.00    +0.000 NA
ATOM     22  N   UNL     1       1.096  16.124  18.993  0.00  0.00    +0.000 NA
ATOM     23  C   UNL     1       1.064  12.594  19.937  0.00  0.00    +0.000 C 
ENDBRANCH   8  12
BRANCH   1  24
ATOM     24  C   UNL     1       4.632   4.759  17.763  0.00  0.00    +0.000 C 
BRANCH  24  25
ATOM     25  C   UNL     1       3.619   3.817  18.393  0.00  0.00    +0.000 A 
ATOM     26  C   UNL     1       2.469   3.435  17.684  0.00  0.00    +0.000 A 
ATOM     27  C   UNL     1       1.575   2.515  18.231  0.00  0.00    +0.000 A 
ATOM     28  C   UNL     1       1.814   1.975  19.494  0.00  0.00    +0.000 A 
ATOM     29  C   UNL     1       2.949   2.347  20.209  0.00  0.00    +0.000 A 
ATOM     30  C   UNL     1       3.851   3.258  19.661  0.00  0.00    +0.000 A 
ENDBRANCH  24  25
BRANCH  24  32
ATOM     31  C   UNL     1       7.000   4.660  17.522  0.00  0.00    +0.000 C 
ATOM     32  O   UNL     1       5.899   4.649  18.436  0.00  0.00    +0.000 OA
ENDBRANCH  24  32
ENDBRANCH   1  24
TORSDOF 4
ENDMDL
