MODEL 1
REMARK VINA RESULT:      -5.3      0.000      0.000
REMARK  Name = 
REMARK  8 active torsions:
REMARK  status: ('A' for Active; 'I' for Inactive)
REMARK    1  A    between atoms: C_1  and  O_2
REMARK    2  A    between atoms: O_2  and  C_3
REMARK    3  A    between atoms: C_3  and  C_4
REMARK    4  A    between atoms: C_3  and  C_5
REMARK    5  A    between atoms: C_3  and  O_20
REMARK    6  A    between atoms: C_5  and  C_6
REMARK    7  A    between atoms: C_13  and  C_14
REMARK    8  A    between atoms: O_20  and  C_21
REMARK                            x       y       z     vdW  Elec       q    Type
REMARK                         _______ _______ _______ _____ _____    ______ ____
ROOT
ATOM      1  C   UNL     1       1.417   9.136  18.125  0.00  0.00    +0.000 C 
ATOM      2  O   UNL     1       1.067   8.382  19.445  0.00  0.00    +0.000 OA
ATOM      3  C   UNL     1       2.435   7.886  19.325  0.00  0.00    +0.000 C 
ATOM      4  C   UNL     1       2.185   7.842  17.805  0.00  0.00    +0.000 C 
ATOM      5  O   UNL     1       3.447   7.406  17.306  0.00  0.00    +0.000 OA
ATOM      6  C   UNL     1       3.757   6.261  18.169  0.00  0.00    +0.000 C 
ATOM      7  O   UNL     1       3.242   5.045  17.650  0.00  0.00    +0.000 OA
ATOM      8  C   UNL     1       2.131   4.626  18.471  0.00  0.00    +0.000 C 
ATOM      9  O   UNL     1       1.987   5.492  19.609  0.00  0.00    +0.000 OA
ATOM     10  C   UNL     1       2.989   6.491  19.495  0.00  0.00    +0.000 C 
ENDROOT
BRANCH   8  11
ATOM     11  C   UNL     1       2.176   3.095  18.846  0.00  0.00    +0.000 C 
ATOM     12 CL   UNL     1       2.770   2.829  20.529  0.00  0.00    +0.000 Cl
ATOM     13 CL   UNL     1       0.556   2.312  18.726  0.00  0.00    +0.000 Cl
ATOM     14 CL   UNL     1       3.295   2.211  17.742  0.00  0.00    +0.000 Cl
ENDBRANCH   8  11
BRANCH   1  15
ATOM     15  C   UNL     1       1.896  10.542  18.496  0.00  0.00    +0.000 C 
BRANCH  15  16
ATOM     16  C   UNL     1       0.798  11.500  19.004  0.00  0.00    +0.000 C 
ATOM     17  C   UNL     1      -0.582  11.052  18.499  0.00  0.00    +0.000 C 
BRANCH  16  19
ATOM     18  C   UNL     1       2.353  13.124  18.115  0.00  0.00    +0.000 C 
ATOM     19  O   UNL     1       1.007  12.812  18.454  0.00  0.00    +0.000 OA
ENDBRANCH  16  19
BRANCH  16  20
ATOM     20  O   UNL     1       0.838  11.516  20.432  0.00  0.00    +0.000 OA
ATOM     21  C   UNL     1      -0.390  11.163  21.068  0.00  0.00    +0.000 C 
ENDBRANCH  16  20
ENDBRANCH  15  16
ENDBRANCH   1  15
TORSDOF 5
ENDMDL
MODEL 2
REMARK VINA RESULT:      -5.3      0.676      1.610
REMARK  Name = 
REMARK  8 active torsions:
REMARK  status: ('A' for Active; 'I' for Inactive)
REMARK    1  A    between atoms: C_1  and  O_2
REMARK    2  A    between atoms: O_2  and  C_3
REMARK    3  A    between atoms: C_3  and  C_4
REMARK    4  A    between atoms: C_3  and  C_5
REMARK    5  A    between atoms: C_3  and  O_20
REMARK    6  A    between atoms: C_5  and  C_6
REMARK    7  A    between atoms: C_13  and  C_14
REMARK    8  A    between atoms: O_20  and  C_21
REMARK                            x       y       z     vdW  Elec       q    Type
REMARK                         _______ _______ _______ _____ _____    ______ ____
ROOT
ATOM      1  C   UNL     1       1.294   9.257  18.173  0.00  0.00    +0.000 C 
ATOM      2  O   UNL     1       0.969   8.496  19.496  0.00  0.00    +0.000 OA
ATOM      3  C   UNL     1       2.343   8.021  19.360  0.00  0.00    +0.000 C 
ATOM      4  C   UNL     1       2.077   7.975  17.842  0.00  0.00    +0.000 C 
ATOM      5  O   UNL     1       3.340   7.558  17.330  0.00  0.00    +0.000 OA
ATOM      6  C   UNL     1       3.676   6.418  18.187  0.00  0.00    +0.000 C 
ATOM      7  O   UNL     1       3.173   5.195  17.672  0.00  0.00    +0.000 OA
ATOM      8  C   UNL     1       2.078   4.758  18.504  0.00  0.00    +0.000 C 
ATOM      9  O   UNL     1       1.934   5.620  19.645  0.00  0.00    +0.000 OA
ATOM     10  C   UNL     1       2.920   6.634  19.522  0.00  0.00    +0.000 C 
ENDROOT
BRANCH   8  11
ATOM     11  C   UNL     1       2.149   3.228  18.876  0.00  0.00    +0.000 C 
ATOM     12 CL   UNL     1       2.679   2.970  20.582  0.00  0.00    +0.000 Cl
ATOM     13 CL   UNL     1       0.559   2.400  18.686  0.00  0.00    +0.000 Cl
ATOM     14 CL   UNL     1       3.339   2.379  17.818  0.00  0.00    +0.000 Cl
ENDBRANCH   8  11
BRANCH   1  15
ATOM     15  C   UNL     1       1.756  10.670  18.541  0.00  0.00    +0.000 C 
BRANCH  15  16
ATOM     16  C   UNL     1       0.643  11.621  19.031  0.00  0.00    +0.000 C 
ATOM     17  C   UNL     1       0.650  11.711  20.565  0.00  0.00    +0.000 C 
BRANCH  16  19
ATOM     18  C   UNL     1      -1.531  11.998  18.042  0.00  0.00    +0.000 C 
ATOM     19  O   UNL     1      -0.643  11.085  18.678  0.00  0.00    +0.000 OA
ENDBRANCH  16  19
BRANCH  16  20
ATOM     20  O   UNL     1       0.857  12.905  18.444  0.00  0.00    +0.000 OA
ATOM     21  C   UNL     1       2.211  13.180  18.084  0.00  0.00    +0.000 C 
ENDBRANCH  16  20
ENDBRANCH  15  16
ENDBRANCH   1  15
TORSDOF 5
ENDMDL
MODEL 3
REMARK VINA RESULT:      -5.2      0.692      1.984
REMARK  Name = 
REMARK  8 active torsions:
REMARK  status: ('A' for Active; 'I' for Inactive)
REMARK    1  A    between atoms: C_1  and  O_2
REMARK    2  A    between atoms: O_2  and  C_3
REMARK    3  A    between atoms: C_3  and  C_4
REMARK    4  A    between atoms: C_3  and  C_5
REMARK    5  A    between atoms: C_3  and  O_20
REMARK    6  A    between atoms: C_5  and  C_6
REMARK    7  A    between atoms: C_13  and  C_14
REMARK    8  A    between atoms: O_20  and  C_21
REMARK                            x       y       z     vdW  Elec       q    Type
REMARK                         _______ _______ _______ _____ _____    ______ ____
ROOT
ATOM      1  C   UNL     1       1.443   9.223  18.034  0.00  0.00    +0.000 C 
ATOM      2  O   UNL     1       1.048   8.495  19.356  0.00  0.00    +0.000 OA
ATOM      3  C   UNL     1       2.410   7.974  19.277  0.00  0.00    +0.000 C 
ATOM      4  C   UNL     1       2.197   7.912  17.751  0.00  0.00    +0.000 C 
ATOM      5  O   UNL     1       3.463   7.448  17.290  0.00  0.00    +0.000 OA
ATOM      6  C   UNL     1       3.731   6.311  18.176  0.00  0.00    +0.000 C 
ATOM      7  O   UNL     1       3.209   5.097  17.662  0.00  0.00    +0.000 OA
ATOM      8  C   UNL     1       2.071   4.708  18.460  0.00  0.00    +0.000 C 
ATOM      9  O   UNL     1       1.914   5.592  19.583  0.00  0.00    +0.000 OA
ATOM     10  C   UNL     1       2.936   6.572  19.479  0.00  0.00    +0.000 C 
ENDROOT
BRANCH   8  11
ATOM     11  C   UNL     1       2.080   3.182  18.857  0.00  0.00    +0.000 C 
ATOM     12 CL   UNL     1       0.425   2.463  18.821  0.00  0.00    +0.000 Cl
ATOM     13 CL   UNL     1       3.111   2.193  17.756  0.00  0.00    +0.000 Cl
ATOM     14 CL   UNL     1       2.712   2.974  20.534  0.00  0.00    +0.000 Cl
ENDBRANCH   8  11
BRANCH   1  15
ATOM     15  C   UNL     1       1.937  10.627  18.398  0.00  0.00    +0.000 C 
BRANCH  15  16
ATOM     16  C   UNL     1       0.841  11.615  18.848  0.00  0.00    +0.000 C 
ATOM     17  C   UNL     1       0.800  11.709  20.382  0.00  0.00    +0.000 C 
BRANCH  16  19
ATOM     18  C   UNL     1      -1.470  11.222  19.441  0.00  0.00    +0.000 C 
ATOM     19  O   UNL     1      -0.450  11.121  18.454  0.00  0.00    +0.000 OA
ENDBRANCH  16  19
BRANCH  16  20
ATOM     20  O   UNL     1       1.116  12.890  18.267  0.00  0.00    +0.000 OA
ATOM     21  C   UNL     1       2.483  13.297  18.338  0.00  0.00    +0.000 C 
ENDBRANCH  16  20
ENDBRANCH  15  16
ENDBRANCH   1  15
TORSDOF 5
ENDMDL
MODEL 4
REMARK VINA RESULT:      -5.2      0.680      1.869
REMARK  Name = 
REMARK  8 active torsions:
REMARK  status: ('A' for Active; 'I' for Inactive)
REMARK    1  A    between atoms: C_1  and  O_2
REMARK    2  A    between atoms: O_2  and  C_3
REMARK    3  A    between atoms: C_3  and  C_4
REMARK    4  A    between atoms: C_3  and  C_5
REMARK    5  A    between atoms: C_3  and  O_20
REMARK    6  A    between atoms: C_5  and  C_6
REMARK    7  A    between atoms: C_13  and  C_14
REMARK    8  A    between atoms: O_20  and  C_21
REMARK                            x       y       z     vdW  Elec       q    Type
REMARK                         _______ _______ _______ _____ _____    ______ ____
ROOT
ATOM      1  C   UNL     1       1.380   9.141  18.173  0.00  0.00    +0.000 C 
ATOM      2  O   UNL     1       1.032   8.372  19.486  0.00  0.00    +0.000 OA
ATOM      3  C   UNL     1       2.402   7.883  19.363  0.00  0.00    +0.000 C 
ATOM      4  C   UNL     1       2.154   7.854  17.841  0.00  0.00    +0.000 C 
ATOM      5  O   UNL     1       3.419   7.428  17.341  0.00  0.00    +0.000 OA
ATOM      6  C   UNL     1       3.732   6.277  18.192  0.00  0.00    +0.000 C 
ATOM      7  O   UNL     1       3.224   5.064  17.660  0.00  0.00    +0.000 OA
ATOM      8  C   UNL     1       2.113   4.631  18.475  0.00  0.00    +0.000 C 
ATOM      9  O   UNL     1       1.964   5.485  19.622  0.00  0.00    +0.000 OA
ATOM     10  C   UNL     1       2.962   6.489  19.519  0.00  0.00    +0.000 C 
ENDROOT
BRANCH   8  11
ATOM     11  C   UNL     1       2.165   3.097  18.834  0.00  0.00    +0.000 C 
ATOM     12 CL   UNL     1       0.542   2.317  18.706  0.00  0.00    +0.000 Cl
ATOM     13 CL   UNL     1       3.280   2.177  17.757  0.00  0.00    +0.000 Cl
ATOM     14 CL   UNL     1       2.730   2.868  20.532  0.00  0.00    +0.000 Cl
ENDBRANCH   8  11
BRANCH   1  15
ATOM     15  C   UNL     1       1.852  10.546  18.560  0.00  0.00    +0.000 C 
BRANCH  15  16
ATOM     16  C   UNL     1       0.752  11.489  19.091  0.00  0.00    +0.000 C 
ATOM     17  C   UNL     1       0.943  12.906  18.529  0.00  0.00    +0.000 C 
BRANCH  16  19
ATOM     18  C   UNL     1      -0.115  10.920  21.276  0.00  0.00    +0.000 C 
ATOM     19  O   UNL     1       0.870  11.616  20.518  0.00  0.00    +0.000 OA
ENDBRANCH  16  19
BRANCH  16  20
ATOM     20  O   UNL     1      -0.519  10.957  18.713  0.00  0.00    +0.000 OA
ATOM     21  C   UNL     1      -1.404  11.898  18.107  0.00  0.00    +0.000 C 
ENDBRANCH  16  20
ENDBRANCH  15  16
ENDBRANCH   1  15
TORSDOF 5
ENDMDL
MODEL 5
REMARK VINA RESULT:      -5.2      0.590      1.330
REMARK  Name = 
REMARK  8 active torsions:
REMARK  status: ('A' for Active; 'I' for Inactive)
REMARK    1  A    between atoms: C_1  and  O_2
REMARK    2  A    between atoms: O_2  and  C_3
REMARK    3  A    between atoms: C_3  and  C_4
REMARK    4  A    between atoms: C_3  and  C_5
REMARK    5  A    between atoms: C_3  and  O_20
REMARK    6  A    between atoms: C_5  and  C_6
REMARK    7  A    between atoms: C_13  and  C_14
REMARK    8  A    between atoms: O_20  and  C_21
REMARK                            x       y       z     vdW  Elec       q    Type
REMARK                         _______ _______ _______ _____ _____    ______ ____
ROOT
ATOM      1  C   UNL     1       1.350   9.175  18.157  0.00  0.00    +0.000 C 
ATOM      2  O   UNL     1       0.991   8.401  19.464  0.00  0.00    +0.000 OA
ATOM      3  C   UNL     1       2.365   7.919  19.355  0.00  0.00    +0.000 C 
ATOM      4  C   UNL     1       2.134   7.892  17.830  0.00  0.00    +0.000 C 
ATOM      5  O   UNL     1       3.406   7.474  17.343  0.00  0.00    +0.000 OA
ATOM      6  C   UNL     1       3.715   6.321  18.194  0.00  0.00    +0.000 C 
ATOM      7  O   UNL     1       3.218   5.108  17.654  0.00  0.00    +0.000 OA
ATOM      8  C   UNL     1       2.101   4.668  18.455  0.00  0.00    +0.000 C 
ATOM      9  O   UNL     1       1.935   5.518  19.603  0.00  0.00    +0.000 OA
ATOM     10  C   UNL     1       2.930   6.527  19.513  0.00  0.00    +0.000 C 
ENDROOT
BRANCH   8  11
ATOM     11  C   UNL     1       2.155   3.133  18.811  0.00  0.00    +0.000 C 
ATOM     12 CL   UNL     1       2.758   2.139  17.430  0.00  0.00    +0.000 Cl
ATOM     13 CL   UNL     1       3.232   2.793  20.217  0.00  0.00    +0.000 Cl
ATOM     14 CL   UNL     1       0.508   2.525  19.222  0.00  0.00    +0.000 Cl
ENDBRANCH   8  11
BRANCH   1  15
ATOM     15  C   UNL     1       1.812  10.581  18.553  0.00  0.00    +0.000 C 
BRANCH  15  16
ATOM     16  C   UNL     1       0.696  11.526  19.049  0.00  0.00    +0.000 C 
ATOM     17  C   UNL     1      -0.674  11.055  18.537  0.00  0.00    +0.000 C 
BRANCH  16  19
ATOM     18  C   UNL     1      -0.276  13.652  18.431  0.00  0.00    +0.000 C 
ATOM     19  O   UNL     1       0.890  12.838  18.493  0.00  0.00    +0.000 OA
ENDBRANCH  16  19
BRANCH  16  20
ATOM     20  O   UNL     1       0.727  11.549  20.476  0.00  0.00    +0.000 OA
ATOM     21  C   UNL     1      -0.467  11.088  21.107  0.00  0.00    +0.000 C 
ENDBRANCH  16  20
ENDBRANCH  15  16
ENDBRANCH   1  15
TORSDOF 5
ENDMDL
MODEL 6
REMARK VINA RESULT:      -5.2      5.006      7.845
REMARK  Name = 
REMARK  8 active torsions:
REMARK  status: ('A' for Active; 'I' for Inactive)
REMARK    1  A    between atoms: C_1  and  O_2
REMARK    2  A    between atoms: O_2  and  C_3
REMARK    3  A    between atoms: C_3  and  C_4
REMARK    4  A    between atoms: C_3  and  C_5
REMARK    5  A    between atoms: C_3  and  O_20
REMARK    6  A    between atoms: C_5  and  C_6
REMARK    7  A    between atoms: C_13  and  C_14
REMARK    8  A    between atoms: O_20  and  C_21
REMARK                            x       y       z     vdW  Elec       q    Type
REMARK                         _______ _______ _______ _____ _____    ______ ____
ROOT
ATOM      1  C   UNL     1       1.752   7.827  20.546  0.00  0.00    +0.000 C 
ATOM      2  O   UNL     1       1.465   8.491  21.929  0.00  0.00    +0.000 OA
ATOM      3  C   UNL     1       0.283   9.008  21.245  0.00  0.00    +0.000 C 
ATOM      4  C   UNL     1       1.181   9.146  19.999  0.00  0.00    +0.000 C 
ATOM      5  O   UNL     1       0.263   9.627  19.021  0.00  0.00    +0.000 OA
ATOM      6  C   UNL     1      -0.419  10.716  19.724  0.00  0.00    +0.000 C 
ATOM      7  O   UNL     1       0.249  11.958  19.565  0.00  0.00    +0.000 OA
ATOM      8  C   UNL     1       0.872  12.312  20.817  0.00  0.00    +0.000 C 
ATOM      9  O   UNL     1       0.512  11.374  21.845  0.00  0.00    +0.000 OA
ATOM     10  C   UNL     1      -0.316  10.395  21.236  0.00  0.00    +0.000 C 
ENDROOT
BRANCH   8  11
ATOM     11  C   UNL     1       0.636  13.816  21.227  0.00  0.00    +0.000 C 
ATOM     12 CL   UNL     1      -0.510  13.968  22.614  0.00  0.00    +0.000 Cl
ATOM     13 CL   UNL     1       2.163  14.644  21.710  0.00  0.00    +0.000 Cl
ATOM     14 CL   UNL     1      -0.075  14.738  19.849  0.00  0.00    +0.000 Cl
ENDBRANCH   8  11
BRANCH   1  15
ATOM     15  C   UNL     1       1.185   6.405  20.579  0.00  0.00    +0.000 C 
BRANCH  15  16
ATOM     16  C   UNL     1       2.202   5.282  20.284  0.00  0.00    +0.000 C 
ATOM     17  C   UNL     1       1.633   4.301  19.247  0.00  0.00    +0.000 C 
BRANCH  16  19
ATOM     18  C   UNL     1       1.861   3.200  21.465  0.00  0.00    +0.000 C 
ATOM     19  O   UNL     1       2.427   4.506  21.473  0.00  0.00    +0.000 OA
ENDBRANCH  16  19
BRANCH  16  20
ATOM     20  O   UNL     1       3.409   5.880  19.811  0.00  0.00    +0.000 OA
ATOM     21  C   UNL     1       4.243   5.015  19.040  0.00  0.00    +0.000 C 
ENDBRANCH  16  20
ENDBRANCH  15  16
ENDBRANCH   1  15
TORSDOF 5
ENDMDL
MODEL 7
REMARK VINA RESULT:      -5.2      2.081      3.262
REMARK  Name = 
REMARK  8 active torsions:
REMARK  status: ('A' for Active; 'I' for Inactive)
REMARK    1  A    between atoms: C_1  and  O_2
REMARK    2  A    between atoms: O_2  and  C_3
REMARK    3  A    between atoms: C_3  and  C_4
REMARK    4  A    between atoms: C_3  and  C_5
REMARK    5  A    between atoms: C_3  and  O_20
REMARK    6  A    between atoms: C_5  and  C_6
REMARK    7  A    between atoms: C_13  and  C_14
REMARK    8  A    between atoms: O_20  and  C_21
REMARK                            x       y       z     vdW  Elec       q    Type
REMARK                         _______ _______ _______ _____ _____    ______ ____
ROOT
ATOM      1  C   UNL     1       1.758   9.491  18.626  0.00  0.00    +0.000 C 
ATOM      2  O   UNL     1       2.184   8.829  17.279  0.00  0.00    +0.000 OA
ATOM      3  C   UNL     1       1.700   7.610  17.921  0.00  0.00    +0.000 C 
ATOM      4  C   UNL     1       2.288   8.179  19.229  0.00  0.00    +0.000 C 
ATOM      5  O   UNL     1       1.927   7.179  20.178  0.00  0.00    +0.000 OA
ATOM      6  C   UNL     1       2.333   5.939  19.511  0.00  0.00    +0.000 C 
ATOM      7  O   UNL     1       3.677   5.590  19.801  0.00  0.00    +0.000 OA
ATOM      8  C   UNL     1       4.477   5.807  18.619  0.00  0.00    +0.000 C 
ATOM      9  O   UNL     1       3.645   6.176  17.507  0.00  0.00    +0.000 OA
ATOM     10  C   UNL     1       2.312   6.231  17.990  0.00  0.00    +0.000 C 
ENDROOT
BRANCH   8  11
ATOM     11  C   UNL     1       5.459   4.614  18.304  0.00  0.00    +0.000 C 
ATOM     12 CL   UNL     1       5.353   4.090  16.580  0.00  0.00    +0.000 Cl
ATOM     13 CL   UNL     1       7.181   5.041  18.623  0.00  0.00    +0.000 Cl
ATOM     14 CL   UNL     1       5.051   3.180  19.319  0.00  0.00    +0.000 Cl
ENDBRANCH   8  11
BRANCH   1  15
ATOM     15  C   UNL     1       0.337  10.037  18.457  0.00  0.00    +0.000 C 
BRANCH  15  16
ATOM     16  C   UNL     1      -0.321  10.575  19.745  0.00  0.00    +0.000 C 
ATOM     17  C   UNL     1       0.628  11.542  20.470  0.00  0.00    +0.000 C 
BRANCH  16  19
ATOM     18  C   UNL     1      -0.037   9.686  21.976  0.00  0.00    +0.000 C 
ATOM     19  O   UNL     1      -0.548   9.490  20.662  0.00  0.00    +0.000 OA
ENDBRANCH  16  19
BRANCH  16  20
ATOM     20  O   UNL     1      -1.541  11.227  19.390  0.00  0.00    +0.000 OA
ATOM     21  C   UNL     1      -2.181  10.705  18.226  0.00  0.00    +0.000 C 
ENDBRANCH  16  20
ENDBRANCH  15  16
ENDBRANCH   1  15
TORSDOF 5
ENDMDL
MODEL 8
REMARK VINA RESULT:      -5.2      4.898      7.617
REMARK  Name = 
REMARK  8 active torsions:
REMARK  status: ('A' for Active; 'I' for Inactive)
REMARK    1  A    between atoms: C_1  and  O_2
REMARK    2  A    between atoms: O_2  and  C_3
REMARK    3  A    between atoms: C_3  and  C_4
REMARK    4  A    between atoms: C_3  and  C_5
REMARK    5  A    between atoms: C_3  and  O_20
REMARK    6  A    between atoms: C_5  and  C_6
REMARK    7  A    between atoms: C_13  and  C_14
REMARK    8  A    between atoms: O_20  and  C_21
REMARK                            x       y       z     vdW  Elec       q    Type
REMARK                         _______ _______ _______ _____ _____    ______ ____
ROOT
ATOM      1  C   UNL     1       1.882   7.682  20.460  0.00  0.00    +0.000 C 
ATOM      2  O   UNL     1       1.579   8.501  21.753  0.00  0.00    +0.000 OA
ATOM      3  C   UNL     1       0.474   9.028  20.957  0.00  0.00    +0.000 C 
ATOM      4  C   UNL     1       1.439   8.976  19.756  0.00  0.00    +0.000 C 
ATOM      5  O   UNL     1       0.609   9.418  18.686  0.00  0.00    +0.000 OA
ATOM      6  C   UNL     1      -0.023  10.619  19.241  0.00  0.00    +0.000 C 
ATOM      7  O   UNL     1       0.744  11.788  18.999  0.00  0.00    +0.000 OA
ATOM      8  C   UNL     1       1.331  12.222  20.245  0.00  0.00    +0.000 C 
ATOM      9  O   UNL     1       0.851  11.420  21.337  0.00  0.00    +0.000 OA
ATOM     10  C   UNL     1      -0.017  10.445  20.781  0.00  0.00    +0.000 C 
ENDROOT
BRANCH   8  11
ATOM     11  C   UNL     1       1.189  13.773  20.492  0.00  0.00    +0.000 C 
ATOM     12 CL   UNL     1       2.794  14.591  20.595  0.00  0.00    +0.000 Cl
ATOM     13 CL   UNL     1       0.259  14.594  19.184  0.00  0.00    +0.000 Cl
ATOM     14 CL   UNL     1       0.334  14.084  22.050  0.00  0.00    +0.000 Cl
ENDBRANCH   8  11
BRANCH   1  15
ATOM     15  C   UNL     1       1.208   6.313  20.599  0.00  0.00    +0.000 C 
BRANCH  15  16
ATOM     16  C   UNL     1       2.105   5.100  20.273  0.00  0.00    +0.000 C 
ATOM     17  C   UNL     1       3.428   5.565  19.643  0.00  0.00    +0.000 C 
BRANCH  16  19
ATOM     18  C   UNL     1       1.830   4.561  17.932  0.00  0.00    +0.000 C 
ATOM     19  O   UNL     1       1.468   4.279  19.279  0.00  0.00    +0.000 OA
ENDBRANCH  16  19
BRANCH  16  20
ATOM     20  O   UNL     1       2.342   4.376  21.481  0.00  0.00    +0.000 OA
ATOM     21  C   UNL     1       1.787   3.061  21.507  0.00  0.00    +0.000 C 
ENDBRANCH  16  20
ENDBRANCH  15  16
ENDBRANCH   1  15
TORSDOF 5
ENDMDL
MODEL 9
REMARK VINA RESULT:      -5.2      5.058      7.788
REMARK  Name = 
REMARK  8 active torsions:
REMARK  status: ('A' for Active; 'I' for Inactive)
REMARK    1  A    between atoms: C_1  and  O_2
REMARK    2  A    between atoms: O_2  and  C_3
REMARK    3  A    between atoms: C_3  and  C_4
REMARK    4  A    between atoms: C_3  and  C_5
REMARK    5  A    between atoms: C_3  and  O_20
REMARK    6  A    between atoms: C_5  and  C_6
REMARK    7  A    between atoms: C_13  and  C_14
REMARK    8  A    between atoms: O_20  and  C_21
REMARK                            x       y       z     vdW  Elec       q    Type
REMARK                         _______ _______ _______ _____ _____    ______ ____
ROOT
ATOM      1  C   UNL     1       1.840   8.004  20.521  0.00  0.00    +0.000 C 
ATOM      2  O   UNL     1       1.518   8.548  21.947  0.00  0.00    +0.000 OA
ATOM      3  C   UNL     1       0.258   8.947  21.326  0.00  0.00    +0.000 C 
ATOM      4  C   UNL     1       1.090   9.268  20.068  0.00  0.00    +0.000 C 
ATOM      5  O   UNL     1       0.087   9.680  19.143  0.00  0.00    +0.000 OA
ATOM      6  C   UNL     1      -0.704  10.633  19.928  0.00  0.00    +0.000 C 
ATOM      7  O   UNL     1      -0.204  11.956  19.825  0.00  0.00    +0.000 OA
ATOM      8  C   UNL     1       0.411  12.317  21.080  0.00  0.00    +0.000 C 
ATOM      9  O   UNL     1       0.206  11.285  22.060  0.00  0.00    +0.000 OA
ATOM     10  C   UNL     1      -0.511  10.244  21.415  0.00  0.00    +0.000 C 
ENDROOT
BRANCH   8  11
ATOM     11  C   UNL     1      -0.000  13.754  21.584  0.00  0.00    +0.000 C 
ATOM     12 CL   UNL     1      -0.988  14.643  20.363  0.00  0.00    +0.000 Cl
ATOM     13 CL   UNL     1      -0.966  13.696  23.106  0.00  0.00    +0.000 Cl
ATOM     14 CL   UNL     1       1.469  14.751  21.905  0.00  0.00    +0.000 Cl
ENDBRANCH   8  11
BRANCH   1  15
ATOM     15  C   UNL     1       1.459   6.521  20.484  0.00  0.00    +0.000 C 
BRANCH  15  16
ATOM     16  C   UNL     1       2.285   5.652  19.511  0.00  0.00    +0.000 C 
ATOM     17  C   UNL     1       2.476   6.379  18.171  0.00  0.00    +0.000 C 
BRANCH  16  19
ATOM     18  C   UNL     1       1.044   3.743  20.326  0.00  0.00    +0.000 C 
ATOM     19  O   UNL     1       1.561   4.448  19.203  0.00  0.00    +0.000 OA
ENDBRANCH  16  19
BRANCH  16  20
ATOM     20  O   UNL     1       3.545   5.367  20.120  0.00  0.00    +0.000 OA
ATOM     21  C   UNL     1       4.571   4.966  19.212  0.00  0.00    +0.000 C 
ENDBRANCH  16  20
ENDBRANCH  15  16
ENDBRANCH   1  15
TORSDOF 5
ENDMDL
