MODEL 1
REMARK VINA RESULT:      -9.0      0.000      0.000
REMARK  Name = 
REMARK  8 active torsions:
REMARK  status: ('A' for Active; 'I' for Inactive)
REMARK    1  A    between atoms: C_1  and  O_2
REMARK    2  A    between atoms: O_2  and  C_3
REMARK    3  A    between atoms: C_7  and  O_8
REMARK    4  A    between atoms: O_8  and  C_9
REMARK    5  A    between atoms: C_9  and  C_11
REMARK    6  A    between atoms: C_16  and  N_17
REMARK    7  A    between atoms: N_17  and  C_18
REMARK    8  A    between atoms: C_22  and  C_23
REMARK                            x       y       z     vdW  Elec       q    Type
REMARK                         _______ _______ _______ _____ _____    ______ ____
ROOT
ATOM      1  C   UNL     1       6.444   5.916  17.135  0.00  0.00    +0.000 A 
ATOM      2  C   UNL     1       7.348   6.965  17.385  0.00  0.00    +0.000 A 
ATOM      3  C   UNL     1       8.079   6.984  18.564  0.00  0.00    +0.000 A 
ATOM      4  C   UNL     1       7.917   5.932  19.428  0.00  0.00    +0.000 A 
ATOM      5  N   UNL     1       7.141   4.858  19.166  0.00  0.00    +0.000 NA
ATOM      6  C   UNL     1       6.400   4.833  18.025  0.00  0.00    +0.000 A 
ENDROOT
BRANCH   1   7
ATOM      7  C   UNL     1       5.531   5.995  15.966  0.00  0.00    +0.000 C 
ATOM      8  O   UNL     1       5.027   7.019  15.534  0.00  0.00    +0.000 OA
BRANCH   7   9
ATOM      9  O   UNL     1       5.422   4.722  15.415  0.00  0.00    +0.000 OA
BRANCH   9  14
ATOM     10  C   UNL     1       5.890   3.084  12.134  0.00  0.00    +0.000 A 
ATOM     11  C   UNL     1       7.068   3.712  11.721  0.00  0.00    +0.000 A 
ATOM     12  C   UNL     1       7.664   4.699  12.515  0.00  0.00    +0.000 A 
ATOM     13  C   UNL     1       7.080   5.061  13.727  0.00  0.00    +0.000 A 
ATOM     14  C   UNL     1       5.898   4.441  14.122  0.00  0.00    +0.000 A 
ATOM     15  C   UNL     1       5.306   3.449  13.344  0.00  0.00    +0.000 A 
BRANCH  10  17
ATOM     16  C   UNL     1       6.293   1.012  11.052  0.00  0.00    +0.000 C 
ATOM     17  O   UNL     1       5.415   2.108  11.297  0.00  0.00    +0.000 OA
ENDBRANCH  10  17
ENDBRANCH   9  14
ENDBRANCH   7   9
ENDBRANCH   1   7
BRANCH   6  18
ATOM     18  N   UNL     1       5.652   3.667  17.757  0.00  0.00    +0.000 N 
ATOM     19  H   UNL     1       5.976   3.166  16.931  0.00  0.00    +0.000 HD
BRANCH  18  20
ATOM     20  C   UNL     1       4.345   3.359  18.188  0.00  0.00    +0.000 A 
ATOM     21  C   UNL     1       3.594   2.364  17.556  0.00  0.00    +0.000 A 
ATOM     22  C   UNL     1       2.296   2.130  17.981  0.00  0.00    +0.000 A 
ATOM     23  N   UNL     1       1.699   2.802  18.989  0.00  0.00    +0.000 NA
ATOM     24  C   UNL     1       2.427   3.772  19.612  0.00  0.00    +0.000 A 
ATOM     25  C   UNL     1       3.738   4.058  19.231  0.00  0.00    +0.000 A 
BRANCH  24  26
ATOM     26  C   UNL     1       1.808   4.574  20.745  0.00  0.00    +0.000 C 
ATOM     27  F   UNL     1       2.150   4.149  21.995  0.00  0.00    +0.000 F 
ATOM     28  F   UNL     1       2.154   5.895  20.700  0.00  0.00    +0.000 F 
ATOM     29  F   UNL     1       0.442   4.558  20.714  0.00  0.00    +0.000 F 
ENDBRANCH  24  26
ENDBRANCH  18  20
ENDBRANCH   6  18
TORSDOF 7
ENDMDL
MODEL 2
REMARK VINA RESULT:      -8.9      2.956      5.347
REMARK  Name = 
REMARK  8 active torsions:
REMARK  status: ('A' for Active; 'I' for Inactive)
REMARK    1  A    between atoms: C_1  and  O_2
REMARK    2  A    between atoms: O_2  and  C_3
REMARK    3  A    between atoms: C_7  and  O_8
REMARK    4  A    between atoms: O_8  and  C_9
REMARK    5  A    between atoms: C_9  and  C_11
REMARK    6  A    between atoms: C_16  and  N_17
REMARK    7  A    between atoms: N_17  and  C_18
REMARK    8  A    between atoms: C_22  and  C_23
REMARK                            x       y       z     vdW  Elec       q    Type
REMARK                         _______ _______ _______ _____ _____    ______ ____
ROOT
ATOM      1  C   UNL     1       5.996   6.175  17.361  0.00  0.00    +0.000 A 
ATOM      2  C   UNL     1       6.959   7.138  17.717  0.00  0.00    +0.000 A 
ATOM      3  C   UNL     1       7.907   6.845  18.687  0.00  0.00    +0.000 A 
ATOM      4  C   UNL     1       7.892   5.587  19.230  0.00  0.00    +0.000 A 
ATOM      5  N   UNL     1       7.052   4.607  18.830  0.00  0.00    +0.000 NA
ATOM      6  C   UNL     1       6.100   4.883  17.898  0.00  0.00    +0.000 A 
ENDROOT
BRANCH   1   7
ATOM      7  C   UNL     1       4.874   6.553  16.465  0.00  0.00    +0.000 C 
ATOM      8  O   UNL     1       4.992   6.956  15.319  0.00  0.00    +0.000 OA
BRANCH   7   9
ATOM      9  O   UNL     1       3.681   6.290  17.131  0.00  0.00    +0.000 OA
BRANCH   9  14
ATOM     10  C   UNL     1       1.858   7.923  19.903  0.00  0.00    +0.000 A 
ATOM     11  C   UNL     1       1.528   9.134  19.288  0.00  0.00    +0.000 A 
ATOM     12  C   UNL     1       1.951   9.408  17.983  0.00  0.00    +0.000 A 
ATOM     13  C   UNL     1       2.709   8.469  17.287  0.00  0.00    +0.000 A 
ATOM     14  C   UNL     1       3.047   7.272  17.913  0.00  0.00    +0.000 A 
ATOM     15  C   UNL     1       2.619   6.986  19.207  0.00  0.00    +0.000 A 
BRANCH  10  17
ATOM     16  C   UNL     1       0.962   8.931  21.853  0.00  0.00    +0.000 C 
ATOM     17  O   UNL     1       1.362   7.746  21.168  0.00  0.00    +0.000 OA
ENDBRANCH  10  17
ENDBRANCH   9  14
ENDBRANCH   7   9
ENDBRANCH   1   7
BRANCH   6  18
ATOM     18  N   UNL     1       5.285   3.818  17.460  0.00  0.00    +0.000 N 
ATOM     19  H   UNL     1       5.297   3.695  16.449  0.00  0.00    +0.000 HD
BRANCH  18  20
ATOM     20  C   UNL     1       4.199   3.225  18.138  0.00  0.00    +0.000 A 
ATOM     21  C   UNL     1       3.628   2.035  17.679  0.00  0.00    +0.000 A 
ATOM     22  C   UNL     1       2.531   1.515  18.347  0.00  0.00    +0.000 A 
ATOM     23  N   UNL     1       1.971   2.084  19.437  0.00  0.00    +0.000 NA
ATOM     24  C   UNL     1       2.525   3.244  19.891  0.00  0.00    +0.000 A 
ATOM     25  C   UNL     1       3.629   3.820  19.263  0.00  0.00    +0.000 A 
BRANCH  24  26
ATOM     26  C   UNL     1       1.933   3.943  21.105  0.00  0.00    +0.000 C 
ATOM     27  F   UNL     1       1.656   3.117  22.155  0.00  0.00    +0.000 F 
ATOM     28  F   UNL     1       2.759   4.909  21.606  0.00  0.00    +0.000 F 
ATOM     29  F   UNL     1       0.760   4.583  20.822  0.00  0.00    +0.000 F 
ENDBRANCH  24  26
ENDBRANCH  18  20
ENDBRANCH   6  18
TORSDOF 7
ENDMDL
MODEL 3
REMARK VINA RESULT:      -8.5      3.739      7.272
REMARK  Name = 
REMARK  8 active torsions:
REMARK  status: ('A' for Active; 'I' for Inactive)
REMARK    1  A    between atoms: C_1  and  O_2
REMARK    2  A    between atoms: O_2  and  C_3
REMARK    3  A    between atoms: C_7  and  O_8
REMARK    4  A    between atoms: O_8  and  C_9
REMARK    5  A    between atoms: C_9  and  C_11
REMARK    6  A    between atoms: C_16  and  N_17
REMARK    7  A    between atoms: N_17  and  C_18
REMARK    8  A    between atoms: C_22  and  C_23
REMARK                            x       y       z     vdW  Elec       q    Type
REMARK                         _______ _______ _______ _____ _____    ______ ____
ROOT
ATOM      1  C   UNL     1       2.406   3.995  19.094  0.00  0.00    +0.000 A 
ATOM      2  C   UNL     1       1.815   4.087  20.367  0.00  0.00    +0.000 A 
ATOM      3  C   UNL     1       2.114   3.146  21.341  0.00  0.00    +0.000 A 
ATOM      4  C   UNL     1       3.029   2.175  21.025  0.00  0.00    +0.000 A 
ATOM      5  N   UNL     1       3.695   2.126  19.851  0.00  0.00    +0.000 NA
ATOM      6  C   UNL     1       3.397   3.027  18.876  0.00  0.00    +0.000 A 
ENDROOT
BRANCH   1   7
ATOM      7  C   UNL     1       1.943   4.888  18.001  0.00  0.00    +0.000 C 
ATOM      8  O   UNL     1       0.974   4.685  17.288  0.00  0.00    +0.000 OA
BRANCH   7   9
ATOM      9  O   UNL     1       2.754   6.019  17.994  0.00  0.00    +0.000 OA
BRANCH   9  14
ATOM     10  C   UNL     1       1.462   8.549  20.360  0.00  0.00    +0.000 A 
ATOM     11  C   UNL     1       1.136   9.569  19.461  0.00  0.00    +0.000 A 
ATOM     12  C   UNL     1       1.389   9.420  18.093  0.00  0.00    +0.000 A 
ATOM     13  C   UNL     1       1.972   8.246  17.619  0.00  0.00    +0.000 A 
ATOM     14  C   UNL     1       2.309   7.243  18.523  0.00  0.00    +0.000 A 
ATOM     15  C   UNL     1       2.048   7.378  19.884  0.00  0.00    +0.000 A 
BRANCH  10  17
ATOM     16  C   UNL     1      -0.248   8.989  21.943  0.00  0.00    +0.000 C 
ATOM     17  O   UNL     1       1.137   8.787  21.670  0.00  0.00    +0.000 OA
ENDBRANCH  10  17
ENDBRANCH   9  14
ENDBRANCH   7   9
ENDBRANCH   1   7
BRANCH   6  18
ATOM     18  N   UNL     1       4.158   2.982  17.689  0.00  0.00    +0.000 N 
ATOM     19  H   UNL     1       4.072   2.097  17.192  0.00  0.00    +0.000 HD
BRANCH  18  20
ATOM     20  C   UNL     1       5.278   3.770  17.349  0.00  0.00    +0.000 A 
ATOM     21  C   UNL     1       5.694   3.893  16.021  0.00  0.00    +0.000 A 
ATOM     22  C   UNL     1       6.830   4.636  15.740  0.00  0.00    +0.000 A 
ATOM     23  N   UNL     1       7.569   5.270  16.676  0.00  0.00    +0.000 NA
ATOM     24  C   UNL     1       7.167   5.155  17.974  0.00  0.00    +0.000 A 
ATOM     25  C   UNL     1       6.034   4.420  18.324  0.00  0.00    +0.000 A 
BRANCH  24  26
ATOM     26  C   UNL     1       7.964   5.832  19.078  0.00  0.00    +0.000 C 
ATOM     27  F   UNL     1       7.263   6.060  20.225  0.00  0.00    +0.000 F 
ATOM     28  F   UNL     1       9.057   5.103  19.454  0.00  0.00    +0.000 F 
ATOM     29  F   UNL     1       8.455   7.049  18.699  0.00  0.00    +0.000 F 
ENDBRANCH  24  26
ENDBRANCH  18  20
ENDBRANCH   6  18
TORSDOF 7
ENDMDL
MODEL 4
REMARK VINA RESULT:      -8.4      3.376      5.699
REMARK  Name = 
REMARK  8 active torsions:
REMARK  status: ('A' for Active; 'I' for Inactive)
REMARK    1  A    between atoms: C_1  and  O_2
REMARK    2  A    between atoms: O_2  and  C_3
REMARK    3  A    between atoms: C_7  and  O_8
REMARK    4  A    between atoms: O_8  and  C_9
REMARK    5  A    between atoms: C_9  and  C_11
REMARK    6  A    between atoms: C_16  and  N_17
REMARK    7  A    between atoms: N_17  and  C_18
REMARK    8  A    between atoms: C_22  and  C_23
REMARK                            x       y       z     vdW  Elec       q    Type
REMARK                         _______ _______ _______ _____ _____    ______ ____
ROOT
ATOM      1  C   UNL     1       1.984   3.750  19.262  0.00  0.00    +0.000 A 
ATOM      2  C   UNL     1       1.330   2.643  19.835  0.00  0.00    +0.000 A 
ATOM      3  C   UNL     1       1.382   2.441  21.207  0.00  0.00    +0.000 A 
ATOM      4  C   UNL     1       2.040   3.377  21.962  0.00  0.00    +0.000 A 
ATOM      5  N   UNL     1       2.581   4.506  21.454  0.00  0.00    +0.000 NA
ATOM      6  C   UNL     1       2.561   4.708  20.108  0.00  0.00    +0.000 A 
ENDROOT
BRANCH   1   7
ATOM      7  C   UNL     1       2.086   3.860  17.785  0.00  0.00    +0.000 C 
ATOM      8  O   UNL     1       1.355   4.532  17.076  0.00  0.00    +0.000 OA
BRANCH   7   9
ATOM      9  O   UNL     1       3.200   3.135  17.373  0.00  0.00    +0.000 OA
BRANCH   9  14
ATOM     10  C   UNL     1       6.567   4.610  17.763  0.00  0.00    +0.000 A 
ATOM     11  C   UNL     1       6.665   5.301  16.551  0.00  0.00    +0.000 A 
ATOM     12  C   UNL     1       5.635   5.231  15.607  0.00  0.00    +0.000 A 
ATOM     13  C   UNL     1       4.500   4.467  15.873  0.00  0.00    +0.000 A 
ATOM     14  C   UNL     1       4.419   3.770  17.075  0.00  0.00    +0.000 A 
ATOM     15  C   UNL     1       5.434   3.844  18.025  0.00  0.00    +0.000 A 
BRANCH  10  17
ATOM     16  C   UNL     1       7.899   6.122  19.014  0.00  0.00    +0.000 C 
ATOM     17  O   UNL     1       7.617   4.779  18.627  0.00  0.00    +0.000 OA
ENDBRANCH  10  17
ENDBRANCH   9  14
ENDBRANCH   7   9
ENDBRANCH   1   7
BRANCH   6  18
ATOM     18  N   UNL     1       3.079   5.928  19.623  0.00  0.00    +0.000 N 
ATOM     19  H   UNL     1       4.090   6.000  19.722  0.00  0.00    +0.000 HD
BRANCH  18  20
ATOM     20  C   UNL     1       2.392   7.145  19.435  0.00  0.00    +0.000 A 
ATOM     21  C   UNL     1       2.329   7.749  18.177  0.00  0.00    +0.000 A 
ATOM     22  C   UNL     1       1.687   8.970  18.049  0.00  0.00    +0.000 A 
ATOM     23  N   UNL     1       1.098   9.624  19.074  0.00  0.00    +0.000 NA
ATOM     24  C   UNL     1       1.154   9.039  20.304  0.00  0.00    +0.000 A 
ATOM     25  C   UNL     1       1.787   7.812  20.500  0.00  0.00    +0.000 A 
BRANCH  24  26
ATOM     26  C   UNL     1       0.523   9.732  21.502  0.00  0.00    +0.000 C 
ATOM     27  F   UNL     1       1.041   9.361  22.708  0.00  0.00    +0.000 F 
ATOM     28  F   UNL     1       0.652  11.091  21.448  0.00  0.00    +0.000 F 
ATOM     29  F   UNL     1      -0.821   9.501  21.593  0.00  0.00    +0.000 F 
ENDBRANCH  24  26
ENDBRANCH  18  20
ENDBRANCH   6  18
TORSDOF 7
ENDMDL
MODEL 5
REMARK VINA RESULT:      -8.4      4.453      8.007
REMARK  Name = 
REMARK  8 active torsions:
REMARK  status: ('A' for Active; 'I' for Inactive)
REMARK    1  A    between atoms: C_1  and  O_2
REMARK    2  A    between atoms: O_2  and  C_3
REMARK    3  A    between atoms: C_7  and  O_8
REMARK    4  A    between atoms: O_8  and  C_9
REMARK    5  A    between atoms: C_9  and  C_11
REMARK    6  A    between atoms: C_16  and  N_17
REMARK    7  A    between atoms: N_17  and  C_18
REMARK    8  A    between atoms: C_22  and  C_23
REMARK                            x       y       z     vdW  Elec       q    Type
REMARK                         _______ _______ _______ _____ _____    ______ ____
ROOT
ATOM      1  C   UNL     1       3.061   4.378  18.622  0.00  0.00    +0.000 A 
ATOM      2  C   UNL     1       1.711   4.115  18.917  0.00  0.00    +0.000 A 
ATOM      3  C   UNL     1       1.149   2.895  18.565  0.00  0.00    +0.000 A 
ATOM      4  C   UNL     1       1.968   1.966  17.978  0.00  0.00    +0.000 A 
ATOM      5  N   UNL     1       3.292   2.148  17.784  0.00  0.00    +0.000 NA
ATOM      6  C   UNL     1       3.854   3.346  18.100  0.00  0.00    +0.000 A 
ENDROOT
BRANCH   1   7
ATOM      7  C   UNL     1       3.606   5.745  18.827  0.00  0.00    +0.000 C 
ATOM      8  O   UNL     1       4.624   6.012  19.445  0.00  0.00    +0.000 OA
BRANCH   7   9
ATOM      9  O   UNL     1       2.801   6.641  18.130  0.00  0.00    +0.000 OA
BRANCH   9  14
ATOM     10  C   UNL     1       1.146   8.738  20.685  0.00  0.00    +0.000 A 
ATOM     11  C   UNL     1       0.772   9.827  19.892  0.00  0.00    +0.000 A 
ATOM     12  C   UNL     1       1.112   9.869  18.536  0.00  0.00    +0.000 A 
ATOM     13  C   UNL     1       1.829   8.819  17.966  0.00  0.00    +0.000 A 
ATOM     14  C   UNL     1       2.212   7.747  18.768  0.00  0.00    +0.000 A 
ATOM     15  C   UNL     1       1.868   7.691  20.116  0.00  0.00    +0.000 A 
BRANCH  10  17
ATOM     16  C   UNL     1      -0.051   9.921  22.356  0.00  0.00    +0.000 C 
ATOM     17  O   UNL     1       0.730   8.786  21.990  0.00  0.00    +0.000 OA
ENDBRANCH  10  17
ENDBRANCH   9  14
ENDBRANCH   7   9
ENDBRANCH   1   7
BRANCH   6  18
ATOM     18  N   UNL     1       5.251   3.476  17.942  0.00  0.00    +0.000 N 
ATOM     19  H   UNL     1       5.757   3.446  18.825  0.00  0.00    +0.000 HD
BRANCH  18  20
ATOM     20  C   UNL     1       5.950   4.036  16.853  0.00  0.00    +0.000 A 
ATOM     21  C   UNL     1       6.887   5.054  17.046  0.00  0.00    +0.000 A 
ATOM     22  C   UNL     1       7.513   5.610  15.942  0.00  0.00    +0.000 A 
ATOM     23  N   UNL     1       7.283   5.221  14.669  0.00  0.00    +0.000 NA
ATOM     24  C   UNL     1       6.371   4.227  14.473  0.00  0.00    +0.000 A 
ATOM     25  C   UNL     1       5.705   3.627  15.542  0.00  0.00    +0.000 A 
BRANCH  24  26
ATOM     26  C   UNL     1       6.056   3.754  13.063  0.00  0.00    +0.000 C 
ATOM     27  F   UNL     1       6.861   4.279  12.095  0.00  0.00    +0.000 F 
ATOM     28  F   UNL     1       6.161   2.398  12.931  0.00  0.00    +0.000 F 
ATOM     29  F   UNL     1       4.779   4.055  12.681  0.00  0.00    +0.000 F 
ENDBRANCH  24  26
ENDBRANCH  18  20
ENDBRANCH   6  18
TORSDOF 7
ENDMDL
MODEL 6
REMARK VINA RESULT:      -8.4      4.275      7.766
REMARK  Name = 
REMARK  8 active torsions:
REMARK  status: ('A' for Active; 'I' for Inactive)
REMARK    1  A    between atoms: C_1  and  O_2
REMARK    2  A    between atoms: O_2  and  C_3
REMARK    3  A    between atoms: C_7  and  O_8
REMARK    4  A    between atoms: O_8  and  C_9
REMARK    5  A    between atoms: C_9  and  C_11
REMARK    6  A    between atoms: C_16  and  N_17
REMARK    7  A    between atoms: N_17  and  C_18
REMARK    8  A    between atoms: C_22  and  C_23
REMARK                            x       y       z     vdW  Elec       q    Type
REMARK                         _______ _______ _______ _____ _____    ______ ____
ROOT
ATOM      1  C   UNL     1       2.547   3.919  19.603  0.00  0.00    +0.000 A 
ATOM      2  C   UNL     1       1.301   3.284  19.448  0.00  0.00    +0.000 A 
ATOM      3  C   UNL     1       1.177   2.197  18.595  0.00  0.00    +0.000 A 
ATOM      4  C   UNL     1       2.311   1.752  17.967  0.00  0.00    +0.000 A 
ATOM      5  N   UNL     1       3.540   2.269  18.181  0.00  0.00    +0.000 NA
ATOM      6  C   UNL     1       3.676   3.351  18.995  0.00  0.00    +0.000 A 
ENDROOT
BRANCH   1   7
ATOM      7  C   UNL     1       2.636   5.190  20.366  0.00  0.00    +0.000 C 
ATOM      8  O   UNL     1       2.345   5.326  21.544  0.00  0.00    +0.000 OA
BRANCH   7   9
ATOM      9  O   UNL     1       3.179   6.160  19.530  0.00  0.00    +0.000 OA
BRANCH   9  14
ATOM     10  C   UNL     1       0.965   9.086  19.984  0.00  0.00    +0.000 A 
ATOM     11  C   UNL     1       0.994   9.608  18.688  0.00  0.00    +0.000 A 
ATOM     12  C   UNL     1       1.779   9.010  17.697  0.00  0.00    +0.000 A 
ATOM     13  C   UNL     1       2.541   7.883  18.001  0.00  0.00    +0.000 A 
ATOM     14  C   UNL     1       2.519   7.380  19.299  0.00  0.00    +0.000 A 
ATOM     15  C   UNL     1       1.730   7.962  20.288  0.00  0.00    +0.000 A 
BRANCH  10  17
ATOM     16  C   UNL     1      -0.425  10.960  20.410  0.00  0.00    +0.000 C 
ATOM     17  O   UNL     1       0.135   9.730  20.864  0.00  0.00    +0.000 OA
ENDBRANCH  10  17
ENDBRANCH   9  14
ENDBRANCH   7   9
ENDBRANCH   1   7
BRANCH   6  18
ATOM     18  N   UNL     1       4.983   3.822  19.244  0.00  0.00    +0.000 N 
ATOM     19  H   UNL     1       5.193   3.913  20.237  0.00  0.00    +0.000 HD
BRANCH  18  20
ATOM     20  C   UNL     1       5.823   4.544  18.371  0.00  0.00    +0.000 A 
ATOM     21  C   UNL     1       6.670   5.546  18.851  0.00  0.00    +0.000 A 
ATOM     22  C   UNL     1       7.440   6.263  17.950  0.00  0.00    +0.000 A 
ATOM     23  N   UNL     1       7.437   6.050  16.616  0.00  0.00    +0.000 NA
ATOM     24  C   UNL     1       6.615   5.072  16.141  0.00  0.00    +0.000 A 
ATOM     25  C   UNL     1       5.812   4.315  16.995  0.00  0.00    +0.000 A 
BRANCH  24  26
ATOM     26  C   UNL     1       6.553   4.792  14.648  0.00  0.00    +0.000 C 
ATOM     27  F   UNL     1       7.582   5.325  13.928  0.00  0.00    +0.000 F 
ATOM     28  F   UNL     1       6.562   3.455  14.366  0.00  0.00    +0.000 F 
ATOM     29  F   UNL     1       5.413   5.275  14.070  0.00  0.00    +0.000 F 
ENDBRANCH  24  26
ENDBRANCH  18  20
ENDBRANCH   6  18
TORSDOF 7
ENDMDL
MODEL 7
REMARK VINA RESULT:      -8.4      4.444      8.462
REMARK  Name = 
REMARK  8 active torsions:
REMARK  status: ('A' for Active; 'I' for Inactive)
REMARK    1  A    between atoms: C_1  and  O_2
REMARK    2  A    between atoms: O_2  and  C_3
REMARK    3  A    between atoms: C_7  and  O_8
REMARK    4  A    between atoms: O_8  and  C_9
REMARK    5  A    between atoms: C_9  and  C_11
REMARK    6  A    between atoms: C_16  and  N_17
REMARK    7  A    between atoms: N_17  and  C_18
REMARK    8  A    between atoms: C_22  and  C_23
REMARK                            x       y       z     vdW  Elec       q    Type
REMARK                         _______ _______ _______ _____ _____    ______ ____
ROOT
ATOM      1  C   UNL     1       2.168   5.265  19.523  0.00  0.00    +0.000 A 
ATOM      2  C   UNL     1       1.587   4.670  20.658  0.00  0.00    +0.000 A 
ATOM      3  C   UNL     1       1.262   3.321  20.644  0.00  0.00    +0.000 A 
ATOM      4  C   UNL     1       1.574   2.605  19.518  0.00  0.00    +0.000 A 
ATOM      5  N   UNL     1       2.231   3.123  18.457  0.00  0.00    +0.000 NA
ATOM      6  C   UNL     1       2.535   4.449  18.444  0.00  0.00    +0.000 A 
ENDROOT
BRANCH   1   7
ATOM      7  C   UNL     1       2.339   6.740  19.473  0.00  0.00    +0.000 C 
ATOM      8  O   UNL     1       2.682   7.376  18.490  0.00  0.00    +0.000 OA
BRANCH   7   9
ATOM      9  O   UNL     1       1.966   7.261  20.708  0.00  0.00    +0.000 OA
BRANCH   9  14
ATOM     10  C   UNL     1       0.115  10.141  22.105  0.00  0.00    +0.000 A 
ATOM     11  C   UNL     1      -0.230  10.798  20.920  0.00  0.00    +0.000 A 
ATOM     12  C   UNL     1       0.193  10.302  19.682  0.00  0.00    +0.000 A 
ATOM     13  C   UNL     1       0.965   9.143  19.625  0.00  0.00    +0.000 A 
ATOM     14  C   UNL     1       1.317   8.505  20.812  0.00  0.00    +0.000 A 
ATOM     15  C   UNL     1       0.890   8.985  22.047  0.00  0.00    +0.000 A 
BRANCH  10  17
ATOM     16  C   UNL     1      -1.478  11.593  23.094  0.00  0.00    +0.000 C 
ATOM     17  O   UNL     1      -0.383  10.694  23.255  0.00  0.00    +0.000 OA
ENDBRANCH  10  17
ENDBRANCH   9  14
ENDBRANCH   7   9
ENDBRANCH   1   7
BRANCH   6  18
ATOM     18  N   UNL     1       3.277   4.939  17.348  0.00  0.00    +0.000 N 
ATOM     19  H   UNL     1       2.717   5.055  16.505  0.00  0.00    +0.000 HD
BRANCH  18  20
ATOM     20  C   UNL     1       4.673   4.879  17.153  0.00  0.00    +0.000 A 
ATOM     21  C   UNL     1       5.214   4.338  15.984  0.00  0.00    +0.000 A 
ATOM     22  C   UNL     1       6.591   4.253  15.857  0.00  0.00    +0.000 A 
ATOM     23  N   UNL     1       7.463   4.677  16.798  0.00  0.00    +0.000 NA
ATOM     24  C   UNL     1       6.942   5.209  17.940  0.00  0.00    +0.000 A 
ATOM     25  C   UNL     1       5.565   5.320  18.130  0.00  0.00    +0.000 A 
BRANCH  24  26
ATOM     26  C   UNL     1       7.870   5.690  19.044  0.00  0.00    +0.000 C 
ATOM     27  F   UNL     1       7.274   5.835  20.262  0.00  0.00    +0.000 F 
ATOM     28  F   UNL     1       8.923   4.843  19.248  0.00  0.00    +0.000 F 
ATOM     29  F   UNL     1       8.433   6.904  18.765  0.00  0.00    +0.000 F 
ENDBRANCH  24  26
ENDBRANCH  18  20
ENDBRANCH   6  18
TORSDOF 7
ENDMDL
MODEL 8
REMARK VINA RESULT:      -8.4      3.450      5.145
REMARK  Name = 
REMARK  8 active torsions:
REMARK  status: ('A' for Active; 'I' for Inactive)
REMARK    1  A    between atoms: C_1  and  O_2
REMARK    2  A    between atoms: O_2  and  C_3
REMARK    3  A    between atoms: C_7  and  O_8
REMARK    4  A    between atoms: O_8  and  C_9
REMARK    5  A    between atoms: C_9  and  C_11
REMARK    6  A    between atoms: C_16  and  N_17
REMARK    7  A    between atoms: N_17  and  C_18
REMARK    8  A    between atoms: C_22  and  C_23
REMARK                            x       y       z     vdW  Elec       q    Type
REMARK                         _______ _______ _______ _____ _____    ______ ____
ROOT
ATOM      1  C   UNL     1       3.254   3.976  19.417  0.00  0.00    +0.000 A 
ATOM      2  C   UNL     1       2.722   2.702  19.142  0.00  0.00    +0.000 A 
ATOM      3  C   UNL     1       1.487   2.340  19.660  0.00  0.00    +0.000 A 
ATOM      4  C   UNL     1       0.805   3.279  20.390  0.00  0.00    +0.000 A 
ATOM      5  N   UNL     1       1.239   4.544  20.577  0.00  0.00    +0.000 NA
ATOM      6  C   UNL     1       2.459   4.909  20.097  0.00  0.00    +0.000 A 
ENDROOT
BRANCH   1   7
ATOM      7  C   UNL     1       4.650   4.290  19.021  0.00  0.00    +0.000 C 
ATOM      8  O   UNL     1       5.648   3.740  19.459  0.00  0.00    +0.000 OA
BRANCH   7   9
ATOM      9  O   UNL     1       4.610   5.253  18.017  0.00  0.00    +0.000 OA
BRANCH   9  14
ATOM     10  C   UNL     1       5.652   4.332  14.592  0.00  0.00    +0.000 A 
ATOM     11  C   UNL     1       7.020   4.602  14.680  0.00  0.00    +0.000 A 
ATOM     12  C   UNL     1       7.568   5.125  15.856  0.00  0.00    +0.000 A 
ATOM     13  C   UNL     1       6.746   5.381  16.951  0.00  0.00    +0.000 A 
ATOM     14  C   UNL     1       5.381   5.125  16.848  0.00  0.00    +0.000 A 
ATOM     15  C   UNL     1       4.830   4.592  15.686  0.00  0.00    +0.000 A 
BRANCH  10  17
ATOM     16  C   UNL     1       6.248   3.530  12.441  0.00  0.00    +0.000 C 
ATOM     17  O   UNL     1       5.231   3.788  13.406  0.00  0.00    +0.000 OA
ENDBRANCH  10  17
ENDBRANCH   9  14
ENDBRANCH   7   9
ENDBRANCH   1   7
BRANCH   6  18
ATOM     18  N   UNL     1       2.848   6.256  20.256  0.00  0.00    +0.000 N 
ATOM     19  H   UNL     1       3.434   6.408  21.075  0.00  0.00    +0.000 HD
BRANCH  18  20
ATOM     20  C   UNL     1       2.226   7.405  19.725  0.00  0.00    +0.000 A 
ATOM     21  C   UNL     1       2.424   7.780  18.393  0.00  0.00    +0.000 A 
ATOM     22  C   UNL     1       1.833   8.944  17.929  0.00  0.00    +0.000 A 
ATOM     23  N   UNL     1       1.058   9.751  18.684  0.00  0.00    +0.000 NA
ATOM     24  C   UNL     1       0.859   9.390  19.984  0.00  0.00    +0.000 A 
ATOM     25  C   UNL     1       1.426   8.231  20.514  0.00  0.00    +0.000 A 
BRANCH  24  26
ATOM     26  C   UNL     1       0.007  10.263  20.892  0.00  0.00    +0.000 C 
ATOM     27  F   UNL     1       0.682  11.287  21.489  0.00  0.00    +0.000 F 
ATOM     28  F   UNL     1      -1.034  10.848  20.228  0.00  0.00    +0.000 F 
ATOM     29  F   UNL     1      -0.566   9.558  21.912  0.00  0.00    +0.000 F 
ENDBRANCH  24  26
ENDBRANCH  18  20
ENDBRANCH   6  18
TORSDOF 7
ENDMDL
MODEL 9
REMARK VINA RESULT:      -8.4      2.771      5.238
REMARK  Name = 
REMARK  8 active torsions:
REMARK  status: ('A' for Active; 'I' for Inactive)
REMARK    1  A    between atoms: C_1  and  O_2
REMARK    2  A    between atoms: O_2  and  C_3
REMARK    3  A    between atoms: C_7  and  O_8
REMARK    4  A    between atoms: O_8  and  C_9
REMARK    5  A    between atoms: C_9  and  C_11
REMARK    6  A    between atoms: C_16  and  N_17
REMARK    7  A    between atoms: N_17  and  C_18
REMARK    8  A    between atoms: C_22  and  C_23
REMARK                            x       y       z     vdW  Elec       q    Type
REMARK                         _______ _______ _______ _____ _____    ______ ____
ROOT
ATOM      1  C   UNL     1       6.159   5.982  17.275  0.00  0.00    +0.000 A 
ATOM      2  C   UNL     1       7.047   7.047  17.515  0.00  0.00    +0.000 A 
ATOM      3  C   UNL     1       7.966   6.965  18.551  0.00  0.00    +0.000 A 
ATOM      4  C   UNL     1       7.999   5.803  19.278  0.00  0.00    +0.000 A 
ATOM      5  N   UNL     1       7.238   4.723  19.002  0.00  0.00    +0.000 NA
ATOM      6  C   UNL     1       6.314   4.794  18.005  0.00  0.00    +0.000 A 
ENDROOT
BRANCH   1   7
ATOM      7  C   UNL     1       5.058   6.148  16.293  0.00  0.00    +0.000 C 
ATOM      8  O   UNL     1       4.723   5.319  15.462  0.00  0.00    +0.000 OA
BRANCH   7   9
ATOM      9  O   UNL     1       4.437   7.368  16.541  0.00  0.00    +0.000 OA
BRANCH   9  14
ATOM     10  C   UNL     1       1.844   8.832  18.733  0.00  0.00    +0.000 A 
ATOM     11  C   UNL     1       1.740   7.817  19.687  0.00  0.00    +0.000 A 
ATOM     12  C   UNL     1       2.496   6.647  19.567  0.00  0.00    +0.000 A 
ATOM     13  C   UNL     1       3.362   6.487  18.487  0.00  0.00    +0.000 A 
ATOM     14  C   UNL     1       3.447   7.497  17.531  0.00  0.00    +0.000 A 
ATOM     15  C   UNL     1       2.707   8.670  17.651  0.00  0.00    +0.000 A 
BRANCH  10  17
ATOM     16  C   UNL     1       0.122   9.838  20.016  0.00  0.00    +0.000 C 
ATOM     17  O   UNL     1       1.084   9.948  18.969  0.00  0.00    +0.000 OA
ENDBRANCH  10  17
ENDBRANCH   9  14
ENDBRANCH   7   9
ENDBRANCH   1   7
BRANCH   6  18
ATOM     18  N   UNL     1       5.584   3.625  17.705  0.00  0.00    +0.000 N 
ATOM     19  H   UNL     1       5.903   3.160  16.857  0.00  0.00    +0.000 HD
BRANCH  18  20
ATOM     20  C   UNL     1       4.288   3.278  18.144  0.00  0.00    +0.000 A 
ATOM     21  C   UNL     1       3.279   2.964  17.230  0.00  0.00    +0.000 A 
ATOM     22  C   UNL     1       2.009   2.678  17.704  0.00  0.00    +0.000 A 
ATOM     23  N   UNL     1       1.675   2.672  19.013  0.00  0.00    +0.000 NA
ATOM     24  C   UNL     1       2.656   2.976  19.910  0.00  0.00    +0.000 A 
ATOM     25  C   UNL     1       3.955   3.274  19.498  0.00  0.00    +0.000 A 
BRANCH  24  26
ATOM     26  C   UNL     1       2.342   3.001  21.398  0.00  0.00    +0.000 C 
ATOM     27  F   UNL     1       3.095   2.149  22.151  0.00  0.00    +0.000 F 
ATOM     28  F   UNL     1       2.524   4.237  21.949  0.00  0.00    +0.000 F 
ATOM     29  F   UNL     1       1.042   2.674  21.665  0.00  0.00    +0.000 F 
ENDBRANCH  24  26
ENDBRANCH  18  20
ENDBRANCH   6  18
TORSDOF 7
ENDMDL
