MODEL 1
REMARK VINA RESULT:      -8.2      0.000      0.000
REMARK  Name = 
REMARK  4 active torsions:
REMARK  status: ('A' for Active; 'I' for Inactive)
REMARK    1  A    between atoms: C_2  and  C_3
REMARK    2  A    between atoms: N_13  and  C_14
REMARK    3  A    between atoms: C_17  and  N_18
REMARK    4  A    between atoms: C_21  and  N_22
REMARK                            x       y       z     vdW  Elec       q    Type
REMARK                         _______ _______ _______ _____ _____    ______ ____
ROOT
ATOM      1  O   UNL     1       4.467   3.070  18.352  0.00  0.00    +0.000 OA
ATOM      2  C   UNL     1       4.602   4.212  17.928  0.00  0.00    +0.000 C 
ATOM      3  N   UNL     1       4.048   5.320  18.570  0.00  0.00    +0.000 N 
ATOM      4  C   UNL     1       4.030   6.702  18.061  0.00  0.00    +0.000 C 
ATOM      5  C   UNL     1       2.652   7.349  18.142  0.00  0.00    +0.000 C 
ATOM      6  N   UNL     1       2.175   7.229  19.510  0.00  0.00    +0.000 N 
ATOM      7  C   UNL     1       2.060   5.842  19.990  0.00  0.00    +0.000 C 
ATOM      8  C   UNL     1       3.434   5.147  19.899  0.00  0.00    +0.000 C 
ENDROOT
BRANCH   2   9
ATOM      9  C   UNL     1       5.388   4.406  16.673  0.00  0.00    +0.000 A 
ATOM     10  C   UNL     1       4.761   4.209  15.436  0.00  0.00    +0.000 A 
ATOM     11  C   UNL     1       5.499   4.356  14.256  0.00  0.00    +0.000 A 
ATOM     12  C   UNL     1       6.841   4.726  14.317  0.00  0.00    +0.000 A 
ATOM     13  F   UNL     1       7.552   4.849  13.190  0.00  0.00    +0.000 F 
ATOM     14  C   UNL     1       7.471   4.928  15.531  0.00  0.00    +0.000 A 
ATOM     15  C   UNL     1       6.756   4.711  16.702  0.00  0.00    +0.000 A 
ENDBRANCH   2   9
BRANCH   6  16
ATOM     16  C   UNL     1       1.577   8.278  20.160  0.00  0.00    +0.000 A 
ATOM     17  C   UNL     1       1.065   8.139  21.453  0.00  0.00    +0.000 A 
ATOM     18  C   UNL     1       0.429   9.196  22.081  0.00  0.00    +0.000 A 
ATOM     19  C   UNL     1       0.263  10.410  21.392  0.00  0.00    +0.000 A 
ATOM     20  C   UNL     1       0.715  10.624  20.079  0.00  0.00    +0.000 A 
ATOM     21  C   UNL     1       1.403   9.521  19.511  0.00  0.00    +0.000 A 
BRANCH  20  22
ATOM     22  N   UNL     1       0.471  11.745  19.295  0.00  0.00    +0.000 N 
ATOM     23  C   UNL     1       1.518  12.631  18.777  0.00  0.00    +0.000 C 
ATOM     24  C   UNL     1       1.213  14.082  19.170  0.00  0.00    +0.000 C 
ATOM     25  C   UNL     1      -0.197  14.499  18.756  0.00  0.00    +0.000 C 
ATOM     26  C   UNL     1      -1.242  13.487  19.229  0.00  0.00    +0.000 C 
ATOM     27  C   UNL     1      -0.877  12.062  18.811  0.00  0.00    +0.000 C 
ENDBRANCH  20  22
BRANCH  19  28
ATOM     28  N   UNL     1      -0.389  11.446  22.172  0.00  0.00    +0.000 N 
ATOM     29  O   UNL     1       0.183  12.543  22.252  0.00  0.00    +0.000 OA
ATOM     30  O   UNL     1      -1.501  11.191  22.659  0.00  0.00    +0.000 OA
ENDBRANCH  19  28
ENDBRANCH   6  16
TORSDOF 4
ENDMDL
MODEL 2
REMARK VINA RESULT:      -8.2      3.716      9.703
REMARK  Name = 
REMARK  4 active torsions:
REMARK  status: ('A' for Active; 'I' for Inactive)
REMARK    1  A    between atoms: C_2  and  C_3
REMARK    2  A    between atoms: N_13  and  C_14
REMARK    3  A    between atoms: C_17  and  N_18
REMARK    4  A    between atoms: C_21  and  N_22
REMARK                            x       y       z     vdW  Elec       q    Type
REMARK                         _______ _______ _______ _____ _____    ______ ____
ROOT
ATOM      1  O   UNL     1      -0.068  13.005  18.660  0.00  0.00    +0.000 OA
ATOM      2  C   UNL     1       0.179  12.355  19.669  0.00  0.00    +0.000 C 
ATOM      3  N   UNL     1       0.911  11.168  19.636  0.00  0.00    +0.000 N 
ATOM      4  C   UNL     1       1.129  10.247  20.766  0.00  0.00    +0.000 C 
ATOM      5  C   UNL     1       0.846   8.792  20.413  0.00  0.00    +0.000 C 
ATOM      6  N   UNL     1       1.622   8.454  19.231  0.00  0.00    +0.000 N 
ATOM      7  C   UNL     1       1.318   9.281  18.052  0.00  0.00    +0.000 C 
ATOM      8  C   UNL     1       1.571  10.766  18.382  0.00  0.00    +0.000 C 
ENDROOT
BRANCH   2   9
ATOM      9  C   UNL     1      -0.336  12.866  20.975  0.00  0.00    +0.000 A 
ATOM     10  C   UNL     1      -1.437  12.237  21.570  0.00  0.00    +0.000 A 
ATOM     11  C   UNL     1      -1.946  12.729  22.777  0.00  0.00    +0.000 A 
ATOM     12  C   UNL     1      -1.338  13.821  23.394  0.00  0.00    +0.000 A 
ATOM     13  F   UNL     1      -1.836  14.305  24.538  0.00  0.00    +0.000 F 
ATOM     14  C   UNL     1      -0.248  14.449  22.820  0.00  0.00    +0.000 A 
ATOM     15  C   UNL     1       0.211  14.003  21.587  0.00  0.00    +0.000 A 
ENDBRANCH   2   9
BRANCH   6  16
ATOM     16  C   UNL     1       2.314   7.274  19.137  0.00  0.00    +0.000 A 
ATOM     17  C   UNL     1       2.093   6.224  20.033  0.00  0.00    +0.000 A 
ATOM     18  C   UNL     1       2.827   5.054  19.950  0.00  0.00    +0.000 A 
ATOM     19  C   UNL     1       3.833   4.938  18.975  0.00  0.00    +0.000 A 
ATOM     20  C   UNL     1       4.145   5.956  18.059  0.00  0.00    +0.000 A 
ATOM     21  C   UNL     1       3.324   7.108  18.163  0.00  0.00    +0.000 A 
BRANCH  20  22
ATOM     22  N   UNL     1       5.207   5.961  17.162  0.00  0.00    +0.000 N 
ATOM     23  C   UNL     1       5.067   6.200  15.721  0.00  0.00    +0.000 C 
ATOM     24  C   UNL     1       5.723   5.056  14.939  0.00  0.00    +0.000 C 
ATOM     25  C   UNL     1       7.167   4.820  15.379  0.00  0.00    +0.000 C 
ATOM     26  C   UNL     1       7.274   4.683  16.899  0.00  0.00    +0.000 C 
ATOM     27  C   UNL     1       6.596   5.850  17.619  0.00  0.00    +0.000 C 
ENDBRANCH  20  22
BRANCH  19  28
ATOM     28  N   UNL     1       4.505   3.651  18.972  0.00  0.00    +0.000 N 
ATOM     29  O   UNL     1       5.380   3.465  19.830  0.00  0.00    +0.000 OA
ATOM     30  O   UNL     1       4.123   2.800  18.153  0.00  0.00    +0.000 OA
ENDBRANCH  19  28
ENDBRANCH   6  16
TORSDOF 4
ENDMDL
MODEL 3
REMARK VINA RESULT:      -8.1      3.755      9.737
REMARK  Name = 
REMARK  4 active torsions:
REMARK  status: ('A' for Active; 'I' for Inactive)
REMARK    1  A    between atoms: C_2  and  C_3
REMARK    2  A    between atoms: N_13  and  C_14
REMARK    3  A    between atoms: C_17  and  N_18
REMARK    4  A    between atoms: C_21  and  N_22
REMARK                            x       y       z     vdW  Elec       q    Type
REMARK                         _______ _______ _______ _____ _____    ______ ____
ROOT
ATOM      1  O   UNL     1      -0.144  13.020  18.742  0.00  0.00    +0.000 OA
ATOM      2  C   UNL     1       0.069  12.384  19.767  0.00  0.00    +0.000 C 
ATOM      3  N   UNL     1       0.793  11.192  19.772  0.00  0.00    +0.000 N 
ATOM      4  C   UNL     1       0.973  10.286  20.921  0.00  0.00    +0.000 C 
ATOM      5  C   UNL     1       0.689   8.828  20.582  0.00  0.00    +0.000 C 
ATOM      6  N   UNL     1       1.495   8.467  19.427  0.00  0.00    +0.000 N 
ATOM      7  C   UNL     1       1.230   9.278  18.227  0.00  0.00    +0.000 C 
ATOM      8  C   UNL     1       1.485  10.766  18.542  0.00  0.00    +0.000 C 
ENDROOT
BRANCH   2   9
ATOM      9  C   UNL     1      -0.478  12.918  21.050  0.00  0.00    +0.000 A 
ATOM     10  C   UNL     1       0.132  14.032  21.643  0.00  0.00    +0.000 A 
ATOM     11  C   UNL     1      -0.353  14.518  22.862  0.00  0.00    +0.000 A 
ATOM     12  C   UNL     1      -1.455  13.913  23.463  0.00  0.00    +0.000 A 
ATOM     13  F   UNL     1      -1.908  14.365  24.638  0.00  0.00    +0.000 F 
ATOM     14  C   UNL     1      -2.069  12.816  22.887  0.00  0.00    +0.000 A 
ATOM     15  C   UNL     1      -1.541  12.291  21.714  0.00  0.00    +0.000 A 
ENDBRANCH   2   9
BRANCH   6  16
ATOM     16  C   UNL     1       2.181   7.280  19.369  0.00  0.00    +0.000 A 
ATOM     17  C   UNL     1       2.042   6.308  20.364  0.00  0.00    +0.000 A 
ATOM     18  C   UNL     1       2.771   5.133  20.313  0.00  0.00    +0.000 A 
ATOM     19  C   UNL     1       3.688   4.934  19.267  0.00  0.00    +0.000 A 
ATOM     20  C   UNL     1       3.915   5.872  18.247  0.00  0.00    +0.000 A 
ATOM     21  C   UNL     1       3.102   7.032  18.327  0.00  0.00    +0.000 A 
BRANCH  20  22
ATOM     22  N   UNL     1       4.894   5.801  17.263  0.00  0.00    +0.000 N 
ATOM     23  C   UNL     1       4.773   5.007  16.036  0.00  0.00    +0.000 C 
ATOM     24  C   UNL     1       5.986   4.079  15.896  0.00  0.00    +0.000 C 
ATOM     25  C   UNL     1       7.304   4.845  15.996  0.00  0.00    +0.000 C 
ATOM     26  C   UNL     1       7.338   5.739  17.237  0.00  0.00    +0.000 C 
ATOM     27  C   UNL     1       6.100   6.634  17.322  0.00  0.00    +0.000 C 
ENDBRANCH  20  22
BRANCH  19  28
ATOM     28  N   UNL     1       4.363   3.649  19.311  0.00  0.00    +0.000 N 
ATOM     29  O   UNL     1       5.586   3.655  19.509  0.00  0.00    +0.000 OA
ATOM     30  O   UNL     1       3.667   2.627  19.206  0.00  0.00    +0.000 OA
ENDBRANCH  19  28
ENDBRANCH   6  16
TORSDOF 4
ENDMDL
MODEL 4
REMARK VINA RESULT:      -7.8      3.589      9.511
REMARK  Name = 
REMARK  4 active torsions:
REMARK  status: ('A' for Active; 'I' for Inactive)
REMARK    1  A    between atoms: C_2  and  C_3
REMARK    2  A    between atoms: N_13  and  C_14
REMARK    3  A    between atoms: C_17  and  N_18
REMARK    4  A    between atoms: C_21  and  N_22
REMARK                            x       y       z     vdW  Elec       q    Type
REMARK                         _______ _______ _______ _____ _____    ______ ____
ROOT
ATOM      1  O   UNL     1       0.562  12.194  18.516  0.00  0.00    +0.000 OA
ATOM      2  C   UNL     1       0.647  11.581  19.574  0.00  0.00    +0.000 C 
ATOM      3  N   UNL     1       1.265  10.334  19.670  0.00  0.00    +0.000 N 
ATOM      4  C   UNL     1       1.284   9.461  20.857  0.00  0.00    +0.000 C 
ATOM      5  C   UNL     1       0.902   8.019  20.543  0.00  0.00    +0.000 C 
ATOM      6  N   UNL     1       1.755   7.550  19.463  0.00  0.00    +0.000 N 
ATOM      7  C   UNL     1       1.646   8.334  18.223  0.00  0.00    +0.000 C 
ATOM      8  C   UNL     1       2.003   9.807  18.509  0.00  0.00    +0.000 C 
ENDROOT
BRANCH   2   9
ATOM      9  C   UNL     1       0.057  12.206  20.796  0.00  0.00    +0.000 A 
ATOM     10  C   UNL     1       0.454  13.498  21.163  0.00  0.00    +0.000 A 
ATOM     11  C   UNL     1      -0.068  14.079  22.325  0.00  0.00    +0.000 A 
ATOM     12  C   UNL     1      -1.001  13.381  23.091  0.00  0.00    +0.000 A 
ATOM     13  F   UNL     1      -1.486  13.928  24.212  0.00  0.00    +0.000 F 
ATOM     14  C   UNL     1      -1.405  12.107  22.737  0.00  0.00    +0.000 A 
ATOM     15  C   UNL     1      -0.832  11.506  21.624  0.00  0.00    +0.000 A 
ENDBRANCH   2   9
BRANCH   6  16
ATOM     16  C   UNL     1       2.339   6.309  19.494  0.00  0.00    +0.000 A 
ATOM     17  C   UNL     1       2.020   5.376  20.484  0.00  0.00    +0.000 A 
ATOM     18  C   UNL     1       2.648   4.144  20.526  0.00  0.00    +0.000 A 
ATOM     19  C   UNL     1       3.645   3.844  19.582  0.00  0.00    +0.000 A 
ATOM     20  C   UNL     1       4.052   4.736  18.576  0.00  0.00    +0.000 A 
ATOM     21  C   UNL     1       3.337   5.960  18.556  0.00  0.00    +0.000 A 
BRANCH  20  22
ATOM     22  N   UNL     1       5.115   4.560  17.699  0.00  0.00    +0.000 N 
ATOM     23  C   UNL     1       6.521   4.786  18.052  0.00  0.00    +0.000 C 
ATOM     24  C   UNL     1       7.161   5.752  17.048  0.00  0.00    +0.000 C 
ATOM     25  C   UNL     1       6.964   5.287  15.606  0.00  0.00    +0.000 C 
ATOM     26  C   UNL     1       5.497   4.964  15.318  0.00  0.00    +0.000 C 
ATOM     27  C   UNL     1       4.917   4.002  16.357  0.00  0.00    +0.000 C 
ENDBRANCH  20  22
BRANCH  19  28
ATOM     28  N   UNL     1       4.199   2.509  19.714  0.00  0.00    +0.000 N 
ATOM     29  O   UNL     1       5.029   2.324  20.615  0.00  0.00    +0.000 OA
ATOM     30  O   UNL     1       3.767   1.625  18.957  0.00  0.00    +0.000 OA
ENDBRANCH  19  28
ENDBRANCH   6  16
TORSDOF 4
ENDMDL
MODEL 5
REMARK VINA RESULT:      -7.8      3.927      9.823
REMARK  Name = 
REMARK  4 active torsions:
REMARK  status: ('A' for Active; 'I' for Inactive)
REMARK    1  A    between atoms: C_2  and  C_3
REMARK    2  A    between atoms: N_13  and  C_14
REMARK    3  A    between atoms: C_17  and  N_18
REMARK    4  A    between atoms: C_21  and  N_22
REMARK                            x       y       z     vdW  Elec       q    Type
REMARK                         _______ _______ _______ _____ _____    ______ ____
ROOT
ATOM      1  O   UNL     1      -0.184  13.369  19.188  0.00  0.00    +0.000 OA
ATOM      2  C   UNL     1      -0.209  12.381  19.911  0.00  0.00    +0.000 C 
ATOM      3  N   UNL     1       0.634  11.286  19.715  0.00  0.00    +0.000 N 
ATOM      4  C   UNL     1       0.576  10.002  20.435  0.00  0.00    +0.000 C 
ATOM      5  C   UNL     1       0.610   8.795  19.505  0.00  0.00    +0.000 C 
ATOM      6  N   UNL     1       1.772   8.924  18.640  0.00  0.00    +0.000 N 
ATOM      7  C   UNL     1       1.778  10.141  17.813  0.00  0.00    +0.000 C 
ATOM      8  C   UNL     1       1.719  11.385  18.724  0.00  0.00    +0.000 C 
ENDROOT
BRANCH   2   9
ATOM      9  C   UNL     1      -1.190  12.361  21.038  0.00  0.00    +0.000 A 
ATOM     10  C   UNL     1      -2.538  12.636  20.777  0.00  0.00    +0.000 A 
ATOM     11  C   UNL     1      -3.458  12.652  21.832  0.00  0.00    +0.000 A 
ATOM     12  C   UNL     1      -3.033  12.366  23.129  0.00  0.00    +0.000 A 
ATOM     13  F   UNL     1      -3.908  12.400  24.141  0.00  0.00    +0.000 F 
ATOM     14  C   UNL     1      -1.706  12.089  23.399  0.00  0.00    +0.000 A 
ATOM     15  C   UNL     1      -0.783  12.144  22.362  0.00  0.00    +0.000 A 
ENDBRANCH   2   9
BRANCH   6  16
ATOM     16  C   UNL     1       2.597   7.859  18.379  0.00  0.00    +0.000 A 
ATOM     17  C   UNL     1       3.607   7.938  17.416  0.00  0.00    +0.000 A 
ATOM     18  C   UNL     1       4.405   6.843  17.135  0.00  0.00    +0.000 A 
ATOM     19  C   UNL     1       4.171   5.628  17.802  0.00  0.00    +0.000 A 
ATOM     20  C   UNL     1       3.157   5.452  18.757  0.00  0.00    +0.000 A 
ATOM     21  C   UNL     1       2.407   6.623  19.036  0.00  0.00    +0.000 A 
BRANCH  20  22
ATOM     22  N   UNL     1       2.785   4.254  19.354  0.00  0.00    +0.000 N 
ATOM     23  C   UNL     1       1.873   3.279  18.746  0.00  0.00    +0.000 C 
ATOM     24  C   UNL     1       0.733   2.956  19.719  0.00  0.00    +0.000 C 
ATOM     25  C   UNL     1       1.256   2.526  21.088  0.00  0.00    +0.000 C 
ATOM     26  C   UNL     1       2.282   3.522  21.632  0.00  0.00    +0.000 C 
ATOM     27  C   UNL     1       3.388   3.805  20.613  0.00  0.00    +0.000 C 
ENDBRANCH  20  22
BRANCH  19  28
ATOM     28  N   UNL     1       5.098   4.570  17.442  0.00  0.00    +0.000 N 
ATOM     29  O   UNL     1       6.066   4.383  18.192  0.00  0.00    +0.000 OA
ATOM     30  O   UNL     1       4.832   3.882  16.444  0.00  0.00    +0.000 OA
ENDBRANCH  19  28
ENDBRANCH   6  16
TORSDOF 4
ENDMDL
MODEL 6
REMARK VINA RESULT:      -7.8      3.905      9.829
REMARK  Name = 
REMARK  4 active torsions:
REMARK  status: ('A' for Active; 'I' for Inactive)
REMARK    1  A    between atoms: C_2  and  C_3
REMARK    2  A    between atoms: N_13  and  C_14
REMARK    3  A    between atoms: C_17  and  N_18
REMARK    4  A    between atoms: C_21  and  N_22
REMARK                            x       y       z     vdW  Elec       q    Type
REMARK                         _______ _______ _______ _____ _____    ______ ____
ROOT
ATOM      1  O   UNL     1      -0.149  13.280  18.881  0.00  0.00    +0.000 OA
ATOM      2  C   UNL     1      -0.138  12.355  19.684  0.00  0.00    +0.000 C 
ATOM      3  N   UNL     1       0.714  11.258  19.553  0.00  0.00    +0.000 N 
ATOM      4  C   UNL     1       0.697  10.037  20.377  0.00  0.00    +0.000 C 
ATOM      5  C   UNL     1       0.720   8.758  19.549  0.00  0.00    +0.000 C 
ATOM      6  N   UNL     1       1.853   8.828  18.640  0.00  0.00    +0.000 N 
ATOM      7  C   UNL     1       1.816   9.973  17.716  0.00  0.00    +0.000 C 
ATOM      8  C   UNL     1       1.767  11.287  18.522  0.00  0.00    +0.000 C 
ENDROOT
BRANCH   2   9
ATOM      9  C   UNL     1      -1.083  12.417  20.840  0.00  0.00    +0.000 A 
ATOM     10  C   UNL     1      -0.574  12.359  22.144  0.00  0.00    +0.000 A 
ATOM     11  C   UNL     1      -1.454  12.384  23.231  0.00  0.00    +0.000 A 
ATOM     12  C   UNL     1      -2.827  12.496  23.012  0.00  0.00    +0.000 A 
ATOM     13  F   UNL     1      -3.670  12.500  24.051  0.00  0.00    +0.000 F 
ATOM     14  C   UNL     1      -3.342  12.558  21.731  0.00  0.00    +0.000 A 
ATOM     15  C   UNL     1      -2.472  12.462  20.652  0.00  0.00    +0.000 A 
ENDBRANCH   2   9
BRANCH   6  16
ATOM     16  C   UNL     1       2.685   7.756  18.442  0.00  0.00    +0.000 A 
ATOM     17  C   UNL     1       3.755   7.818  17.545  0.00  0.00    +0.000 A 
ATOM     18  C   UNL     1       4.561   6.715  17.325  0.00  0.00    +0.000 A 
ATOM     19  C   UNL     1       4.275   5.508  17.986  0.00  0.00    +0.000 A 
ATOM     20  C   UNL     1       3.201   5.348  18.876  0.00  0.00    +0.000 A 
ATOM     21  C   UNL     1       2.444   6.527  19.097  0.00  0.00    +0.000 A 
BRANCH  20  22
ATOM     22  N   UNL     1       2.782   4.158  19.459  0.00  0.00    +0.000 N 
ATOM     23  C   UNL     1       1.849   3.217  18.831  0.00  0.00    +0.000 C 
ATOM     24  C   UNL     1       0.685   2.924  19.785  0.00  0.00    +0.000 C 
ATOM     25  C   UNL     1       1.176   2.468  21.158  0.00  0.00    +0.000 C 
ATOM     26  C   UNL     1       2.225   3.427  21.724  0.00  0.00    +0.000 C 
ATOM     27  C   UNL     1       3.353   3.681  20.723  0.00  0.00    +0.000 C 
ENDBRANCH  20  22
BRANCH  19  28
ATOM     28  N   UNL     1       5.215   4.440  17.696  0.00  0.00    +0.000 N 
ATOM     29  O   UNL     1       5.041   3.798  16.651  0.00  0.00    +0.000 OA
ATOM     30  O   UNL     1       6.164   4.276  18.479  0.00  0.00    +0.000 OA
ENDBRANCH  19  28
ENDBRANCH   6  16
TORSDOF 4
ENDMDL
MODEL 7
REMARK VINA RESULT:      -7.8      1.042      1.468
REMARK  Name = 
REMARK  4 active torsions:
REMARK  status: ('A' for Active; 'I' for Inactive)
REMARK    1  A    between atoms: C_2  and  C_3
REMARK    2  A    between atoms: N_13  and  C_14
REMARK    3  A    between atoms: C_17  and  N_18
REMARK    4  A    between atoms: C_21  and  N_22
REMARK                            x       y       z     vdW  Elec       q    Type
REMARK                         _______ _______ _______ _____ _____    ______ ____
ROOT
ATOM      1  O   UNL     1       3.785   3.089  19.153  0.00  0.00    +0.000 OA
ATOM      2  C   UNL     1       4.042   4.241  18.825  0.00  0.00    +0.000 C 
ATOM      3  N   UNL     1       3.484   5.346  19.468  0.00  0.00    +0.000 N 
ATOM      4  C   UNL     1       3.615   6.754  19.054  0.00  0.00    +0.000 C 
ATOM      5  C   UNL     1       2.282   7.490  19.012  0.00  0.00    +0.000 C 
ATOM      6  N   UNL     1       1.633   7.324  20.303  0.00  0.00    +0.000 N 
ATOM      7  C   UNL     1       1.373   5.923  20.672  0.00  0.00    +0.000 C 
ATOM      8  C   UNL     1       2.701   5.140  20.700  0.00  0.00    +0.000 C 
ENDROOT
BRANCH   2   9
ATOM      9  C   UNL     1       4.988   4.452  17.688  0.00  0.00    +0.000 A 
ATOM     10  C   UNL     1       4.527   4.289  16.375  0.00  0.00    +0.000 A 
ATOM     11  C   UNL     1       5.414   4.452  15.305  0.00  0.00    +0.000 A 
ATOM     12  C   UNL     1       6.741   4.805  15.550  0.00  0.00    +0.000 A 
ATOM     13  F   UNL     1       7.594   4.943  14.529  0.00  0.00    +0.000 F 
ATOM     14  C   UNL     1       7.207   4.973  16.840  0.00  0.00    +0.000 A 
ATOM     15  C   UNL     1       6.343   4.741  17.903  0.00  0.00    +0.000 A 
ENDBRANCH   2   9
BRANCH   6  16
ATOM     16  C   UNL     1       1.026   8.373  20.945  0.00  0.00    +0.000 A 
ATOM     17  C   UNL     1       0.155   8.166  22.018  0.00  0.00    +0.000 A 
ATOM     18  C   UNL     1      -0.481   9.232  22.630  0.00  0.00    +0.000 A 
ATOM     19  C   UNL     1      -0.275  10.533  22.140  0.00  0.00    +0.000 A 
ATOM     20  C   UNL     1       0.556  10.827  21.046  0.00  0.00    +0.000 A 
ATOM     21  C   UNL     1       1.217   9.699  20.495  0.00  0.00    +0.000 A 
BRANCH  20  22
ATOM     22  N   UNL     1       0.701  12.063  20.429  0.00  0.00    +0.000 N 
ATOM     23  C   UNL     1      -0.377  12.764  19.723  0.00  0.00    +0.000 C 
ATOM     24  C   UNL     1       0.080  13.127  18.306  0.00  0.00    +0.000 C 
ATOM     25  C   UNL     1       1.401  13.895  18.312  0.00  0.00    +0.000 C 
ATOM     26  C   UNL     1       2.462  13.176  19.148  0.00  0.00    +0.000 C 
ATOM     27  C   UNL     1       1.942  12.836  20.546  0.00  0.00    +0.000 C 
ENDBRANCH  20  22
BRANCH  19  28
ATOM     28  N   UNL     1      -0.971  11.563  22.890  0.00  0.00    +0.000 N 
ATOM     29  O   UNL     1      -0.329  12.579  23.193  0.00  0.00    +0.000 OA
ATOM     30  O   UNL     1      -2.177  11.390  23.129  0.00  0.00    +0.000 OA
ENDBRANCH  19  28
ENDBRANCH   6  16
TORSDOF 4
ENDMDL
MODEL 8
REMARK VINA RESULT:      -7.8      0.986      1.560
REMARK  Name = 
REMARK  4 active torsions:
REMARK  status: ('A' for Active; 'I' for Inactive)
REMARK    1  A    between atoms: C_2  and  C_3
REMARK    2  A    between atoms: N_13  and  C_14
REMARK    3  A    between atoms: C_17  and  N_18
REMARK    4  A    between atoms: C_21  and  N_22
REMARK                            x       y       z     vdW  Elec       q    Type
REMARK                         _______ _______ _______ _____ _____    ______ ____
ROOT
ATOM      1  O   UNL     1       4.383   3.001  18.557  0.00  0.00    +0.000 OA
ATOM      2  C   UNL     1       4.509   4.152  18.159  0.00  0.00    +0.000 C 
ATOM      3  N   UNL     1       3.898   5.236  18.791  0.00  0.00    +0.000 N 
ATOM      4  C   UNL     1       3.870   6.626  18.304  0.00  0.00    +0.000 C 
ATOM      5  C   UNL     1       2.474   7.238  18.329  0.00  0.00    +0.000 C 
ATOM      6  N   UNL     1       1.936   7.082  19.671  0.00  0.00    +0.000 N 
ATOM      7  C   UNL     1       1.833   5.685  20.123  0.00  0.00    +0.000 C 
ATOM      8  C   UNL     1       3.227   5.026  20.086  0.00  0.00    +0.000 C 
ENDROOT
BRANCH   2   9
ATOM      9  C   UNL     1       5.349   4.386  16.946  0.00  0.00    +0.000 A 
ATOM     10  C   UNL     1       6.675   4.808  17.102  0.00  0.00    +0.000 A 
ATOM     11  C   UNL     1       7.459   5.062  15.971  0.00  0.00    +0.000 A 
ATOM     12  C   UNL     1       6.925   4.865  14.698  0.00  0.00    +0.000 A 
ATOM     13  F   UNL     1       7.667   5.126  13.616  0.00  0.00    +0.000 F 
ATOM     14  C   UNL     1       5.619   4.445  14.529  0.00  0.00    +0.000 A 
ATOM     15  C   UNL     1       4.822   4.263  15.652  0.00  0.00    +0.000 A 
ENDBRANCH   2   9
BRANCH   6  16
ATOM     16  C   UNL     1       1.283   8.106  20.309  0.00  0.00    +0.000 A 
ATOM     17  C   UNL     1       0.296   7.857  21.267  0.00  0.00    +0.000 A 
ATOM     18  C   UNL     1      -0.383   8.900  21.872  0.00  0.00    +0.000 A 
ATOM     19  C   UNL     1      -0.101  10.222  21.489  0.00  0.00    +0.000 A 
ATOM     20  C   UNL     1       0.848  10.560  20.510  0.00  0.00    +0.000 A 
ATOM     21  C   UNL     1       1.544   9.451  19.965  0.00  0.00    +0.000 A 
BRANCH  20  22
ATOM     22  N   UNL     1       1.082  11.827  19.990  0.00  0.00    +0.000 N 
ATOM     23  C   UNL     1       0.916  12.180  18.576  0.00  0.00    +0.000 C 
ATOM     24  C   UNL     1       2.203  12.824  18.047  0.00  0.00    +0.000 C 
ATOM     25  C   UNL     1       2.654  13.996  18.917  0.00  0.00    +0.000 C 
ATOM     26  C   UNL     1       2.709  13.606  20.395  0.00  0.00    +0.000 C 
ATOM     27  C   UNL     1       1.399  12.965  20.859  0.00  0.00    +0.000 C 
ENDBRANCH  20  22
BRANCH  19  28
ATOM     28  N   UNL     1      -0.857  11.222  22.222  0.00  0.00    +0.000 N 
ATOM     29  O   UNL     1      -0.529  11.433  23.398  0.00  0.00    +0.000 OA
ATOM     30  O   UNL     1      -1.740  11.844  21.611  0.00  0.00    +0.000 OA
ENDBRANCH  19  28
ENDBRANCH   6  16
TORSDOF 4
ENDMDL
MODEL 9
REMARK VINA RESULT:      -7.7      3.618      9.476
REMARK  Name = 
REMARK  4 active torsions:
REMARK  status: ('A' for Active; 'I' for Inactive)
REMARK    1  A    between atoms: C_2  and  C_3
REMARK    2  A    between atoms: N_13  and  C_14
REMARK    3  A    between atoms: C_17  and  N_18
REMARK    4  A    between atoms: C_21  and  N_22
REMARK                            x       y       z     vdW  Elec       q    Type
REMARK                         _______ _______ _______ _____ _____    ______ ____
ROOT
ATOM      1  O   UNL     1       0.545  12.478  18.374  0.00  0.00    +0.000 OA
ATOM      2  C   UNL     1       0.670  11.897  19.445  0.00  0.00    +0.000 C 
ATOM      3  N   UNL     1       1.274  10.644  19.553  0.00  0.00    +0.000 N 
ATOM      4  C   UNL     1       1.335   9.808  20.765  0.00  0.00    +0.000 C 
ATOM      5  C   UNL     1       0.919   8.364  20.515  0.00  0.00    +0.000 C 
ATOM      6  N   UNL     1       1.716   7.848  19.413  0.00  0.00    +0.000 N 
ATOM      7  C   UNL     1       1.561   8.595  18.154  0.00  0.00    +0.000 C 
ATOM      8  C   UNL     1       1.952  10.070  18.377  0.00  0.00    +0.000 C 
ENDROOT
BRANCH   2   9
ATOM      9  C   UNL     1       0.145  12.569  20.672  0.00  0.00    +0.000 A 
ATOM     10  C   UNL     1      -0.981  12.038  21.314  0.00  0.00    +0.000 A 
ATOM     11  C   UNL     1      -1.499  12.679  22.445  0.00  0.00    +0.000 A 
ATOM     12  C   UNL     1      -0.876  13.823  22.942  0.00  0.00    +0.000 A 
ATOM     13  F   UNL     1      -1.382  14.447  24.011  0.00  0.00    +0.000 F 
ATOM     14  C   UNL     1       0.238  14.355  22.320  0.00  0.00    +0.000 A 
ATOM     15  C   UNL     1       0.707  13.758  21.157  0.00  0.00    +0.000 A 
ENDBRANCH   2   9
BRANCH   6  16
ATOM     16  C   UNL     1       2.284   6.600  19.457  0.00  0.00    +0.000 A 
ATOM     17  C   UNL     1       1.916   5.665  20.428  0.00  0.00    +0.000 A 
ATOM     18  C   UNL     1       2.528   4.424  20.484  0.00  0.00    +0.000 A 
ATOM     19  C   UNL     1       3.555   4.119  19.576  0.00  0.00    +0.000 A 
ATOM     20  C   UNL     1       4.010   5.012  18.592  0.00  0.00    +0.000 A 
ATOM     21  C   UNL     1       3.311   6.245  18.553  0.00  0.00    +0.000 A 
BRANCH  20  22
ATOM     22  N   UNL     1       5.103   4.829  17.753  0.00  0.00    +0.000 N 
ATOM     23  C   UNL     1       6.473   5.233  18.085  0.00  0.00    +0.000 C 
ATOM     24  C   UNL     1       7.038   6.120  16.969  0.00  0.00    +0.000 C 
ATOM     25  C   UNL     1       6.916   5.457  15.598  0.00  0.00    +0.000 C 
ATOM     26  C   UNL     1       5.493   4.958  15.343  0.00  0.00    +0.000 C 
ATOM     27  C   UNL     1       4.986   4.086  16.494  0.00  0.00    +0.000 C 
ENDBRANCH  20  22
BRANCH  19  28
ATOM     28  N   UNL     1       4.089   2.776  19.719  0.00  0.00    +0.000 N 
ATOM     29  O   UNL     1       3.461   1.854  19.178  0.00  0.00    +0.000 OA
ATOM     30  O   UNL     1       5.166   2.642  20.320  0.00  0.00    +0.000 OA
ENDBRANCH  19  28
ENDBRANCH   6  16
TORSDOF 4
ENDMDL
