MODEL 1
REMARK VINA RESULT:      -8.7      0.000      0.000
REMARK  Name = 
REMARK  6 active torsions:
REMARK  status: ('A' for Active; 'I' for Inactive)
REMARK    1  A    between atoms: C_1  and  O_2
REMARK    2  A    between atoms: O_2  and  C_3
REMARK    3  A    between atoms: C_7  and  N_8
REMARK    4  A    between atoms: C_18  and  C_19
REMARK    5  A    between atoms: C_19  and  C_20
REMARK    6  A    between atoms: C_20  and  C_21
REMARK                            x       y       z     vdW  Elec       q    Type
REMARK                         _______ _______ _______ _____ _____    ______ ____
ROOT
ATOM      1  N   UNL     1       0.999   9.727  19.257  0.00  0.00    +0.000 N 
ATOM      2  C   UNL     1       1.276   8.754  20.324  0.00  0.00    +0.000 C 
ATOM      3  C   UNL     1       1.518   7.341  19.749  0.00  0.00    +0.000 C 
ATOM      4  N   UNL     1       2.541   7.375  18.690  0.00  0.00    +0.000 N 
ATOM      5  C   UNL     1       3.657   6.558  18.657  0.00  0.00    +0.000 A 
ATOM      6  C   UNL     1       3.537   5.160  19.195  0.00  0.00    +0.000 A 
ATOM      7  C   UNL     1       4.608   4.354  19.167  0.00  0.00    +0.000 A 
ATOM      8  C   UNL     1       5.807   4.845  18.648  0.00  0.00    +0.000 A 
ATOM      9  N   UNL     1       6.994   4.300  18.502  0.00  0.00    +0.000 NA
ATOM     10  N   UNL     1       7.829   5.253  17.962  0.00  0.00    +0.000 NA
ATOM     11  C   UNL     1       7.125   6.357  17.783  0.00  0.00    +0.000 A 
ATOM     12  N   UNL     1       5.826   6.140  18.178  0.00  0.00    +0.000 N 
ATOM     13  N   UNL     1       4.765   7.017  18.139  0.00  0.00    +0.000 NA
ATOM     14  C   UNL     1       2.245   8.336  17.613  0.00  0.00    +0.000 C 
ATOM     15  C   UNL     1       1.998   9.754  18.168  0.00  0.00    +0.000 C 
ENDROOT
BRANCH   1  20
ATOM     16  C   UNL     1      -2.305  10.868  17.974  0.00  0.00    +0.000 A 
ATOM     17  C   UNL     1      -2.621  11.847  18.915  0.00  0.00    +0.000 A 
ATOM     18  C   UNL     1      -1.752  12.108  19.969  0.00  0.00    +0.000 A 
ATOM     19  C   UNL     1      -0.556  11.394  20.073  0.00  0.00    +0.000 A 
ATOM     20  C   UNL     1      -0.198  10.407  19.142  0.00  0.00    +0.000 A 
ATOM     21  C   UNL     1      -1.110  10.152  18.103  0.00  0.00    +0.000 A 
BRANCH  16  23
ATOM     22  C   UNL     1      -4.380  11.552  17.029  0.00  0.00    +0.000 C 
ATOM     23  O   UNL     1      -3.228  10.721  16.973  0.00  0.00    +0.000 OA
ENDBRANCH  16  23
ENDBRANCH   1  20
BRANCH  11  24
ATOM     24  C   UNL     1       7.660   7.663  17.315  0.00  0.00    +0.000 C 
BRANCH  24  25
ATOM     25  C   UNL     1       8.403   8.416  18.422  0.00  0.00    +0.000 C 
BRANCH  25  26
ATOM     26  C   UNL     1       8.552   9.882  18.064  0.00  0.00    +0.000 C 
ATOM     27  O   UNL     1       7.698  10.490  17.423  0.00  0.00    +0.000 OA
ATOM     28  N   UNL     1       9.735  10.434  18.520  0.00  0.00    +0.000 N 
ATOM     29  C   UNL     1      10.073  11.757  18.219  0.00  0.00    +0.000 A 
ATOM     30  C   UNL     1       9.192  12.804  18.467  0.00  0.00    +0.000 A 
ATOM     31  C   UNL     1       9.565  14.093  18.099  0.00  0.00    +0.000 A 
ATOM     32  C   UNL     1      10.785  14.287  17.465  0.00  0.00    +0.000 A 
ATOM     33  C   UNL     1      11.608  13.186  17.282  0.00  0.00    +0.000 A 
ATOM     34  N   UNL     1      11.300  11.933  17.688  0.00  0.00    +0.000 NA
ATOM     35  H   UNL     1      10.539   9.821  18.550  0.00  0.00    +0.000 HD
ENDBRANCH  25  26
ENDBRANCH  24  25
ENDBRANCH  11  24
TORSDOF 5
ENDMDL
MODEL 2
REMARK VINA RESULT:      -8.5      0.895      1.402
REMARK  Name = 
REMARK  6 active torsions:
REMARK  status: ('A' for Active; 'I' for Inactive)
REMARK    1  A    between atoms: C_1  and  O_2
REMARK    2  A    between atoms: O_2  and  C_3
REMARK    3  A    between atoms: C_7  and  N_8
REMARK    4  A    between atoms: C_18  and  C_19
REMARK    5  A    between atoms: C_19  and  C_20
REMARK    6  A    between atoms: C_20  and  C_21
REMARK                            x       y       z     vdW  Elec       q    Type
REMARK                         _______ _______ _______ _____ _____    ______ ____
ROOT
ATOM      1  N   UNL     1       1.003   9.758  19.274  0.00  0.00    +0.000 N 
ATOM      2  C   UNL     1       1.276   8.780  20.337  0.00  0.00    +0.000 C 
ATOM      3  C   UNL     1       1.511   7.368  19.756  0.00  0.00    +0.000 C 
ATOM      4  N   UNL     1       2.534   7.402  18.697  0.00  0.00    +0.000 N 
ATOM      5  C   UNL     1       3.646   6.579  18.661  0.00  0.00    +0.000 A 
ATOM      6  C   UNL     1       3.520   5.180  19.193  0.00  0.00    +0.000 A 
ATOM      7  C   UNL     1       4.587   4.369  19.162  0.00  0.00    +0.000 A 
ATOM      8  C   UNL     1       5.787   4.856  18.644  0.00  0.00    +0.000 A 
ATOM      9  N   UNL     1       6.972   4.305  18.496  0.00  0.00    +0.000 NA
ATOM     10  N   UNL     1       7.811   5.256  17.959  0.00  0.00    +0.000 NA
ATOM     11  C   UNL     1       7.113   6.365  17.785  0.00  0.00    +0.000 A 
ATOM     12  N   UNL     1       5.812   6.152  18.179  0.00  0.00    +0.000 N 
ATOM     13  N   UNL     1       4.756   7.035  18.144  0.00  0.00    +0.000 NA
ATOM     14  C   UNL     1       2.243   8.368  17.624  0.00  0.00    +0.000 C 
ATOM     15  C   UNL     1       2.002   9.785  18.184  0.00  0.00    +0.000 C 
ENDROOT
BRANCH   1  20
ATOM     16  C   UNL     1      -1.795  12.115  19.969  0.00  0.00    +0.000 A 
ATOM     17  C   UNL     1      -2.660  11.801  18.922  0.00  0.00    +0.000 A 
ATOM     18  C   UNL     1      -2.305  10.831  17.991  0.00  0.00    +0.000 A 
ATOM     19  C   UNL     1      -1.085  10.164  18.117  0.00  0.00    +0.000 A 
ATOM     20  C   UNL     1      -0.190  10.445  19.161  0.00  0.00    +0.000 A 
ATOM     21  C   UNL     1      -0.569  11.447  20.071  0.00  0.00    +0.000 A 
BRANCH  16  23
ATOM     22  C   UNL     1      -3.487  12.785  21.503  0.00  0.00    +0.000 C 
ATOM     23  O   UNL     1      -2.266  13.068  20.832  0.00  0.00    +0.000 OA
ENDBRANCH  16  23
ENDBRANCH   1  20
BRANCH  11  24
ATOM     24  C   UNL     1       7.654   7.671  17.322  0.00  0.00    +0.000 C 
BRANCH  24  25
ATOM     25  C   UNL     1       8.401   8.415  18.432  0.00  0.00    +0.000 C 
BRANCH  25  26
ATOM     26  C   UNL     1       8.579   9.876  18.068  0.00  0.00    +0.000 C 
ATOM     27  O   UNL     1       7.744  10.495  17.413  0.00  0.00    +0.000 OA
ATOM     28  N   UNL     1       9.767  10.410  18.535  0.00  0.00    +0.000 N 
ATOM     29  C   UNL     1      10.131  11.726  18.232  0.00  0.00    +0.000 A 
ATOM     30  C   UNL     1       9.266  12.789  18.463  0.00  0.00    +0.000 A 
ATOM     31  C   UNL     1       9.666  14.069  18.092  0.00  0.00    +0.000 A 
ATOM     32  C   UNL     1      10.897  14.238  17.472  0.00  0.00    +0.000 A 
ATOM     33  C   UNL     1      11.702  13.122  17.306  0.00  0.00    +0.000 A 
ATOM     34  N   UNL     1      11.367  11.876  17.715  0.00  0.00    +0.000 NA
ATOM     35  H   UNL     1      10.559   9.784  18.579  0.00  0.00    +0.000 HD
ENDBRANCH  25  26
ENDBRANCH  24  25
ENDBRANCH  11  24
TORSDOF 5
ENDMDL
MODEL 3
REMARK VINA RESULT:      -8.1      1.818      2.276
REMARK  Name = 
REMARK  6 active torsions:
REMARK  status: ('A' for Active; 'I' for Inactive)
REMARK    1  A    between atoms: C_1  and  O_2
REMARK    2  A    between atoms: O_2  and  C_3
REMARK    3  A    between atoms: C_7  and  N_8
REMARK    4  A    between atoms: C_18  and  C_19
REMARK    5  A    between atoms: C_19  and  C_20
REMARK    6  A    between atoms: C_20  and  C_21
REMARK                            x       y       z     vdW  Elec       q    Type
REMARK                         _______ _______ _______ _____ _____    ______ ____
ROOT
ATOM      1  N   UNL     1       1.031  10.408  20.174  0.00  0.00    +0.000 N 
ATOM      2  C   UNL     1       1.222   9.495  21.310  0.00  0.00    +0.000 C 
ATOM      3  C   UNL     1       0.989   8.025  20.896  0.00  0.00    +0.000 C 
ATOM      4  N   UNL     1       1.795   7.681  19.711  0.00  0.00    +0.000 N 
ATOM      5  C   UNL     1       2.639   6.589  19.633  0.00  0.00    +0.000 A 
ATOM      6  C   UNL     1       2.253   5.331  20.359  0.00  0.00    +0.000 A 
ATOM      7  C   UNL     1       3.059   4.262  20.290  0.00  0.00    +0.000 A 
ATOM      8  C   UNL     1       4.239   4.355  19.551  0.00  0.00    +0.000 A 
ATOM      9  N   UNL     1       5.203   3.492  19.316  0.00  0.00    +0.000 NA
ATOM     10  N   UNL     1       6.153   4.126  18.546  0.00  0.00    +0.000 NA
ATOM     11  C   UNL     1       5.740   5.362  18.324  0.00  0.00    +0.000 A 
ATOM     12  N   UNL     1       4.513   5.547  18.918  0.00  0.00    +0.000 N 
ATOM     13  N   UNL     1       3.725   6.676  18.912  0.00  0.00    +0.000 NA
ATOM     14  C   UNL     1       1.581   8.587  18.570  0.00  0.00    +0.000 C 
ATOM     15  C   UNL     1       1.806  10.062  18.963  0.00  0.00    +0.000 C 
ENDROOT
BRANCH   1  20
ATOM     16  C   UNL     1      -2.005  12.395  21.011  0.00  0.00    +0.000 A 
ATOM     17  C   UNL     1      -1.966  13.358  20.005  0.00  0.00    +0.000 A 
ATOM     18  C   UNL     1      -0.933  13.353  19.074  0.00  0.00    +0.000 A 
ATOM     19  C   UNL     1       0.057  12.371  19.144  0.00  0.00    +0.000 A 
ATOM     20  C   UNL     1       0.049  11.379  20.136  0.00  0.00    +0.000 A 
ATOM     21  C   UNL     1      -0.996  11.427  21.076  0.00  0.00    +0.000 A 
BRANCH  16  23
ATOM     22  C   UNL     1      -2.862  12.185  23.222  0.00  0.00    +0.000 C 
ATOM     23  O   UNL     1      -3.082  12.491  21.851  0.00  0.00    +0.000 OA
ENDBRANCH  16  23
ENDBRANCH   1  20
BRANCH  11  24
ATOM     24  C   UNL     1       6.508   6.423  17.620  0.00  0.00    +0.000 C 
BRANCH  24  25
ATOM     25  C   UNL     1       7.705   6.911  18.439  0.00  0.00    +0.000 C 
BRANCH  25  26
ATOM     26  C   UNL     1       8.142   8.288  17.977  0.00  0.00    +0.000 C 
ATOM     27  O   UNL     1       8.027   8.654  16.810  0.00  0.00    +0.000 OA
ATOM     28  N   UNL     1       8.683   9.055  18.993  0.00  0.00    +0.000 N 
ATOM     29  C   UNL     1       9.205  10.326  18.733  0.00  0.00    +0.000 A 
ATOM     30  C   UNL     1       8.466  11.288  18.055  0.00  0.00    +0.000 A 
ATOM     31  C   UNL     1       9.059  12.517  17.781  0.00  0.00    +0.000 A 
ATOM     32  C   UNL     1      10.378  12.728  18.161  0.00  0.00    +0.000 A 
ATOM     33  C   UNL     1      11.027  11.720  18.856  0.00  0.00    +0.000 A 
ATOM     34  N   UNL     1      10.455  10.540  19.192  0.00  0.00    +0.000 NA
ATOM     35  H   UNL     1       9.195   8.560  19.711  0.00  0.00    +0.000 HD
ENDBRANCH  25  26
ENDBRANCH  24  25
ENDBRANCH  11  24
TORSDOF 5
ENDMDL
MODEL 4
REMARK VINA RESULT:      -8.1      4.076      5.263
REMARK  Name = 
REMARK  6 active torsions:
REMARK  status: ('A' for Active; 'I' for Inactive)
REMARK    1  A    between atoms: C_1  and  O_2
REMARK    2  A    between atoms: O_2  and  C_3
REMARK    3  A    between atoms: C_7  and  N_8
REMARK    4  A    between atoms: C_18  and  C_19
REMARK    5  A    between atoms: C_19  and  C_20
REMARK    6  A    between atoms: C_20  and  C_21
REMARK                            x       y       z     vdW  Elec       q    Type
REMARK                         _______ _______ _______ _____ _____    ______ ____
ROOT
ATOM      1  N   UNL     1       0.729  10.909  20.776  0.00  0.00    +0.000 N 
ATOM      2  C   UNL     1       0.821   9.951  21.888  0.00  0.00    +0.000 C 
ATOM      3  C   UNL     1       0.464   8.519  21.429  0.00  0.00    +0.000 C 
ATOM      4  N   UNL     1       1.252   8.138  20.244  0.00  0.00    +0.000 N 
ATOM      5  C   UNL     1       1.995   6.977  20.144  0.00  0.00    +0.000 A 
ATOM      6  C   UNL     1       1.489   5.739  20.829  0.00  0.00    +0.000 A 
ATOM      7  C   UNL     1       2.196   4.604  20.739  0.00  0.00    +0.000 A 
ATOM      8  C   UNL     1       3.390   4.611  20.016  0.00  0.00    +0.000 A 
ATOM      9  N   UNL     1       4.276   3.672  19.767  0.00  0.00    +0.000 NA
ATOM     10  N   UNL     1       5.290   4.239  19.026  0.00  0.00    +0.000 NA
ATOM     11  C   UNL     1       4.992   5.513  18.835  0.00  0.00    +0.000 A 
ATOM     12  N   UNL     1       3.779   5.791  19.420  0.00  0.00    +0.000 N 
ATOM     13  N   UNL     1       3.095   6.986  19.438  0.00  0.00    +0.000 NA
ATOM     14  C   UNL     1       1.136   9.091  19.127  0.00  0.00    +0.000 C 
ATOM     15  C   UNL     1       1.486  10.528  19.565  0.00  0.00    +0.000 C 
ENDROOT
BRANCH   1  20
ATOM     16  C   UNL     1      -2.369  12.907  20.250  0.00  0.00    +0.000 A 
ATOM     17  C   UNL     1      -1.945  14.158  20.691  0.00  0.00    +0.000 A 
ATOM     18  C   UNL     1      -0.651  14.327  21.172  0.00  0.00    +0.000 A 
ATOM     19  C   UNL     1       0.225  13.239  21.199  0.00  0.00    +0.000 A 
ATOM     20  C   UNL     1      -0.161  11.965  20.756  0.00  0.00    +0.000 A 
ATOM     21  C   UNL     1      -1.483  11.824  20.298  0.00  0.00    +0.000 A 
BRANCH  16  23
ATOM     22  C   UNL     1      -3.967  11.866  18.825  0.00  0.00    +0.000 C 
ATOM     23  O   UNL     1      -3.654  12.874  19.778  0.00  0.00    +0.000 OA
ENDBRANCH  16  23
ENDBRANCH   1  20
BRANCH  11  24
ATOM     24  C   UNL     1       5.861   6.519  18.170  0.00  0.00    +0.000 C 
BRANCH  24  25
ATOM     25  C   UNL     1       7.242   5.955  17.826  0.00  0.00    +0.000 C 
BRANCH  25  26
ATOM     26  C   UNL     1       7.164   5.063  16.601  0.00  0.00    +0.000 C 
ATOM     27  O   UNL     1       7.297   3.844  16.669  0.00  0.00    +0.000 OA
ATOM     28  N   UNL     1       6.946   5.767  15.431  0.00  0.00    +0.000 N 
ATOM     29  C   UNL     1       6.917   5.114  14.195  0.00  0.00    +0.000 A 
ATOM     30  C   UNL     1       6.106   4.006  13.979  0.00  0.00    +0.000 A 
ATOM     31  C   UNL     1       6.161   3.368  12.744  0.00  0.00    +0.000 A 
ATOM     32  C   UNL     1       7.046   3.836  11.782  0.00  0.00    +0.000 A 
ATOM     33  C   UNL     1       7.796   4.962  12.078  0.00  0.00    +0.000 A 
ATOM     34  N   UNL     1       7.718   5.641  13.246  0.00  0.00    +0.000 NA
ATOM     35  H   UNL     1       7.350   6.693  15.377  0.00  0.00    +0.000 HD
ENDBRANCH  25  26
ENDBRANCH  24  25
ENDBRANCH  11  24
TORSDOF 5
ENDMDL
MODEL 5
REMARK VINA RESULT:      -8.1      1.274      1.550
REMARK  Name = 
REMARK  6 active torsions:
REMARK  status: ('A' for Active; 'I' for Inactive)
REMARK    1  A    between atoms: C_1  and  O_2
REMARK    2  A    between atoms: O_2  and  C_3
REMARK    3  A    between atoms: C_7  and  N_8
REMARK    4  A    between atoms: C_18  and  C_19
REMARK    5  A    between atoms: C_19  and  C_20
REMARK    6  A    between atoms: C_20  and  C_21
REMARK                            x       y       z     vdW  Elec       q    Type
REMARK                         _______ _______ _______ _____ _____    ______ ____
ROOT
ATOM      1  N   UNL     1       0.798  10.180  20.183  0.00  0.00    +0.000 N 
ATOM      2  C   UNL     1       1.023   9.255  21.303  0.00  0.00    +0.000 C 
ATOM      3  C   UNL     1       0.900   7.782  20.852  0.00  0.00    +0.000 C 
ATOM      4  N   UNL     1       1.753   7.522  19.679  0.00  0.00    +0.000 N 
ATOM      5  C   UNL     1       2.670   6.490  19.597  0.00  0.00    +0.000 A 
ATOM      6  C   UNL     1       2.354   5.193  20.286  0.00  0.00    +0.000 A 
ATOM      7  C   UNL     1       3.231   4.181  20.213  0.00  0.00    +0.000 A 
ATOM      8  C   UNL     1       4.418   4.370  19.505  0.00  0.00    +0.000 A 
ATOM      9  N   UNL     1       5.443   3.579  19.274  0.00  0.00    +0.000 NA
ATOM     10  N   UNL     1       6.365   4.293  18.542  0.00  0.00    +0.000 NA
ATOM     11  C   UNL     1       5.875   5.504  18.336  0.00  0.00    +0.000 A 
ATOM     12  N   UNL     1       4.626   5.592  18.905  0.00  0.00    +0.000 N 
ATOM     13  N   UNL     1       3.764   6.666  18.904  0.00  0.00    +0.000 NA
ATOM     14  C   UNL     1       1.505   8.438  18.553  0.00  0.00    +0.000 C 
ATOM     15  C   UNL     1       1.621   9.915  18.984  0.00  0.00    +0.000 C 
ENDROOT
BRANCH   1  20
ATOM     16  C   UNL     1      -2.344  11.905  19.173  0.00  0.00    +0.000 A 
ATOM     17  C   UNL     1      -2.346  12.976  20.064  0.00  0.00    +0.000 A 
ATOM     18  C   UNL     1      -1.324  13.109  20.997  0.00  0.00    +0.000 A 
ATOM     19  C   UNL     1      -0.289  12.171  21.029  0.00  0.00    +0.000 A 
ATOM     20  C   UNL     1      -0.246  11.084  20.143  0.00  0.00    +0.000 A 
ATOM     21  C   UNL     1      -1.307  10.966  19.229  0.00  0.00    +0.000 A 
BRANCH  16  23
ATOM     22  C   UNL     1      -4.697  11.768  18.835  0.00  0.00    +0.000 C 
ATOM     23  O   UNL     1      -3.390  11.896  18.289  0.00  0.00    +0.000 OA
ENDBRANCH  16  23
ENDBRANCH   1  20
BRANCH  11  24
ATOM     24  C   UNL     1       6.586   6.630  17.674  0.00  0.00    +0.000 C 
BRANCH  24  25
ATOM     25  C   UNL     1       7.790   7.112  18.487  0.00  0.00    +0.000 C 
BRANCH  25  26
ATOM     26  C   UNL     1       8.243   8.479  18.011  0.00  0.00    +0.000 C 
ATOM     27  O   UNL     1       8.166   8.821  16.833  0.00  0.00    +0.000 OA
ATOM     28  N   UNL     1       8.753   9.266  19.027  0.00  0.00    +0.000 N 
ATOM     29  C   UNL     1       9.284  10.531  18.758  0.00  0.00    +0.000 A 
ATOM     30  C   UNL     1       8.568  11.479  18.037  0.00  0.00    +0.000 A 
ATOM     31  C   UNL     1       9.171  12.702  17.757  0.00  0.00    +0.000 A 
ATOM     32  C   UNL     1      10.477  12.921  18.174  0.00  0.00    +0.000 A 
ATOM     33  C   UNL     1      11.102  11.926  18.909  0.00  0.00    +0.000 A 
ATOM     34  N   UNL     1      10.519  10.754  19.252  0.00  0.00    +0.000 NA
ATOM     35  H   UNL     1       9.241   8.785  19.771  0.00  0.00    +0.000 HD
ENDBRANCH  25  26
ENDBRANCH  24  25
ENDBRANCH  11  24
TORSDOF 5
ENDMDL
MODEL 6
REMARK VINA RESULT:      -8.0      4.326      5.366
REMARK  Name = 
REMARK  6 active torsions:
REMARK  status: ('A' for Active; 'I' for Inactive)
REMARK    1  A    between atoms: C_1  and  O_2
REMARK    2  A    between atoms: O_2  and  C_3
REMARK    3  A    between atoms: C_7  and  N_8
REMARK    4  A    between atoms: C_18  and  C_19
REMARK    5  A    between atoms: C_19  and  C_20
REMARK    6  A    between atoms: C_20  and  C_21
REMARK                            x       y       z     vdW  Elec       q    Type
REMARK                         _______ _______ _______ _____ _____    ______ ____
ROOT
ATOM      1  N   UNL     1       0.854  10.641  20.834  0.00  0.00    +0.000 N 
ATOM      2  C   UNL     1       0.844   9.631  21.902  0.00  0.00    +0.000 C 
ATOM      3  C   UNL     1       0.507   8.229  21.347  0.00  0.00    +0.000 C 
ATOM      4  N   UNL     1       1.382   7.891  20.212  0.00  0.00    +0.000 N 
ATOM      5  C   UNL     1       2.117   6.723  20.115  0.00  0.00    +0.000 A 
ATOM      6  C   UNL     1       1.541   5.463  20.697  0.00  0.00    +0.000 A 
ATOM      7  C   UNL     1       2.238   4.322  20.608  0.00  0.00    +0.000 A 
ATOM      8  C   UNL     1       3.487   4.343  19.984  0.00  0.00    +0.000 A 
ATOM      9  N   UNL     1       4.378   3.402  19.762  0.00  0.00    +0.000 NA
ATOM     10  N   UNL     1       5.455   3.987  19.133  0.00  0.00    +0.000 NA
ATOM     11  C   UNL     1       5.190   5.273  18.981  0.00  0.00    +0.000 A 
ATOM     12  N   UNL     1       3.937   5.543  19.480  0.00  0.00    +0.000 N 
ATOM     13  N   UNL     1       3.270   6.747  19.501  0.00  0.00    +0.000 NA
ATOM     14  C   UNL     1       1.370   8.898  19.136  0.00  0.00    +0.000 C 
ATOM     15  C   UNL     1       1.702  10.306  19.671  0.00  0.00    +0.000 C 
ENDROOT
BRANCH   1  20
ATOM     16  C   UNL     1      -0.780  13.830  19.818  0.00  0.00    +0.000 A 
ATOM     17  C   UNL     1      -1.798  13.910  20.766  0.00  0.00    +0.000 A 
ATOM     18  C   UNL     1      -1.945  12.906  21.718  0.00  0.00    +0.000 A 
ATOM     19  C   UNL     1      -1.061  11.825  21.726  0.00  0.00    +0.000 A 
ATOM     20  C   UNL     1      -0.018  11.712  20.794  0.00  0.00    +0.000 A 
ATOM     21  C   UNL     1       0.088  12.731  19.831  0.00  0.00    +0.000 A 
BRANCH  16  23
ATOM     22  C   UNL     1      -0.217  16.115  19.461  0.00  0.00    +0.000 C 
ATOM     23  O   UNL     1      -0.724  14.888  18.951  0.00  0.00    +0.000 OA
ENDBRANCH  16  23
ENDBRANCH   1  20
BRANCH  11  24
ATOM     24  C   UNL     1       6.124   6.295  18.438  0.00  0.00    +0.000 C 
BRANCH  24  25
ATOM     25  C   UNL     1       7.458   5.687  18.000  0.00  0.00    +0.000 C 
BRANCH  25  26
ATOM     26  C   UNL     1       7.286   4.884  16.725  0.00  0.00    +0.000 C 
ATOM     27  O   UNL     1       7.286   3.656  16.718  0.00  0.00    +0.000 OA
ATOM     28  N   UNL     1       7.148   5.677  15.600  0.00  0.00    +0.000 N 
ATOM     29  C   UNL     1       7.052   5.107  14.327  0.00  0.00    +0.000 A 
ATOM     30  C   UNL     1       6.125   4.109  14.049  0.00  0.00    +0.000 A 
ATOM     31  C   UNL     1       6.113   3.544  12.777  0.00  0.00    +0.000 A 
ATOM     32  C   UNL     1       7.045   3.970  11.840  0.00  0.00    +0.000 A 
ATOM     33  C   UNL     1       7.913   4.989  12.201  0.00  0.00    +0.000 A 
ATOM     34  N   UNL     1       7.906   5.600  13.408  0.00  0.00    +0.000 NA
ATOM     35  H   UNL     1       7.651   6.555  15.599  0.00  0.00    +0.000 HD
ENDBRANCH  25  26
ENDBRANCH  24  25
ENDBRANCH  11  24
TORSDOF 5
ENDMDL
MODEL 7
REMARK VINA RESULT:      -8.0      1.440      1.983
REMARK  Name = 
REMARK  6 active torsions:
REMARK  status: ('A' for Active; 'I' for Inactive)
REMARK    1  A    between atoms: C_1  and  O_2
REMARK    2  A    between atoms: O_2  and  C_3
REMARK    3  A    between atoms: C_7  and  N_8
REMARK    4  A    between atoms: C_18  and  C_19
REMARK    5  A    between atoms: C_19  and  C_20
REMARK    6  A    between atoms: C_20  and  C_21
REMARK                            x       y       z     vdW  Elec       q    Type
REMARK                         _______ _______ _______ _____ _____    ______ ____
ROOT
ATOM      1  N   UNL     1       0.901   9.939  19.927  0.00  0.00    +0.000 N 
ATOM      2  C   UNL     1       1.140   8.925  20.965  0.00  0.00    +0.000 C 
ATOM      3  C   UNL     1       1.188   7.503  20.363  0.00  0.00    +0.000 C 
ATOM      4  N   UNL     1       2.138   7.443  19.239  0.00  0.00    +0.000 N 
ATOM      5  C   UNL     1       3.154   6.511  19.125  0.00  0.00    +0.000 A 
ATOM      6  C   UNL     1       2.918   5.126  19.657  0.00  0.00    +0.000 A 
ATOM      7  C   UNL     1       3.891   4.209  19.551  0.00  0.00    +0.000 A 
ATOM      8  C   UNL     1       5.099   4.576  18.957  0.00  0.00    +0.000 A 
ATOM      9  N   UNL     1       6.208   3.908  18.728  0.00  0.00    +0.000 NA
ATOM     10  N   UNL     1       7.104   4.774  18.142  0.00  0.00    +0.000 NA
ATOM     11  C   UNL     1       6.516   5.951  18.020  0.00  0.00    +0.000 A 
ATOM     12  N   UNL     1       5.228   5.868  18.498  0.00  0.00    +0.000 N 
ATOM     13  N   UNL     1       4.269   6.856  18.538  0.00  0.00    +0.000 NA
ATOM     14  C   UNL     1       1.879   8.448  18.192  0.00  0.00    +0.000 C 
ATOM     15  C   UNL     1       1.824   9.875  18.774  0.00  0.00    +0.000 C 
ENDROOT
BRANCH   1  20
ATOM     16  C   UNL     1      -1.839  12.219  21.005  0.00  0.00    +0.000 A 
ATOM     17  C   UNL     1      -2.541  12.358  19.809  0.00  0.00    +0.000 A 
ATOM     18  C   UNL     1      -2.095  11.715  18.659  0.00  0.00    +0.000 A 
ATOM     19  C   UNL     1      -0.949  10.919  18.712  0.00  0.00    +0.000 A 
ATOM     20  C   UNL     1      -0.219  10.746  19.898  0.00  0.00    +0.000 A 
ATOM     21  C   UNL     1      -0.683  11.429  21.035  0.00  0.00    +0.000 A 
BRANCH  16  23
ATOM     22  C   UNL     1      -1.523  13.193  23.153  0.00  0.00    +0.000 C 
ATOM     23  O   UNL     1      -2.389  12.880  22.070  0.00  0.00    +0.000 OA
ENDBRANCH  16  23
ENDBRANCH   1  20
BRANCH  11  24
ATOM     24  C   UNL     1       7.157   7.199  17.529  0.00  0.00    +0.000 C 
BRANCH  24  25
ATOM     25  C   UNL     1       8.283   7.673  18.451  0.00  0.00    +0.000 C 
BRANCH  25  26
ATOM     26  C   UNL     1       8.468   9.174  18.339  0.00  0.00    +0.000 C 
ATOM     27  O   UNL     1       7.864   9.849  17.509  0.00  0.00    +0.000 OA
ATOM     28  N   UNL     1       9.383   9.677  19.247  0.00  0.00    +0.000 N 
ATOM     29  C   UNL     1       9.732  11.031  19.239  0.00  0.00    +0.000 A 
ATOM     30  C   UNL     1       8.765  12.029  19.274  0.00  0.00    +0.000 A 
ATOM     31  C   UNL     1       9.173  13.358  19.211  0.00  0.00    +0.000 A 
ATOM     32  C   UNL     1      10.526  13.642  19.081  0.00  0.00    +0.000 A 
ATOM     33  C   UNL     1      11.419  12.582  19.081  0.00  0.00    +0.000 A 
ATOM     34  N   UNL     1      11.056  11.284  19.205  0.00  0.00    +0.000 NA
ATOM     35  H   UNL     1      10.156   9.074  19.493  0.00  0.00    +0.000 HD
ENDBRANCH  25  26
ENDBRANCH  24  25
ENDBRANCH  11  24
TORSDOF 5
ENDMDL
MODEL 8
REMARK VINA RESULT:      -8.0      1.328      1.936
REMARK  Name = 
REMARK  6 active torsions:
REMARK  status: ('A' for Active; 'I' for Inactive)
REMARK    1  A    between atoms: C_1  and  O_2
REMARK    2  A    between atoms: O_2  and  C_3
REMARK    3  A    between atoms: C_7  and  N_8
REMARK    4  A    between atoms: C_18  and  C_19
REMARK    5  A    between atoms: C_19  and  C_20
REMARK    6  A    between atoms: C_20  and  C_21
REMARK                            x       y       z     vdW  Elec       q    Type
REMARK                         _______ _______ _______ _____ _____    ______ ____
ROOT
ATOM      1  N   UNL     1       1.083   9.774  19.061  0.00  0.00    +0.000 N 
ATOM      2  C   UNL     1       1.442   8.923  20.205  0.00  0.00    +0.000 C 
ATOM      3  C   UNL     1       1.663   7.457  19.770  0.00  0.00    +0.000 C 
ATOM      4  N   UNL     1       2.613   7.382  18.647  0.00  0.00    +0.000 N 
ATOM      5  C   UNL     1       3.734   6.572  18.628  0.00  0.00    +0.000 A 
ATOM      6  C   UNL     1       3.668   5.240  19.319  0.00  0.00    +0.000 A 
ATOM      7  C   UNL     1       4.744   4.441  19.307  0.00  0.00    +0.000 A 
ATOM      8  C   UNL     1       5.900   4.879  18.658  0.00  0.00    +0.000 A 
ATOM      9  N   UNL     1       7.082   4.327  18.492  0.00  0.00    +0.000 NA
ATOM     10  N   UNL     1       7.867   5.220  17.798  0.00  0.00    +0.000 NA
ATOM     11  C   UNL     1       7.140   6.296  17.549  0.00  0.00    +0.000 A 
ATOM     12  N   UNL     1       5.871   6.115  18.051  0.00  0.00    +0.000 N 
ATOM     13  N   UNL     1       4.800   6.978  17.990  0.00  0.00    +0.000 NA
ATOM     14  C   UNL     1       2.235   8.220  17.496  0.00  0.00    +0.000 C 
ATOM     15  C   UNL     1       2.008   9.688  17.910  0.00  0.00    +0.000 C 
ENDROOT
BRANCH   1  20
ATOM     16  C   UNL     1      -1.694  12.182  19.661  0.00  0.00    +0.000 A 
ATOM     17  C   UNL     1      -2.631  11.728  18.734  0.00  0.00    +0.000 A 
ATOM     18  C   UNL     1      -2.332  10.647  17.912  0.00  0.00    +0.000 A 
ATOM     19  C   UNL     1      -1.094  10.010  18.028  0.00  0.00    +0.000 A 
ATOM     20  C   UNL     1      -0.127  10.431  18.954  0.00  0.00    +0.000 A 
ATOM     21  C   UNL     1      -0.452  11.541  19.753  0.00  0.00    +0.000 A 
BRANCH  16  23
ATOM     22  C   UNL     1      -1.394  13.489  21.627  0.00  0.00    +0.000 C 
ATOM     23  O   UNL     1      -2.113  13.236  20.427  0.00  0.00    +0.000 OA
ENDBRANCH  16  23
ENDBRANCH   1  20
BRANCH  11  24
ATOM     24  C   UNL     1       7.626   7.546  16.908  0.00  0.00    +0.000 C 
BRANCH  24  25
ATOM     25  C   UNL     1       7.196   8.797  17.679  0.00  0.00    +0.000 C 
BRANCH  25  26
ATOM     26  C   UNL     1       8.395   9.465  18.324  0.00  0.00    +0.000 C 
ATOM     27  O   UNL     1       9.132   8.873  19.108  0.00  0.00    +0.000 OA
ATOM     28  N   UNL     1       8.548  10.787  17.945  0.00  0.00    +0.000 N 
ATOM     29  C   UNL     1       9.559  11.580  18.497  0.00  0.00    +0.000 A 
ATOM     30  C   UNL     1      10.884  11.163  18.503  0.00  0.00    +0.000 A 
ATOM     31  C   UNL     1      11.837  11.973  19.113  0.00  0.00    +0.000 A 
ATOM     32  C   UNL     1      11.430  13.150  19.726  0.00  0.00    +0.000 A 
ATOM     33  C   UNL     1      10.090  13.496  19.647  0.00  0.00    +0.000 A 
ATOM     34  N   UNL     1       9.152  12.761  19.005  0.00  0.00    +0.000 NA
ATOM     35  H   UNL     1       7.700  11.306  17.759  0.00  0.00    +0.000 HD
ENDBRANCH  25  26
ENDBRANCH  24  25
ENDBRANCH  11  24
TORSDOF 5
ENDMDL
MODEL 9
REMARK VINA RESULT:      -8.0      1.630      2.114
REMARK  Name = 
REMARK  6 active torsions:
REMARK  status: ('A' for Active; 'I' for Inactive)
REMARK    1  A    between atoms: C_1  and  O_2
REMARK    2  A    between atoms: O_2  and  C_3
REMARK    3  A    between atoms: C_7  and  N_8
REMARK    4  A    between atoms: C_18  and  C_19
REMARK    5  A    between atoms: C_19  and  C_20
REMARK    6  A    between atoms: C_20  and  C_21
REMARK                            x       y       z     vdW  Elec       q    Type
REMARK                         _______ _______ _______ _____ _____    ______ ____
ROOT
ATOM      1  N   UNL     1       1.252  10.384  19.505  0.00  0.00    +0.000 N 
ATOM      2  C   UNL     1       1.355   9.531  20.698  0.00  0.00    +0.000 C 
ATOM      3  C   UNL     1       1.153   8.041  20.344  0.00  0.00    +0.000 C 
ATOM      4  N   UNL     1       2.045   7.640  19.242  0.00  0.00    +0.000 N 
ATOM      5  C   UNL     1       2.891   6.546  19.284  0.00  0.00    +0.000 A 
ATOM      6  C   UNL     1       2.450   5.327  20.042  0.00  0.00    +0.000 A 
ATOM      7  C   UNL     1       3.257   4.257  20.089  0.00  0.00    +0.000 A 
ATOM      8  C   UNL     1       4.490   4.315  19.438  0.00  0.00    +0.000 A 
ATOM      9  N   UNL     1       5.468   3.444  19.321  0.00  0.00    +0.000 NA
ATOM     10  N   UNL     1       6.474   4.041  18.594  0.00  0.00    +0.000 NA
ATOM     11  C   UNL     1       6.081   5.262  18.278  0.00  0.00    +0.000 A 
ATOM     12  N   UNL     1       4.813   5.474  18.767  0.00  0.00    +0.000 N 
ATOM     13  N   UNL     1       4.029   6.600  18.643  0.00  0.00    +0.000 NA
ATOM     14  C   UNL     1       1.920   8.486  18.043  0.00  0.00    +0.000 C 
ATOM     15  C   UNL     1       2.116   9.979  18.376  0.00  0.00    +0.000 C 
ENDROOT
BRANCH   1  20
ATOM     16  C   UNL     1      -0.407  13.657  18.868  0.00  0.00    +0.000 A 
ATOM     17  C   UNL     1      -1.743  13.309  19.061  0.00  0.00    +0.000 A 
ATOM     18  C   UNL     1      -2.083  11.999  19.382  0.00  0.00    +0.000 A 
ATOM     19  C   UNL     1      -1.079  11.037  19.522  0.00  0.00    +0.000 A 
ATOM     20  C   UNL     1       0.277  11.350  19.344  0.00  0.00    +0.000 A 
ATOM     21  C   UNL     1       0.585  12.677  18.997  0.00  0.00    +0.000 A 
BRANCH  16  23
ATOM     22  C   UNL     1      -0.559  15.923  19.580  0.00  0.00    +0.000 C 
ATOM     23  O   UNL     1      -0.199  14.979  18.579  0.00  0.00    +0.000 OA
ENDBRANCH  16  23
ENDBRANCH   1  20
BRANCH  11  24
ATOM     24  C   UNL     1       6.901   6.288  17.580  0.00  0.00    +0.000 C 
BRANCH  24  25
ATOM     25  C   UNL     1       7.856   7.011  18.534  0.00  0.00    +0.000 C 
BRANCH  25  26
ATOM     26  C   UNL     1       8.180   8.399  18.014  0.00  0.00    +0.000 C 
ATOM     27  O   UNL     1       7.894   8.754  16.873  0.00  0.00    +0.000 OA
ATOM     28  N   UNL     1       8.830   9.189  18.945  0.00  0.00    +0.000 N 
ATOM     29  C   UNL     1       9.270  10.474  18.614  0.00  0.00    +0.000 A 
ATOM     30  C   UNL     1       8.413  11.408  18.042  0.00  0.00    +0.000 A 
ATOM     31  C   UNL     1       8.922  12.653  17.687  0.00  0.00    +0.000 A 
ATOM     32  C   UNL     1      10.273  12.910  17.882  0.00  0.00    +0.000 A 
ATOM     33  C   UNL     1      11.044  11.927  18.482  0.00  0.00    +0.000 A 
ATOM     34  N   UNL     1      10.563  10.732  18.896  0.00  0.00    +0.000 NA
ATOM     35  H   UNL     1       9.452   8.715  19.586  0.00  0.00    +0.000 HD
ENDBRANCH  25  26
ENDBRANCH  24  25
ENDBRANCH  11  24
TORSDOF 5
ENDMDL
