MODEL 1
REMARK VINA RESULT:      -8.0      0.000      0.000
REMARK  Name = 
REMARK  6 active torsions:
REMARK  status: ('A' for Active; 'I' for Inactive)
REMARK    1  A    between atoms: C_1  and  C_2
REMARK    2  A    between atoms: C_7  and  C_8
REMARK    3  A    between atoms: N_10  and  C_11
REMARK    4  A    between atoms: N_15  and  C_16
REMARK    5  A    between atoms: N_19  and  C_20
REMARK    6  A    between atoms: C_20  and  C_21
REMARK                            x       y       z     vdW  Elec       q    Type
REMARK                         _______ _______ _______ _____ _____    ______ ____
ROOT
ATOM      1  C   UNL     1       1.781   4.384  20.713  0.00  0.00    +0.000 A 
ATOM      2  C   UNL     1       2.245   3.807  21.879  0.00  0.00    +0.000 A 
ATOM      3  C   UNL     1       2.724   2.541  21.523  0.00  0.00    +0.000 A 
ATOM      4  N   UNL     1       2.577   2.307  20.222  0.00  0.00    +0.000 NA
ATOM      5  N   UNL     1       1.993   3.420  19.735  0.00  0.00    +0.000 N 
ENDROOT
BRANCH   5   6
ATOM      6  C   UNL     1       1.693   3.470  18.301  0.00  0.00    +0.000 C 
ATOM      7  C   UNL     1       2.347   2.339  17.491  0.00  0.00    +0.000 C 
ATOM      8  C   UNL     1       3.855   2.537  17.266  0.00  0.00    +0.000 C 
ATOM      9  N   UNL     1       4.175   3.860  16.731  0.00  0.00    +0.000 NA
ATOM     10  C   UNL     1       3.568   4.981  17.445  0.00  0.00    +0.000 C 
ATOM     11  C   UNL     1       2.058   4.815  17.660  0.00  0.00    +0.000 C 
BRANCH   9  12
ATOM     12  C   UNL     1       5.618   4.047  16.456  0.00  0.00    +0.000 C 
BRANCH  12  13
ATOM     13  C   UNL     1       6.398   5.107  17.221  0.00  0.00    +0.000 A 
ATOM     14  C   UNL     1       6.998   4.792  18.450  0.00  0.00    +0.000 A 
ATOM     15  C   UNL     1       7.788   5.744  19.085  0.00  0.00    +0.000 A 
ATOM     16  N   UNL     1       8.014   6.981  18.599  0.00  0.00    +0.000 NA
ATOM     17  C   UNL     1       7.436   7.269  17.416  0.00  0.00    +0.000 A 
ATOM     18  C   UNL     1       6.646   6.380  16.700  0.00  0.00    +0.000 A 
ENDBRANCH  12  13
ENDBRANCH   9  12
ENDBRANCH   5   6
BRANCH   1  21
ATOM     19  C   UNL     1       2.022   6.846  20.303  0.00  0.00    +0.000 C 
ATOM     20  O   UNL     1       3.232   6.775  20.172  0.00  0.00    +0.000 OA
ATOM     21  N   UNL     1       1.226   5.662  20.567  0.00  0.00    +0.000 N 
ATOM     22  H   UNL     1       0.222   5.756  20.614  0.00  0.00    +0.000 HD
BRANCH  19  29
ATOM     23  C   UNL     1       2.160   8.504  17.806  0.00  0.00    +0.000 C 
ATOM     24  C   UNL     1       1.437   8.959  19.046  0.00  0.00    +0.000 A 
ATOM     25  C   UNL     1       0.871  10.245  19.045  0.00  0.00    +0.000 A 
ATOM     26  C   UNL     1       0.138  10.702  20.139  0.00  0.00    +0.000 A 
ATOM     27  C   UNL     1      -0.029   9.888  21.255  0.00  0.00    +0.000 A 
ATOM     28  C   UNL     1       0.569   8.625  21.299  0.00  0.00    +0.000 A 
ATOM     29  C   UNL     1       1.309   8.153  20.203  0.00  0.00    +0.000 A 
ENDBRANCH  19  29
ENDBRANCH   1  21
TORSDOF 5
ENDMDL
MODEL 2
REMARK VINA RESULT:      -7.8      0.512      1.355
REMARK  Name = 
REMARK  6 active torsions:
REMARK  status: ('A' for Active; 'I' for Inactive)
REMARK    1  A    between atoms: C_1  and  C_2
REMARK    2  A    between atoms: C_7  and  C_8
REMARK    3  A    between atoms: N_10  and  C_11
REMARK    4  A    between atoms: N_15  and  C_16
REMARK    5  A    between atoms: N_19  and  C_20
REMARK    6  A    between atoms: C_20  and  C_21
REMARK                            x       y       z     vdW  Elec       q    Type
REMARK                         _______ _______ _______ _____ _____    ______ ____
ROOT
ATOM      1  C   UNL     1       1.833   4.484  20.557  0.00  0.00    +0.000 A 
ATOM      2  C   UNL     1       2.222   4.060  21.813  0.00  0.00    +0.000 A 
ATOM      3  C   UNL     1       2.550   2.705  21.683  0.00  0.00    +0.000 A 
ATOM      4  N   UNL     1       2.381   2.276  20.436  0.00  0.00    +0.000 NA
ATOM      5  N   UNL     1       1.934   3.352  19.757  0.00  0.00    +0.000 N 
ENDROOT
BRANCH   5   6
ATOM      6  C   UNL     1       1.647   3.195  18.329  0.00  0.00    +0.000 C 
ATOM      7  C   UNL     1       2.385   2.017  17.673  0.00  0.00    +0.000 C 
ATOM      8  C   UNL     1       3.878   2.289  17.427  0.00  0.00    +0.000 C 
ATOM      9  N   UNL     1       4.113   3.551  16.726  0.00  0.00    +0.000 NA
ATOM     10  C   UNL     1       3.423   4.710  17.288  0.00  0.00    +0.000 C 
ATOM     11  C   UNL     1       1.925   4.468  17.520  0.00  0.00    +0.000 C 
BRANCH   9  12
ATOM     12  C   UNL     1       5.542   3.800  16.432  0.00  0.00    +0.000 C 
BRANCH  12  13
ATOM     13  C   UNL     1       6.273   4.927  17.149  0.00  0.00    +0.000 A 
ATOM     14  C   UNL     1       6.944   4.678  18.356  0.00  0.00    +0.000 A 
ATOM     15  C   UNL     1       7.686   5.696  18.944  0.00  0.00    +0.000 A 
ATOM     16  N   UNL     1       7.799   6.939  18.432  0.00  0.00    +0.000 NA
ATOM     17  C   UNL     1       7.153   7.164  17.270  0.00  0.00    +0.000 A 
ATOM     18  C   UNL     1       6.403   6.206  16.600  0.00  0.00    +0.000 A 
ENDBRANCH  12  13
ENDBRANCH   9  12
ENDBRANCH   5   6
BRANCH   1  21
ATOM     19  C   UNL     1       2.370   6.830  19.854  0.00  0.00    +0.000 C 
ATOM     20  O   UNL     1       3.572   6.628  19.858  0.00  0.00    +0.000 OA
ATOM     21  N   UNL     1       1.432   5.774  20.189  0.00  0.00    +0.000 N 
ATOM     22  H   UNL     1       0.444   5.967  20.120  0.00  0.00    +0.000 HD
BRANCH  19  29
ATOM     23  C   UNL     1       1.134   8.584  21.952  0.00  0.00    +0.000 C 
ATOM     24  C   UNL     1       1.170   8.960  20.494  0.00  0.00    +0.000 A 
ATOM     25  C   UNL     1       0.531  10.149  20.104  0.00  0.00    +0.000 A 
ATOM     26  C   UNL     1       0.580  10.583  18.781  0.00  0.00    +0.000 A 
ATOM     27  C   UNL     1       1.255   9.830  17.825  0.00  0.00    +0.000 A 
ATOM     28  C   UNL     1       1.854   8.618  18.180  0.00  0.00    +0.000 A 
ATOM     29  C   UNL     1       1.813   8.171  19.511  0.00  0.00    +0.000 A 
ENDBRANCH  19  29
ENDBRANCH   1  21
TORSDOF 5
ENDMDL
MODEL 3
REMARK VINA RESULT:      -7.5      1.583      2.324
REMARK  Name = 
REMARK  6 active torsions:
REMARK  status: ('A' for Active; 'I' for Inactive)
REMARK    1  A    between atoms: C_1  and  C_2
REMARK    2  A    between atoms: C_7  and  C_8
REMARK    3  A    between atoms: N_10  and  C_11
REMARK    4  A    between atoms: N_15  and  C_16
REMARK    5  A    between atoms: N_19  and  C_20
REMARK    6  A    between atoms: C_20  and  C_21
REMARK                            x       y       z     vdW  Elec       q    Type
REMARK                         _______ _______ _______ _____ _____    ______ ____
ROOT
ATOM      1  C   UNL     1       1.769   4.344  20.674  0.00  0.00    +0.000 A 
ATOM      2  C   UNL     1       2.201   3.747  21.843  0.00  0.00    +0.000 A 
ATOM      3  C   UNL     1       2.667   2.477  21.482  0.00  0.00    +0.000 A 
ATOM      4  N   UNL     1       2.543   2.260  20.176  0.00  0.00    +0.000 NA
ATOM      5  N   UNL     1       1.986   3.387  19.690  0.00  0.00    +0.000 N 
ENDROOT
BRANCH   5   6
ATOM      6  C   UNL     1       1.715   3.457  18.251  0.00  0.00    +0.000 C 
ATOM      7  C   UNL     1       2.410   2.355  17.436  0.00  0.00    +0.000 C 
ATOM      8  C   UNL     1       3.917   2.589  17.247  0.00  0.00    +0.000 C 
ATOM      9  N   UNL     1       4.220   3.928  16.742  0.00  0.00    +0.000 NA
ATOM     10  C   UNL     1       3.575   5.023  17.463  0.00  0.00    +0.000 C 
ATOM     11  C   UNL     1       2.064   4.821  17.643  0.00  0.00    +0.000 C 
BRANCH   9  12
ATOM     12  C   UNL     1       5.664   4.150  16.502  0.00  0.00    +0.000 C 
BRANCH  12  13
ATOM     13  C   UNL     1       6.192   4.187  15.074  0.00  0.00    +0.000 A 
ATOM     14  C   UNL     1       5.538   3.471  14.061  0.00  0.00    +0.000 A 
ATOM     15  C   UNL     1       5.977   3.595  12.747  0.00  0.00    +0.000 A 
ATOM     16  N   UNL     1       7.020   4.363  12.371  0.00  0.00    +0.000 NA
ATOM     17  C   UNL     1       7.637   5.050  13.353  0.00  0.00    +0.000 A 
ATOM     18  C   UNL     1       7.260   5.004  14.689  0.00  0.00    +0.000 A 
ENDBRANCH  12  13
ENDBRANCH   9  12
ENDBRANCH   5   6
BRANCH   1  21
ATOM     19  C   UNL     1       2.056   6.807  20.306  0.00  0.00    +0.000 C 
ATOM     20  O   UNL     1       3.267   6.720  20.205  0.00  0.00    +0.000 OA
ATOM     21  N   UNL     1       1.236   5.631  20.532  0.00  0.00    +0.000 N 
ATOM     22  H   UNL     1       0.233   5.739  20.554  0.00  0.00    +0.000 HD
BRANCH  19  29
ATOM     23  C   UNL     1       2.195   8.447  17.796  0.00  0.00    +0.000 C 
ATOM     24  C   UNL     1       1.494   8.922  19.042  0.00  0.00    +0.000 A 
ATOM     25  C   UNL     1       0.950  10.218  19.039  0.00  0.00    +0.000 A 
ATOM     26  C   UNL     1       0.237  10.694  20.138  0.00  0.00    +0.000 A 
ATOM     27  C   UNL     1       0.069   9.890  21.261  0.00  0.00    +0.000 A 
ATOM     28  C   UNL     1       0.645   8.617  21.306  0.00  0.00    +0.000 A 
ATOM     29  C   UNL     1       1.365   8.126  20.205  0.00  0.00    +0.000 A 
ENDBRANCH  19  29
ENDBRANCH   1  21
TORSDOF 5
ENDMDL
MODEL 4
REMARK VINA RESULT:      -7.3      1.663      2.706
REMARK  Name = 
REMARK  6 active torsions:
REMARK  status: ('A' for Active; 'I' for Inactive)
REMARK    1  A    between atoms: C_1  and  C_2
REMARK    2  A    between atoms: C_7  and  C_8
REMARK    3  A    between atoms: N_10  and  C_11
REMARK    4  A    between atoms: N_15  and  C_16
REMARK    5  A    between atoms: N_19  and  C_20
REMARK    6  A    between atoms: C_20  and  C_21
REMARK                            x       y       z     vdW  Elec       q    Type
REMARK                         _______ _______ _______ _____ _____    ______ ____
ROOT
ATOM      1  C   UNL     1       1.826   4.372  20.488  0.00  0.00    +0.000 A 
ATOM      2  C   UNL     1       2.161   3.955  21.762  0.00  0.00    +0.000 A 
ATOM      3  C   UNL     1       2.485   2.598  21.654  0.00  0.00    +0.000 A 
ATOM      4  N   UNL     1       2.364   2.160  20.404  0.00  0.00    +0.000 NA
ATOM      5  N   UNL     1       1.952   3.234  19.701  0.00  0.00    +0.000 N 
ENDROOT
BRANCH   5   6
ATOM      6  C   UNL     1       1.723   3.069  18.262  0.00  0.00    +0.000 C 
ATOM      7  C   UNL     1       2.644   2.031  17.602  0.00  0.00    +0.000 C 
ATOM      8  C   UNL     1       4.084   2.531  17.398  0.00  0.00    +0.000 C 
ATOM      9  N   UNL     1       4.139   3.830  16.728  0.00  0.00    +0.000 NA
ATOM     10  C   UNL     1       3.270   4.858  17.295  0.00  0.00    +0.000 C 
ATOM     11  C   UNL     1       1.822   4.388  17.486  0.00  0.00    +0.000 C 
BRANCH   9  12
ATOM     12  C   UNL     1       5.521   4.299  16.474  0.00  0.00    +0.000 C 
BRANCH  12  13
ATOM     13  C   UNL     1       6.084   4.249  15.061  0.00  0.00    +0.000 A 
ATOM     14  C   UNL     1       5.395   3.562  14.049  0.00  0.00    +0.000 A 
ATOM     15  C   UNL     1       5.875   3.610  12.745  0.00  0.00    +0.000 A 
ATOM     16  N   UNL     1       6.989   4.275  12.377  0.00  0.00    +0.000 NA
ATOM     17  C   UNL     1       7.639   4.934  13.356  0.00  0.00    +0.000 A 
ATOM     18  C   UNL     1       7.227   4.959  14.682  0.00  0.00    +0.000 A 
ENDBRANCH  12  13
ENDBRANCH   9  12
ENDBRANCH   5   6
BRANCH   1  21
ATOM     19  C   UNL     1       2.403   6.729  19.856  0.00  0.00    +0.000 C 
ATOM     20  O   UNL     1       3.602   6.537  19.967  0.00  0.00    +0.000 OA
ATOM     21  N   UNL     1       1.449   5.663  20.095  0.00  0.00    +0.000 N 
ATOM     22  H   UNL     1       0.469   5.848  19.938  0.00  0.00    +0.000 HD
BRANCH  19  29
ATOM     23  C   UNL     1       1.199   8.564  21.902  0.00  0.00    +0.000 C 
ATOM     24  C   UNL     1       1.239   8.896  20.434  0.00  0.00    +0.000 A 
ATOM     25  C   UNL     1       0.619  10.083  20.009  0.00  0.00    +0.000 A 
ATOM     26  C   UNL     1       0.673  10.478  18.674  0.00  0.00    +0.000 A 
ATOM     27  C   UNL     1       1.334   9.686  17.740  0.00  0.00    +0.000 A 
ATOM     28  C   UNL     1       1.914   8.475  18.130  0.00  0.00    +0.000 A 
ATOM     29  C   UNL     1       1.867   8.068  19.473  0.00  0.00    +0.000 A 
ENDBRANCH  19  29
ENDBRANCH   1  21
TORSDOF 5
ENDMDL
MODEL 5
REMARK VINA RESULT:      -7.2      0.923      1.596
REMARK  Name = 
REMARK  6 active torsions:
REMARK  status: ('A' for Active; 'I' for Inactive)
REMARK    1  A    between atoms: C_1  and  C_2
REMARK    2  A    between atoms: C_7  and  C_8
REMARK    3  A    between atoms: N_10  and  C_11
REMARK    4  A    between atoms: N_15  and  C_16
REMARK    5  A    between atoms: N_19  and  C_20
REMARK    6  A    between atoms: C_20  and  C_21
REMARK                            x       y       z     vdW  Elec       q    Type
REMARK                         _______ _______ _______ _____ _____    ______ ____
ROOT
ATOM      1  C   UNL     1       2.191   4.948  20.656  0.00  0.00    +0.000 A 
ATOM      2  C   UNL     1       2.387   4.344  21.883  0.00  0.00    +0.000 A 
ATOM      3  C   UNL     1       2.303   2.965  21.656  0.00  0.00    +0.000 A 
ATOM      4  N   UNL     1       2.064   2.690  20.377  0.00  0.00    +0.000 NA
ATOM      5  N   UNL     1       1.984   3.894  19.774  0.00  0.00    +0.000 N 
ENDROOT
BRANCH   5   6
ATOM      6  C   UNL     1       1.720   3.926  18.333  0.00  0.00    +0.000 C 
ATOM      7  C   UNL     1       2.333   2.745  17.564  0.00  0.00    +0.000 C 
ATOM      8  C   UNL     1       3.854   2.860  17.372  0.00  0.00    +0.000 C 
ATOM      9  N   UNL     1       4.254   4.153  16.816  0.00  0.00    +0.000 NA
ATOM     10  C   UNL     1       3.690   5.319  17.491  0.00  0.00    +0.000 C 
ATOM     11  C   UNL     1       2.169   5.235  17.673  0.00  0.00    +0.000 C 
BRANCH   9  12
ATOM     12  C   UNL     1       5.711   4.259  16.573  0.00  0.00    +0.000 C 
BRANCH  12  13
ATOM     13  C   UNL     1       6.524   5.308  17.318  0.00  0.00    +0.000 A 
ATOM     14  C   UNL     1       7.146   4.986  18.535  0.00  0.00    +0.000 A 
ATOM     15  C   UNL     1       7.964   5.927  19.151  0.00  0.00    +0.000 A 
ATOM     16  N   UNL     1       8.197   7.160  18.657  0.00  0.00    +0.000 NA
ATOM     17  C   UNL     1       7.599   7.455  17.486  0.00  0.00    +0.000 A 
ATOM     18  C   UNL     1       6.780   6.576  16.789  0.00  0.00    +0.000 A 
ENDBRANCH  12  13
ENDBRANCH   9  12
ENDBRANCH   5   6
BRANCH   1  21
ATOM     19  C   UNL     1       1.074   7.192  20.634  0.00  0.00    +0.000 C 
ATOM     20  O   UNL     1       0.048   6.761  21.131  0.00  0.00    +0.000 OA
ATOM     21  N   UNL     1       2.206   6.321  20.379  0.00  0.00    +0.000 N 
ATOM     22  H   UNL     1       3.057   6.727  20.018  0.00  0.00    +0.000 HD
BRANCH  19  29
ATOM     23  C   UNL     1       0.650   9.366  22.658  0.00  0.00    +0.000 C 
ATOM     24  C   UNL     1       0.939   9.649  21.207  0.00  0.00    +0.000 A 
ATOM     25  C   UNL     1       0.934  10.989  20.784  0.00  0.00    +0.000 A 
ATOM     26  C   UNL     1       1.254  11.322  19.469  0.00  0.00    +0.000 A 
ATOM     27  C   UNL     1       1.567  10.321  18.554  0.00  0.00    +0.000 A 
ATOM     28  C   UNL     1       1.527   8.978  18.940  0.00  0.00    +0.000 A 
ATOM     29  C   UNL     1       1.208   8.631  20.263  0.00  0.00    +0.000 A 
ENDBRANCH  19  29
ENDBRANCH   1  21
TORSDOF 5
ENDMDL
MODEL 6
REMARK VINA RESULT:      -7.1      2.865      7.281
REMARK  Name = 
REMARK  6 active torsions:
REMARK  status: ('A' for Active; 'I' for Inactive)
REMARK    1  A    between atoms: C_1  and  C_2
REMARK    2  A    between atoms: C_7  and  C_8
REMARK    3  A    between atoms: N_10  and  C_11
REMARK    4  A    between atoms: N_15  and  C_16
REMARK    5  A    between atoms: N_19  and  C_20
REMARK    6  A    between atoms: C_20  and  C_21
REMARK                            x       y       z     vdW  Elec       q    Type
REMARK                         _______ _______ _______ _____ _____    ______ ____
ROOT
ATOM      1  C   UNL     1       6.790   4.681  17.601  0.00  0.00    +0.000 A 
ATOM      2  C   UNL     1       7.772   5.379  18.277  0.00  0.00    +0.000 A 
ATOM      3  C   UNL     1       7.286   5.577  19.574  0.00  0.00    +0.000 A 
ATOM      4  N   UNL     1       6.073   5.054  19.731  0.00  0.00    +0.000 NA
ATOM      5  N   UNL     1       5.769   4.523  18.530  0.00  0.00    +0.000 N 
ENDROOT
BRANCH   5   6
ATOM      6  C   UNL     1       4.470   3.861  18.379  0.00  0.00    +0.000 C 
ATOM      7  C   UNL     1       3.452   4.672  17.562  0.00  0.00    +0.000 C 
ATOM      8  C   UNL     1       2.850   5.857  18.335  0.00  0.00    +0.000 C 
ATOM      9  N   UNL     1       2.328   5.469  19.645  0.00  0.00    +0.000 NA
ATOM     10  C   UNL     1       3.241   4.677  20.465  0.00  0.00    +0.000 C 
ATOM     11  C   UNL     1       3.836   3.475  19.721  0.00  0.00    +0.000 C 
BRANCH   9  12
ATOM     12  C   UNL     1       1.695   6.588  20.378  0.00  0.00    +0.000 C 
BRANCH  12  13
ATOM     13  C   UNL     1       1.653   7.973  19.747  0.00  0.00    +0.000 A 
ATOM     14  C   UNL     1       2.123   8.167  18.439  0.00  0.00    +0.000 A 
ATOM     15  C   UNL     1       1.986   9.417  17.845  0.00  0.00    +0.000 A 
ATOM     16  N   UNL     1       1.432  10.484  18.456  0.00  0.00    +0.000 NA
ATOM     17  C   UNL     1       0.980  10.284  19.710  0.00  0.00    +0.000 A 
ATOM     18  C   UNL     1       1.056   9.068  20.378  0.00  0.00    +0.000 A 
ENDBRANCH  12  13
ENDBRANCH   9  12
ENDBRANCH   5   6
BRANCH   1  21
ATOM     19  C   UNL     1       6.318   5.015  15.161  0.00  0.00    +0.000 C 
ATOM     20  O   UNL     1       5.837   6.121  15.336  0.00  0.00    +0.000 OA
ATOM     21  N   UNL     1       6.832   4.237  16.273  0.00  0.00    +0.000 N 
ATOM     22  H   UNL     1       7.273   3.350  16.079  0.00  0.00    +0.000 HD
BRANCH  19  29
ATOM     23  C   UNL     1       8.547   5.711  13.276  0.00  0.00    +0.000 C 
ATOM     24  C   UNL     1       7.411   4.799  12.893  0.00  0.00    +0.000 A 
ATOM     25  C   UNL     1       7.366   4.320  11.572  0.00  0.00    +0.000 A 
ATOM     26  C   UNL     1       6.376   3.426  11.172  0.00  0.00    +0.000 A 
ATOM     27  C   UNL     1       5.406   3.008  12.078  0.00  0.00    +0.000 A 
ATOM     28  C   UNL     1       5.401   3.511  13.383  0.00  0.00    +0.000 A 
ATOM     29  C   UNL     1       6.394   4.412  13.798  0.00  0.00    +0.000 A 
ENDBRANCH  19  29
ENDBRANCH   1  21
TORSDOF 5
ENDMDL
MODEL 7
REMARK VINA RESULT:      -7.1      4.329      8.441
REMARK  Name = 
REMARK  6 active torsions:
REMARK  status: ('A' for Active; 'I' for Inactive)
REMARK    1  A    between atoms: C_1  and  C_2
REMARK    2  A    between atoms: C_7  and  C_8
REMARK    3  A    between atoms: N_10  and  C_11
REMARK    4  A    between atoms: N_15  and  C_16
REMARK    5  A    between atoms: N_19  and  C_20
REMARK    6  A    between atoms: C_20  and  C_21
REMARK                            x       y       z     vdW  Elec       q    Type
REMARK                         _______ _______ _______ _____ _____    ______ ____
ROOT
ATOM      1  C   UNL     1       1.469   8.491  20.150  0.00  0.00    +0.000 A 
ATOM      2  C   UNL     1       1.319   8.287  21.508  0.00  0.00    +0.000 A 
ATOM      3  C   UNL     1       0.472   9.303  21.963  0.00  0.00    +0.000 A 
ATOM      4  N   UNL     1       0.101  10.114  20.977  0.00  0.00    +0.000 NA
ATOM      5  N   UNL     1       0.718   9.628  19.881  0.00  0.00    +0.000 N 
ENDROOT
BRANCH   5   6
ATOM      6  C   UNL     1       0.505  10.321  18.606  0.00  0.00    +0.000 C 
ATOM      7  C   UNL     1       1.751  11.051  18.082  0.00  0.00    +0.000 C 
ATOM      8  C   UNL     1       2.059  12.356  18.833  0.00  0.00    +0.000 C 
ATOM      9  N   UNL     1       0.897  13.239  18.929  0.00  0.00    +0.000 NA
ATOM     10  C   UNL     1      -0.328  12.601  19.404  0.00  0.00    +0.000 C 
ATOM     11  C   UNL     1      -0.668  11.308  18.651  0.00  0.00    +0.000 C 
BRANCH   9  12
ATOM     12  C   UNL     1       1.192  14.524  19.601  0.00  0.00    +0.000 C 
BRANCH  12  13
ATOM     13  C   UNL     1       1.477  15.764  18.763  0.00  0.00    +0.000 A 
ATOM     14  C   UNL     1       2.705  15.900  18.099  0.00  0.00    +0.000 A 
ATOM     15  C   UNL     1       2.908  16.991  17.261  0.00  0.00    +0.000 A 
ATOM     16  N   UNL     1       1.992  17.957  17.047  0.00  0.00    +0.000 NA
ATOM     17  C   UNL     1       0.814  17.812  17.687  0.00  0.00    +0.000 A 
ATOM     18  C   UNL     1       0.513  16.749  18.528  0.00  0.00    +0.000 A 
ENDBRANCH  12  13
ENDBRANCH   9  12
ENDBRANCH   5   6
BRANCH   1  21
ATOM     19  C   UNL     1       2.495   6.304  19.476  0.00  0.00    +0.000 C 
ATOM     20  O   UNL     1       2.063   5.723  20.456  0.00  0.00    +0.000 OA
ATOM     21  N   UNL     1       2.215   7.711  19.257  0.00  0.00    +0.000 N 
ATOM     22  H   UNL     1       2.544   8.142  18.405  0.00  0.00    +0.000 HD
BRANCH  19  29
ATOM     23  C   UNL     1       1.427   3.951  17.949  0.00  0.00    +0.000 C 
ATOM     24  C   UNL     1       2.842   4.446  17.798  0.00  0.00    +0.000 A 
ATOM     25  C   UNL     1       3.708   3.723  16.960  0.00  0.00    +0.000 A 
ATOM     26  C   UNL     1       5.010   4.163  16.731  0.00  0.00    +0.000 A 
ATOM     27  C   UNL     1       5.472   5.322  17.347  0.00  0.00    +0.000 A 
ATOM     28  C   UNL     1       4.645   6.029  18.225  0.00  0.00    +0.000 A 
ATOM     29  C   UNL     1       3.331   5.597  18.463  0.00  0.00    +0.000 A 
ENDBRANCH  19  29
ENDBRANCH   1  21
TORSDOF 5
ENDMDL
MODEL 8
REMARK VINA RESULT:      -7.0      2.796      7.368
REMARK  Name = 
REMARK  6 active torsions:
REMARK  status: ('A' for Active; 'I' for Inactive)
REMARK    1  A    between atoms: C_1  and  C_2
REMARK    2  A    between atoms: C_7  and  C_8
REMARK    3  A    between atoms: N_10  and  C_11
REMARK    4  A    between atoms: N_15  and  C_16
REMARK    5  A    between atoms: N_19  and  C_20
REMARK    6  A    between atoms: C_20  and  C_21
REMARK                            x       y       z     vdW  Elec       q    Type
REMARK                         _______ _______ _______ _____ _____    ______ ____
ROOT
ATOM      1  C   UNL     1       6.937   4.663  17.775  0.00  0.00    +0.000 A 
ATOM      2  C   UNL     1       8.038   5.198  18.417  0.00  0.00    +0.000 A 
ATOM      3  C   UNL     1       7.624   5.490  19.721  0.00  0.00    +0.000 A 
ATOM      4  N   UNL     1       6.347   5.174  19.915  0.00  0.00    +0.000 NA
ATOM      5  N   UNL     1       5.928   4.686  18.730  0.00  0.00    +0.000 N 
ENDROOT
BRANCH   5   6
ATOM      6  C   UNL     1       4.535   4.245  18.620  0.00  0.00    +0.000 C 
ATOM      7  C   UNL     1       3.868   4.622  17.287  0.00  0.00    +0.000 C 
ATOM      8  C   UNL     1       3.491   6.109  17.190  0.00  0.00    +0.000 C 
ATOM      9  N   UNL     1       2.724   6.573  18.346  0.00  0.00    +0.000 NA
ATOM     10  C   UNL     1       3.294   6.229  19.646  0.00  0.00    +0.000 C 
ATOM     11  C   UNL     1       3.657   4.744  19.774  0.00  0.00    +0.000 C 
BRANCH   9  12
ATOM     12  C   UNL     1       2.305   7.989  18.241  0.00  0.00    +0.000 C 
BRANCH  12  13
ATOM     13  C   UNL     1       1.572   8.645  19.403  0.00  0.00    +0.000 A 
ATOM     14  C   UNL     1       1.505   8.002  20.649  0.00  0.00    +0.000 A 
ATOM     15  C   UNL     1       0.916   8.661  21.723  0.00  0.00    +0.000 A 
ATOM     16  N   UNL     1       0.381   9.896  21.647  0.00  0.00    +0.000 NA
ATOM     17  C   UNL     1       0.456  10.504  20.447  0.00  0.00    +0.000 A 
ATOM     18  C   UNL     1       1.040   9.935  19.322  0.00  0.00    +0.000 A 
ENDBRANCH  12  13
ENDBRANCH   9  12
ENDBRANCH   5   6
BRANCH   1  21
ATOM     19  C   UNL     1       6.582   5.067  15.326  0.00  0.00    +0.000 C 
ATOM     20  O   UNL     1       6.400   6.262  15.481  0.00  0.00    +0.000 OA
ATOM     21  N   UNL     1       6.873   4.201  16.454  0.00  0.00    +0.000 N 
ATOM     22  H   UNL     1       7.072   3.228  16.277  0.00  0.00    +0.000 HD
BRANCH  19  29
ATOM     23  C   UNL     1       8.623   5.689  13.216  0.00  0.00    +0.000 C 
ATOM     24  C   UNL     1       7.437   4.795  12.964  0.00  0.00    +0.000 A 
ATOM     25  C   UNL     1       7.251   4.298  11.662  0.00  0.00    +0.000 A 
ATOM     26  C   UNL     1       6.208   3.419  11.378  0.00  0.00    +0.000 A 
ATOM     27  C   UNL     1       5.327   3.034  12.384  0.00  0.00    +0.000 A 
ATOM     28  C   UNL     1       5.462   3.557  13.674  0.00  0.00    +0.000 A 
ATOM     29  C   UNL     1       6.510   4.443  13.973  0.00  0.00    +0.000 A 
ENDBRANCH  19  29
ENDBRANCH   1  21
TORSDOF 5
ENDMDL
MODEL 9
REMARK VINA RESULT:      -7.0      2.288      7.127
REMARK  Name = 
REMARK  6 active torsions:
REMARK  status: ('A' for Active; 'I' for Inactive)
REMARK    1  A    between atoms: C_1  and  C_2
REMARK    2  A    between atoms: C_7  and  C_8
REMARK    3  A    between atoms: N_10  and  C_11
REMARK    4  A    between atoms: N_15  and  C_16
REMARK    5  A    between atoms: N_19  and  C_20
REMARK    6  A    between atoms: C_20  and  C_21
REMARK                            x       y       z     vdW  Elec       q    Type
REMARK                         _______ _______ _______ _____ _____    ______ ____
ROOT
ATOM      1  C   UNL     1       2.249   4.190  18.408  0.00  0.00    +0.000 A 
ATOM      2  C   UNL     1       1.262   3.225  18.468  0.00  0.00    +0.000 A 
ATOM      3  C   UNL     1       0.550   3.470  19.648  0.00  0.00    +0.000 A 
ATOM      4  N   UNL     1       1.041   4.513  20.312  0.00  0.00    +0.000 NA
ATOM      5  N   UNL     1       2.079   4.939  19.565  0.00  0.00    +0.000 N 
ENDROOT
BRANCH   5   6
ATOM      6  C   UNL     1       2.841   6.097  20.043  0.00  0.00    +0.000 C 
ATOM      7  C   UNL     1       1.991   7.131  20.798  0.00  0.00    +0.000 C 
ATOM      8  C   UNL     1       1.107   7.988  19.878  0.00  0.00    +0.000 C 
ATOM      9  N   UNL     1       1.858   8.586  18.774  0.00  0.00    +0.000 NA
ATOM     10  C   UNL     1       2.704   7.659  18.026  0.00  0.00    +0.000 C 
ATOM     11  C   UNL     1       3.611   6.809  18.924  0.00  0.00    +0.000 C 
BRANCH   9  12
ATOM     12  C   UNL     1       1.033   9.461  17.910  0.00  0.00    +0.000 C 
BRANCH  12  13
ATOM     13  C   UNL     1       0.007  10.391  18.543  0.00  0.00    +0.000 A 
ATOM     14  C   UNL     1       0.419  11.400  19.427  0.00  0.00    +0.000 A 
ATOM     15  C   UNL     1      -0.521  12.300  19.917  0.00  0.00    +0.000 A 
ATOM     16  N   UNL     1      -1.833  12.263  19.607  0.00  0.00    +0.000 NA
ATOM     17  C   UNL     1      -2.215  11.293  18.754  0.00  0.00    +0.000 A 
ATOM     18  C   UNL     1      -1.348  10.360  18.199  0.00  0.00    +0.000 A 
ENDBRANCH  12  13
ENDBRANCH   9  12
ENDBRANCH   5   6
BRANCH   1  21
ATOM     19  C   UNL     1       4.529   3.778  17.448  0.00  0.00    +0.000 C 
ATOM     20  O   UNL     1       4.872   3.081  18.388  0.00  0.00    +0.000 OA
ATOM     21  N   UNL     1       3.201   4.361  17.395  0.00  0.00    +0.000 N 
ATOM     22  H   UNL     1       2.937   4.886  16.573  0.00  0.00    +0.000 HD
BRANCH  19  29
ATOM     23  C   UNL     1       7.180   5.105  17.914  0.00  0.00    +0.000 C 
ATOM     24  C   UNL     1       6.676   4.753  16.539  0.00  0.00    +0.000 A 
ATOM     25  C   UNL     1       7.456   5.133  15.434  0.00  0.00    +0.000 A 
ATOM     26  C   UNL     1       7.075   4.783  14.140  0.00  0.00    +0.000 A 
ATOM     27  C   UNL     1       5.904   4.063  13.928  0.00  0.00    +0.000 A 
ATOM     28  C   UNL     1       5.086   3.720  15.009  0.00  0.00    +0.000 A 
ATOM     29  C   UNL     1       5.459   4.065  16.318  0.00  0.00    +0.000 A 
ENDBRANCH  19  29
ENDBRANCH   1  21
TORSDOF 5
ENDMDL
