MODEL 1
REMARK VINA RESULT:      -8.0      0.000      0.000
REMARK  Name = 
REMARK  10 active torsions:
REMARK  status: ('A' for Active; 'I' for Inactive)
REMARK    1  A    between atoms: C_1  and  C_2
REMARK    2  A    between atoms: C_2  and  N_3
REMARK    3  A    between atoms: C_2  and  C_17
REMARK    4  A    between atoms: N_3  and  S_4
REMARK    5  A    between atoms: S_4  and  C_7
REMARK    6  A    between atoms: C_12  and  C_13
REMARK    7  A    between atoms: N_19  and  C_20
REMARK    8  A    between atoms: C_20  and  C_21
REMARK    9  A    between atoms: C_26  and  C_27
REMARK   10  A    between atoms: C_27  and  N_28
REMARK                            x       y       z     vdW  Elec       q    Type
REMARK                         _______ _______ _______ _____ _____    ______ ____
ROOT
ATOM      1  C   UNL     1       2.133   8.137  18.621  0.00  0.00    +0.000 C 
ATOM      2  O   UNL     1       2.674   7.809  17.569  0.00  0.00    +0.000 OA
ATOM      3  N   UNL     1       2.260   7.365  19.753  0.00  0.00    +0.000 N 
ATOM      4  H   UNL     1       1.828   7.689  20.596  0.00  0.00    +0.000 HD
ENDROOT
BRANCH   1   6
ATOM      5  C   UNL     1       1.949  10.636  17.960  0.00  0.00    +0.000 C 
ATOM      6  C   UNL     1       1.371   9.480  18.793  0.00  0.00    +0.000 C 
BRANCH   6   7
ATOM      7  N   UNL     1       1.264  10.014  20.161  0.00  0.00    +0.000 NA
ATOM      8  H   UNL     1       1.990   9.784  20.835  0.00  0.00    +0.000 HD
BRANCH   7   9
ATOM      9  S   UNL     1      -0.209  10.454  20.824  0.00  0.00    +0.000 S 
ATOM     10  O   UNL     1      -1.173  10.566  19.767  0.00  0.00    +0.000 OA
ATOM     11  O   UNL     1      -0.450   9.608  21.967  0.00  0.00    +0.000 OA
BRANCH   9  12
ATOM     12  C   UNL     1       0.109  12.121  21.371  0.00  0.00    +0.000 A 
ATOM     13  C   UNL     1       1.290  12.727  20.907  0.00  0.00    +0.000 A 
ATOM     14  C   UNL     1       1.551  14.062  21.196  0.00  0.00    +0.000 A 
ATOM     15  C   UNL     1       0.674  14.777  21.997  0.00  0.00    +0.000 A 
ATOM     16  C   UNL     1      -0.468  14.167  22.508  0.00  0.00    +0.000 A 
ATOM     17  C   UNL     1      -0.788  12.828  22.190  0.00  0.00    +0.000 A 
BRANCH  17  18
ATOM     18  C   UNL     1      -2.086  12.300  22.761  0.00  0.00    +0.000 C 
ATOM     19  F   UNL     1      -3.072  12.014  21.874  0.00  0.00    +0.000 F 
ATOM     20  F   UNL     1      -1.911  11.185  23.525  0.00  0.00    +0.000 F 
ATOM     21  F   UNL     1      -2.663  13.220  23.590  0.00  0.00    +0.000 F 
ENDBRANCH  17  18
ENDBRANCH   9  12
ENDBRANCH   7   9
ENDBRANCH   6   7
ENDBRANCH   1   6
BRANCH   3  22
ATOM     22  C   UNL     1       3.112   6.194  19.879  0.00  0.00    +0.000 C 
BRANCH  22  23
ATOM     23  C   UNL     1       2.425   4.894  19.498  0.00  0.00    +0.000 A 
ATOM     24  C   UNL     1       1.401   4.436  20.355  0.00  0.00    +0.000 A 
ATOM     25  C   UNL     1       0.714   3.249  20.104  0.00  0.00    +0.000 A 
ATOM     26  C   UNL     1       1.009   2.515  18.966  0.00  0.00    +0.000 A 
ATOM     27  C   UNL     1       1.963   2.989  18.063  0.00  0.00    +0.000 A 
ATOM     28  C   UNL     1       2.714   4.158  18.315  0.00  0.00    +0.000 A 
BRANCH  28  29
ATOM     29  C   UNL     1       3.731   4.657  17.292  0.00  0.00    +0.000 C 
BRANCH  29  30
ATOM     30  N   UNL     1       5.055   4.031  17.250  0.00  0.00    +0.000 NA
ATOM     31  C   UNL     1       6.028   4.459  18.259  0.00  0.00    +0.000 C 
ATOM     32  C   UNL     1       7.323   5.141  17.802  0.00  0.00    +0.000 C 
ATOM     33  O   UNL     1       7.857   4.581  16.610  0.00  0.00    +0.000 OA
ATOM     34  C   UNL     1       6.911   4.608  15.547  0.00  0.00    +0.000 C 
ATOM     35  C   UNL     1       5.591   3.896  15.889  0.00  0.00    +0.000 C 
ENDBRANCH  29  30
ENDBRANCH  28  29
ENDBRANCH  22  23
ENDBRANCH   3  22
TORSDOF 9
ENDMDL
MODEL 2
REMARK VINA RESULT:      -7.9      2.490      3.269
REMARK  Name = 
REMARK  10 active torsions:
REMARK  status: ('A' for Active; 'I' for Inactive)
REMARK    1  A    between atoms: C_1  and  C_2
REMARK    2  A    between atoms: C_2  and  N_3
REMARK    3  A    between atoms: C_2  and  C_17
REMARK    4  A    between atoms: N_3  and  S_4
REMARK    5  A    between atoms: S_4  and  C_7
REMARK    6  A    between atoms: C_12  and  C_13
REMARK    7  A    between atoms: N_19  and  C_20
REMARK    8  A    between atoms: C_20  and  C_21
REMARK    9  A    between atoms: C_26  and  C_27
REMARK   10  A    between atoms: C_27  and  N_28
REMARK                            x       y       z     vdW  Elec       q    Type
REMARK                         _______ _______ _______ _____ _____    ______ ____
ROOT
ATOM      1  C   UNL     1       2.014   8.468  18.588  0.00  0.00    +0.000 C 
ATOM      2  O   UNL     1       2.172   8.923  17.459  0.00  0.00    +0.000 OA
ATOM      3  N   UNL     1       2.572   7.264  18.949  0.00  0.00    +0.000 N 
ATOM      4  H   UNL     1       2.443   6.948  19.891  0.00  0.00    +0.000 HD
ENDROOT
BRANCH   1   6
ATOM      5  C   UNL     1       1.298   8.535  21.078  0.00  0.00    +0.000 C 
ATOM      6  C   UNL     1       1.285   9.249  19.716  0.00  0.00    +0.000 C 
BRANCH   6   7
ATOM      7  N   UNL     1      -0.127   9.594  19.481  0.00  0.00    +0.000 NA
ATOM      8  H   UNL     1      -0.646   9.079  18.773  0.00  0.00    +0.000 HD
BRANCH   7   9
ATOM      9  S   UNL     1      -0.740  11.106  19.855  0.00  0.00    +0.000 S 
ATOM     10  O   UNL     1      -1.180  11.097  21.221  0.00  0.00    +0.000 OA
ATOM     11  O   UNL     1       0.195  12.093  19.379  0.00  0.00    +0.000 OA
BRANCH   9  12
ATOM     12  C   UNL     1      -2.224  11.163  18.867  0.00  0.00    +0.000 A 
ATOM     13  C   UNL     1      -2.291  10.286  17.771  0.00  0.00    +0.000 A 
ATOM     14  C   UNL     1      -3.459  10.191  17.021  0.00  0.00    +0.000 A 
ATOM     15  C   UNL     1      -4.537  11.010  17.321  0.00  0.00    +0.000 A 
ATOM     16  C   UNL     1      -4.458  11.921  18.370  0.00  0.00    +0.000 A 
ATOM     17  C   UNL     1      -3.304  12.006  19.181  0.00  0.00    +0.000 A 
BRANCH  17  18
ATOM     18  C   UNL     1      -3.365  12.996  20.324  0.00  0.00    +0.000 C 
ATOM     19  F   UNL     1      -3.474  12.480  21.574  0.00  0.00    +0.000 F 
ATOM     20  F   UNL     1      -2.300  13.846  20.342  0.00  0.00    +0.000 F 
ATOM     21  F   UNL     1      -4.466  13.798  20.215  0.00  0.00    +0.000 F 
ENDBRANCH  17  18
ENDBRANCH   9  12
ENDBRANCH   7   9
ENDBRANCH   6   7
ENDBRANCH   1   6
BRANCH   3  22
ATOM     22  C   UNL     1       3.479   6.478  18.129  0.00  0.00    +0.000 C 
BRANCH  22  23
ATOM     23  C   UNL     1       3.289   4.978  18.271  0.00  0.00    +0.000 A 
ATOM     24  C   UNL     1       2.115   4.425  17.714  0.00  0.00    +0.000 A 
ATOM     25  C   UNL     1       1.838   3.062  17.798  0.00  0.00    +0.000 A 
ATOM     26  C   UNL     1       2.750   2.213  18.406  0.00  0.00    +0.000 A 
ATOM     27  C   UNL     1       3.954   2.725  18.894  0.00  0.00    +0.000 A 
ATOM     28  C   UNL     1       4.241   4.108  18.873  0.00  0.00    +0.000 A 
BRANCH  28  29
ATOM     29  C   UNL     1       5.579   4.626  19.395  0.00  0.00    +0.000 C 
BRANCH  29  30
ATOM     30  N   UNL     1       6.689   4.788  18.453  0.00  0.00    +0.000 NA
ATOM     31  C   UNL     1       7.465   6.028  18.539  0.00  0.00    +0.000 C 
ATOM     32  C   UNL     1       7.482   6.980  17.338  0.00  0.00    +0.000 C 
ATOM     33  O   UNL     1       7.518   6.302  16.089  0.00  0.00    +0.000 OA
ATOM     34  C   UNL     1       6.430   5.394  15.954  0.00  0.00    +0.000 C 
ATOM     35  C   UNL     1       6.358   4.357  17.087  0.00  0.00    +0.000 C 
ENDBRANCH  29  30
ENDBRANCH  28  29
ENDBRANCH  22  23
ENDBRANCH   3  22
TORSDOF 9
ENDMDL
MODEL 3
REMARK VINA RESULT:      -7.8      1.865      2.435
REMARK  Name = 
REMARK  10 active torsions:
REMARK  status: ('A' for Active; 'I' for Inactive)
REMARK    1  A    between atoms: C_1  and  C_2
REMARK    2  A    between atoms: C_2  and  N_3
REMARK    3  A    between atoms: C_2  and  C_17
REMARK    4  A    between atoms: N_3  and  S_4
REMARK    5  A    between atoms: S_4  and  C_7
REMARK    6  A    between atoms: C_12  and  C_13
REMARK    7  A    between atoms: N_19  and  C_20
REMARK    8  A    between atoms: C_20  and  C_21
REMARK    9  A    between atoms: C_26  and  C_27
REMARK   10  A    between atoms: C_27  and  N_28
REMARK                            x       y       z     vdW  Elec       q    Type
REMARK                         _______ _______ _______ _____ _____    ______ ____
ROOT
ATOM      1  C   UNL     1       1.530   8.214  19.979  0.00  0.00    +0.000 C 
ATOM      2  O   UNL     1       1.921   8.514  18.855  0.00  0.00    +0.000 OA
ATOM      3  N   UNL     1       1.924   7.039  20.575  0.00  0.00    +0.000 N 
ATOM      4  H   UNL     1       1.605   6.852  21.506  0.00  0.00    +0.000 HD
ENDROOT
BRANCH   1   6
ATOM      5  C   UNL     1      -0.394   8.448  21.700  0.00  0.00    +0.000 C 
ATOM      6  C   UNL     1       0.668   9.167  20.853  0.00  0.00    +0.000 C 
BRANCH   6   7
ATOM      7  N   UNL     1      -0.064  10.233  20.149  0.00  0.00    +0.000 NA
ATOM      8  H   UNL     1      -0.129  10.196  19.135  0.00  0.00    +0.000 HD
BRANCH   7   9
ATOM      9  S   UNL     1      -0.274  11.752  20.821  0.00  0.00    +0.000 S 
ATOM     10  O   UNL     1      -1.570  12.243  20.451  0.00  0.00    +0.000 OA
ATOM     11  O   UNL     1       0.130  11.684  22.203  0.00  0.00    +0.000 OA
BRANCH   9  12
ATOM     12  C   UNL     1       0.898  12.734  19.903  0.00  0.00    +0.000 A 
ATOM     13  C   UNL     1       1.626  12.076  18.896  0.00  0.00    +0.000 A 
ATOM     14  C   UNL     1       2.474  12.796  18.062  0.00  0.00    +0.000 A 
ATOM     15  C   UNL     1       2.649  14.157  18.268  0.00  0.00    +0.000 A 
ATOM     16  C   UNL     1       1.975  14.804  19.299  0.00  0.00    +0.000 A 
ATOM     17  C   UNL     1       1.067  14.111  20.131  0.00  0.00    +0.000 A 
BRANCH  17  18
ATOM     18  C   UNL     1       0.356  14.940  21.178  0.00  0.00    +0.000 C 
ATOM     19  F   UNL     1       0.676  16.257  21.235  0.00  0.00    +0.000 F 
ATOM     20  F   UNL     1      -1.001  14.870  21.071  0.00  0.00    +0.000 F 
ATOM     21  F   UNL     1       0.644  14.488  22.434  0.00  0.00    +0.000 F 
ENDBRANCH  17  18
ENDBRANCH   9  12
ENDBRANCH   7   9
ENDBRANCH   6   7
ENDBRANCH   1   6
BRANCH   3  22
ATOM     22  C   UNL     1       2.905   6.111  20.036  0.00  0.00    +0.000 C 
BRANCH  22  23
ATOM     23  C   UNL     1       2.304   4.810  19.533  0.00  0.00    +0.000 A 
ATOM     24  C   UNL     1       1.301   4.217  20.331  0.00  0.00    +0.000 A 
ATOM     25  C   UNL     1       0.692   3.017  19.967  0.00  0.00    +0.000 A 
ATOM     26  C   UNL     1       1.044   2.404  18.774  0.00  0.00    +0.000 A 
ATOM     27  C   UNL     1       1.976   3.013  17.931  0.00  0.00    +0.000 A 
ATOM     28  C   UNL     1       2.650   4.199  18.295  0.00  0.00    +0.000 A 
BRANCH  28  29
ATOM     29  C   UNL     1       3.645   4.846  17.335  0.00  0.00    +0.000 C 
BRANCH  29  30
ATOM     30  N   UNL     1       5.045   4.412  17.371  0.00  0.00    +0.000 NA
ATOM     31  C   UNL     1       6.005   5.305  18.025  0.00  0.00    +0.000 C 
ATOM     32  C   UNL     1       7.146   5.906  17.196  0.00  0.00    +0.000 C 
ATOM     33  O   UNL     1       7.680   4.998  16.241  0.00  0.00    +0.000 OA
ATOM     34  C   UNL     1       6.673   4.504  15.366  0.00  0.00    +0.000 C 
ATOM     35  C   UNL     1       5.503   3.829  16.102  0.00  0.00    +0.000 C 
ENDBRANCH  29  30
ENDBRANCH  28  29
ENDBRANCH  22  23
ENDBRANCH   3  22
TORSDOF 9
ENDMDL
MODEL 4
REMARK VINA RESULT:      -7.7      0.723      1.071
REMARK  Name = 
REMARK  10 active torsions:
REMARK  status: ('A' for Active; 'I' for Inactive)
REMARK    1  A    between atoms: C_1  and  C_2
REMARK    2  A    between atoms: C_2  and  N_3
REMARK    3  A    between atoms: C_2  and  C_17
REMARK    4  A    between atoms: N_3  and  S_4
REMARK    5  A    between atoms: S_4  and  C_7
REMARK    6  A    between atoms: C_12  and  C_13
REMARK    7  A    between atoms: N_19  and  C_20
REMARK    8  A    between atoms: C_20  and  C_21
REMARK    9  A    between atoms: C_26  and  C_27
REMARK   10  A    between atoms: C_27  and  N_28
REMARK                            x       y       z     vdW  Elec       q    Type
REMARK                         _______ _______ _______ _____ _____    ______ ____
ROOT
ATOM      1  C   UNL     1       2.291   7.706  18.832  0.00  0.00    +0.000 C 
ATOM      2  O   UNL     1       3.055   7.466  17.902  0.00  0.00    +0.000 OA
ATOM      3  N   UNL     1       2.242   6.888  19.937  0.00  0.00    +0.000 N 
ATOM      4  H   UNL     1       1.626   7.142  20.684  0.00  0.00    +0.000 HD
ENDROOT
BRANCH   1   6
ATOM      5  C   UNL     1       1.853  10.089  17.911  0.00  0.00    +0.000 C 
ATOM      6  C   UNL     1       1.416   8.989  18.894  0.00  0.00    +0.000 C 
BRANCH   6   7
ATOM      7  N   UNL     1       1.316   9.664  20.199  0.00  0.00    +0.000 NA
ATOM      8  H   UNL     1       2.025   9.476  20.903  0.00  0.00    +0.000 HD
BRANCH   7   9
ATOM      9  S   UNL     1      -0.145  10.226  20.791  0.00  0.00    +0.000 S 
ATOM     10  O   UNL     1      -1.072  10.332  19.702  0.00  0.00    +0.000 OA
ATOM     11  O   UNL     1      -0.466   9.466  21.973  0.00  0.00    +0.000 OA
BRANCH   9  12
ATOM     12  C   UNL     1       0.257  11.902  21.250  0.00  0.00    +0.000 A 
ATOM     13  C   UNL     1       1.469  12.420  20.762  0.00  0.00    +0.000 A 
ATOM     14  C   UNL     1       1.799  13.754  20.981  0.00  0.00    +0.000 A 
ATOM     15  C   UNL     1       0.957  14.555  21.738  0.00  0.00    +0.000 A 
ATOM     16  C   UNL     1      -0.217  14.033  22.273  0.00  0.00    +0.000 A 
ATOM     17  C   UNL     1      -0.605  12.697  22.026  0.00  0.00    +0.000 A 
BRANCH  17  18
ATOM     18  C   UNL     1      -1.931  12.268  22.615  0.00  0.00    +0.000 C 
ATOM     19  F   UNL     1      -2.907  11.925  21.738  0.00  0.00    +0.000 F 
ATOM     20  F   UNL     1      -1.807  11.230  23.490  0.00  0.00    +0.000 F 
ATOM     21  F   UNL     1      -2.494  13.283  23.335  0.00  0.00    +0.000 F 
ENDBRANCH  17  18
ENDBRANCH   9  12
ENDBRANCH   7   9
ENDBRANCH   6   7
ENDBRANCH   1   6
BRANCH   3  22
ATOM     22  C   UNL     1       3.131   5.767  20.192  0.00  0.00    +0.000 C 
BRANCH  22  23
ATOM     23  C   UNL     1       2.623   4.445  19.642  0.00  0.00    +0.000 A 
ATOM     24  C   UNL     1       1.255   4.154  19.837  0.00  0.00    +0.000 A 
ATOM     25  C   UNL     1       0.690   2.964  19.382  0.00  0.00    +0.000 A 
ATOM     26  C   UNL     1       1.472   2.056  18.684  0.00  0.00    +0.000 A 
ATOM     27  C   UNL     1       2.807   2.359  18.411  0.00  0.00    +0.000 A 
ATOM     28  C   UNL     1       3.424   3.529  18.904  0.00  0.00    +0.000 A 
BRANCH  28  29
ATOM     29  C   UNL     1       4.880   3.835  18.563  0.00  0.00    +0.000 C 
BRANCH  29  30
ATOM     30  N   UNL     1       5.168   4.787  17.486  0.00  0.00    +0.000 NA
ATOM     31  C   UNL     1       5.540   4.229  16.183  0.00  0.00    +0.000 C 
ATOM     32  C   UNL     1       6.928   4.536  15.612  0.00  0.00    +0.000 C 
ATOM     33  O   UNL     1       7.358   5.865  15.873  0.00  0.00    +0.000 OA
ATOM     34  C   UNL     1       7.349   6.156  17.266  0.00  0.00    +0.000 C 
ATOM     35  C   UNL     1       5.977   5.932  17.925  0.00  0.00    +0.000 C 
ENDBRANCH  29  30
ENDBRANCH  28  29
ENDBRANCH  22  23
ENDBRANCH   3  22
TORSDOF 9
ENDMDL
MODEL 5
REMARK VINA RESULT:      -7.7      2.243      2.753
REMARK  Name = 
REMARK  10 active torsions:
REMARK  status: ('A' for Active; 'I' for Inactive)
REMARK    1  A    between atoms: C_1  and  C_2
REMARK    2  A    between atoms: C_2  and  N_3
REMARK    3  A    between atoms: C_2  and  C_17
REMARK    4  A    between atoms: N_3  and  S_4
REMARK    5  A    between atoms: S_4  and  C_7
REMARK    6  A    between atoms: C_12  and  C_13
REMARK    7  A    between atoms: N_19  and  C_20
REMARK    8  A    between atoms: C_20  and  C_21
REMARK    9  A    between atoms: C_26  and  C_27
REMARK   10  A    between atoms: C_27  and  N_28
REMARK                            x       y       z     vdW  Elec       q    Type
REMARK                         _______ _______ _______ _____ _____    ______ ____
ROOT
ATOM      1  C   UNL     1       1.870   8.593  18.576  0.00  0.00    +0.000 C 
ATOM      2  O   UNL     1       1.947   9.084  17.453  0.00  0.00    +0.000 OA
ATOM      3  N   UNL     1       2.431   7.368  18.852  0.00  0.00    +0.000 N 
ATOM      4  H   UNL     1       2.371   7.022  19.790  0.00  0.00    +0.000 HD
ENDROOT
BRANCH   1   6
ATOM      5  C   UNL     1       0.946   8.447  20.993  0.00  0.00    +0.000 C 
ATOM      6  C   UNL     1       1.249   9.347  19.784  0.00  0.00    +0.000 C 
BRANCH   6   7
ATOM      7  N   UNL     1      -0.002  10.084  19.535  0.00  0.00    +0.000 NA
ATOM      8  H   UNL     1      -0.820   9.568  19.221  0.00  0.00    +0.000 HD
BRANCH   7   9
ATOM      9  S   UNL     1      -0.006  11.717  19.170  0.00  0.00    +0.000 S 
ATOM     10  O   UNL     1       1.350  12.150  18.988  0.00  0.00    +0.000 OA
ATOM     11  O   UNL     1      -1.003  11.941  18.154  0.00  0.00    +0.000 OA
BRANCH   9  12
ATOM     12  C   UNL     1      -0.545  12.444  20.707  0.00  0.00    +0.000 A 
ATOM     13  C   UNL     1      -0.982  11.559  21.708  0.00  0.00    +0.000 A 
ATOM     14  C   UNL     1      -1.310  12.040  22.972  0.00  0.00    +0.000 A 
ATOM     15  C   UNL     1      -1.265  13.403  23.222  0.00  0.00    +0.000 A 
ATOM     16  C   UNL     1      -0.889  14.291  22.219  0.00  0.00    +0.000 A 
ATOM     17  C   UNL     1      -0.501  13.830  20.940  0.00  0.00    +0.000 A 
BRANCH  17  18
ATOM     18  C   UNL     1      -0.058  14.890  19.956  0.00  0.00    +0.000 C 
ATOM     19  F   UNL     1      -0.530  14.781  18.688  0.00  0.00    +0.000 F 
ATOM     20  F   UNL     1      -0.349  16.153  20.376  0.00  0.00    +0.000 F 
ATOM     21  F   UNL     1       1.297  14.866  19.792  0.00  0.00    +0.000 F 
ENDBRANCH  17  18
ENDBRANCH   9  12
ENDBRANCH   7   9
ENDBRANCH   6   7
ENDBRANCH   1   6
BRANCH   3  22
ATOM     22  C   UNL     1       3.255   6.595  17.936  0.00  0.00    +0.000 C 
BRANCH  22  23
ATOM     23  C   UNL     1       2.938   5.110  17.933  0.00  0.00    +0.000 A 
ATOM     24  C   UNL     1       1.790   4.698  18.645  0.00  0.00    +0.000 A 
ATOM     25  C   UNL     1       1.416   3.358  18.716  0.00  0.00    +0.000 A 
ATOM     26  C   UNL     1       2.159   2.402  18.040  0.00  0.00    +0.000 A 
ATOM     27  C   UNL     1       3.252   2.795  17.265  0.00  0.00    +0.000 A 
ATOM     28  C   UNL     1       3.689   4.137  17.217  0.00  0.00    +0.000 A 
BRANCH  28  29
ATOM     29  C   UNL     1       4.875   4.530  16.338  0.00  0.00    +0.000 C 
BRANCH  29  30
ATOM     30  N   UNL     1       6.200   4.648  16.952  0.00  0.00    +0.000 NA
ATOM     31  C   UNL     1       6.289   4.424  18.398  0.00  0.00    +0.000 C 
ATOM     32  C   UNL     1       6.755   5.572  19.300  0.00  0.00    +0.000 C 
ATOM     33  O   UNL     1       7.791   6.354  18.719  0.00  0.00    +0.000 OA
ATOM     34  C   UNL     1       7.406   6.878  17.454  0.00  0.00    +0.000 C 
ATOM     35  C   UNL     1       6.972   5.794  16.452  0.00  0.00    +0.000 C 
ENDBRANCH  29  30
ENDBRANCH  28  29
ENDBRANCH  22  23
ENDBRANCH   3  22
TORSDOF 9
ENDMDL
MODEL 6
REMARK VINA RESULT:      -7.7      2.077      2.486
REMARK  Name = 
REMARK  10 active torsions:
REMARK  status: ('A' for Active; 'I' for Inactive)
REMARK    1  A    between atoms: C_1  and  C_2
REMARK    2  A    between atoms: C_2  and  N_3
REMARK    3  A    between atoms: C_2  and  C_17
REMARK    4  A    between atoms: N_3  and  S_4
REMARK    5  A    between atoms: S_4  and  C_7
REMARK    6  A    between atoms: C_12  and  C_13
REMARK    7  A    between atoms: N_19  and  C_20
REMARK    8  A    between atoms: C_20  and  C_21
REMARK    9  A    between atoms: C_26  and  C_27
REMARK   10  A    between atoms: C_27  and  N_28
REMARK                            x       y       z     vdW  Elec       q    Type
REMARK                         _______ _______ _______ _____ _____    ______ ____
ROOT
ATOM      1  C   UNL     1       1.807   7.834  20.180  0.00  0.00    +0.000 C 
ATOM      2  O   UNL     1       1.632   7.999  21.384  0.00  0.00    +0.000 OA
ATOM      3  N   UNL     1       2.303   6.647  19.693  0.00  0.00    +0.000 N 
ATOM      4  H   UNL     1       2.399   6.548  18.701  0.00  0.00    +0.000 HD
ENDROOT
BRANCH   1   6
ATOM      5  C   UNL     1       2.300   8.926  17.881  0.00  0.00    +0.000 C 
ATOM      6  C   UNL     1       1.384   8.885  19.116  0.00  0.00    +0.000 C 
BRANCH   6   7
ATOM      7  N   UNL     1       1.288  10.284  19.566  0.00  0.00    +0.000 NA
ATOM      8  H   UNL     1       1.833  10.578  20.372  0.00  0.00    +0.000 HD
BRANCH   7   9
ATOM      9  S   UNL     1      -0.052  11.229  19.229  0.00  0.00    +0.000 S 
ATOM     10  O   UNL     1       0.389  12.564  18.940  0.00  0.00    +0.000 OA
ATOM     11  O   UNL     1      -0.885  10.503  18.304  0.00  0.00    +0.000 OA
BRANCH   9  12
ATOM     12  C   UNL     1      -0.858  11.317  20.818  0.00  0.00    +0.000 A 
ATOM     13  C   UNL     1      -0.349  10.490  21.833  0.00  0.00    +0.000 A 
ATOM     14  C   UNL     1      -0.849  10.584  23.128  0.00  0.00    +0.000 A 
ATOM     15  C   UNL     1      -1.896  11.452  23.400  0.00  0.00    +0.000 A 
ATOM     16  C   UNL     1      -2.442  12.234  22.386  0.00  0.00    +0.000 A 
ATOM     17  C   UNL     1      -1.923  12.199  21.073  0.00  0.00    +0.000 A 
BRANCH  17  18
ATOM     18  C   UNL     1      -2.567  13.137  20.076  0.00  0.00    +0.000 C 
ATOM     19  F   UNL     1      -1.794  14.145  19.598  0.00  0.00    +0.000 F 
ATOM     20  F   UNL     1      -3.077  12.486  18.992  0.00  0.00    +0.000 F 
ATOM     21  F   UNL     1      -3.627  13.790  20.638  0.00  0.00    +0.000 F 
ENDBRANCH  17  18
ENDBRANCH   9  12
ENDBRANCH   7   9
ENDBRANCH   6   7
ENDBRANCH   1   6
BRANCH   3  22
ATOM     22  C   UNL     1       2.549   5.453  20.483  0.00  0.00    +0.000 C 
BRANCH  22  23
ATOM     23  C   UNL     1       2.443   4.162  19.690  0.00  0.00    +0.000 A 
ATOM     24  C   UNL     1       1.150   3.622  19.516  0.00  0.00    +0.000 A 
ATOM     25  C   UNL     1       0.942   2.435  18.815  0.00  0.00    +0.000 A 
ATOM     26  C   UNL     1       2.020   1.784  18.235  0.00  0.00    +0.000 A 
ATOM     27  C   UNL     1       3.297   2.341  18.327  0.00  0.00    +0.000 A 
ATOM     28  C   UNL     1       3.549   3.511  19.076  0.00  0.00    +0.000 A 
BRANCH  28  29
ATOM     29  C   UNL     1       4.956   4.102  19.132  0.00  0.00    +0.000 C 
BRANCH  29  30
ATOM     30  N   UNL     1       5.593   4.528  17.883  0.00  0.00    +0.000 NA
ATOM     31  C   UNL     1       6.988   4.971  17.961  0.00  0.00    +0.000 C 
ATOM     32  C   UNL     1       7.331   6.416  17.583  0.00  0.00    +0.000 C 
ATOM     33  O   UNL     1       6.579   6.898  16.478  0.00  0.00    +0.000 OA
ATOM     34  C   UNL     1       5.179   6.794  16.711  0.00  0.00    +0.000 C 
ATOM     35  C   UNL     1       4.722   5.363  17.044  0.00  0.00    +0.000 C 
ENDBRANCH  29  30
ENDBRANCH  28  29
ENDBRANCH  22  23
ENDBRANCH   3  22
TORSDOF 9
ENDMDL
MODEL 7
REMARK VINA RESULT:      -7.6      1.325      1.745
REMARK  Name = 
REMARK  10 active torsions:
REMARK  status: ('A' for Active; 'I' for Inactive)
REMARK    1  A    between atoms: C_1  and  C_2
REMARK    2  A    between atoms: C_2  and  N_3
REMARK    3  A    between atoms: C_2  and  C_17
REMARK    4  A    between atoms: N_3  and  S_4
REMARK    5  A    between atoms: S_4  and  C_7
REMARK    6  A    between atoms: C_12  and  C_13
REMARK    7  A    between atoms: N_19  and  C_20
REMARK    8  A    between atoms: C_20  and  C_21
REMARK    9  A    between atoms: C_26  and  C_27
REMARK   10  A    between atoms: C_27  and  N_28
REMARK                            x       y       z     vdW  Elec       q    Type
REMARK                         _______ _______ _______ _____ _____    ______ ____
ROOT
ATOM      1  C   UNL     1       1.635   8.319  19.939  0.00  0.00    +0.000 C 
ATOM      2  O   UNL     1       1.885   8.703  18.800  0.00  0.00    +0.000 OA
ATOM      3  N   UNL     1       2.096   7.107  20.395  0.00  0.00    +0.000 N 
ATOM      4  H   UNL     1       1.894   6.851  21.342  0.00  0.00    +0.000 HD
ENDROOT
BRANCH   1   6
ATOM      5  C   UNL     1      -0.395   8.564  21.532  0.00  0.00    +0.000 C 
ATOM      6  C   UNL     1       0.890   9.202  20.979  0.00  0.00    +0.000 C 
BRANCH   6   7
ATOM      7  N   UNL     1       0.489  10.549  20.541  0.00  0.00    +0.000 NA
ATOM      8  H   UNL     1       0.992  10.985  19.772  0.00  0.00    +0.000 HD
BRANCH   7   9
ATOM      9  S   UNL     1      -0.304  11.610  21.565  0.00  0.00    +0.000 S 
ATOM     10  O   UNL     1      -1.615  11.861  21.039  0.00  0.00    +0.000 OA
ATOM     11  O   UNL     1      -0.120  11.143  22.916  0.00  0.00    +0.000 OA
BRANCH   9  12
ATOM     12  C   UNL     1       0.613  13.120  21.324  0.00  0.00    +0.000 A 
ATOM     13  C   UNL     1       1.752  13.047  20.503  0.00  0.00    +0.000 A 
ATOM     14  C   UNL     1       2.454  14.202  20.175  0.00  0.00    +0.000 A 
ATOM     15  C   UNL     1       2.064  15.420  20.712  0.00  0.00    +0.000 A 
ATOM     16  C   UNL     1       0.971  15.492  21.571  0.00  0.00    +0.000 A 
ATOM     17  C   UNL     1       0.207  14.345  21.883  0.00  0.00    +0.000 A 
BRANCH  17  18
ATOM     18  C   UNL     1      -0.990  14.565  22.782  0.00  0.00    +0.000 C 
ATOM     19  F   UNL     1      -1.112  15.794  23.345  0.00  0.00    +0.000 F 
ATOM     20  F   UNL     1      -2.173  14.300  22.160  0.00  0.00    +0.000 F 
ATOM     21  F   UNL     1      -0.951  13.725  23.859  0.00  0.00    +0.000 F 
ENDBRANCH  17  18
ENDBRANCH   9  12
ENDBRANCH   7   9
ENDBRANCH   6   7
ENDBRANCH   1   6
BRANCH   3  22
ATOM     22  C   UNL     1       3.000   6.226  19.674  0.00  0.00    +0.000 C 
BRANCH  22  23
ATOM     23  C   UNL     1       2.394   4.877  19.329  0.00  0.00    +0.000 A 
ATOM     24  C   UNL     1       1.366   4.402  20.172  0.00  0.00    +0.000 A 
ATOM     25  C   UNL     1       0.750   3.172  19.952  0.00  0.00    +0.000 A 
ATOM     26  C   UNL     1       1.121   2.406  18.857  0.00  0.00    +0.000 A 
ATOM     27  C   UNL     1       2.080   2.891  17.965  0.00  0.00    +0.000 A 
ATOM     28  C   UNL     1       2.761   4.107  18.189  0.00  0.00    +0.000 A 
BRANCH  28  29
ATOM     29  C   UNL     1       3.785   4.615  17.178  0.00  0.00    +0.000 C 
BRANCH  29  30
ATOM     30  N   UNL     1       5.116   4.002  17.153  0.00  0.00    +0.000 NA
ATOM     31  C   UNL     1       6.080   4.453  18.160  0.00  0.00    +0.000 C 
ATOM     32  C   UNL     1       7.370   5.141  17.699  0.00  0.00    +0.000 C 
ATOM     33  O   UNL     1       7.916   4.569  16.518  0.00  0.00    +0.000 OA
ATOM     34  C   UNL     1       6.975   4.571  15.450  0.00  0.00    +0.000 C 
ATOM     35  C   UNL     1       5.660   3.852  15.796  0.00  0.00    +0.000 C 
ENDBRANCH  29  30
ENDBRANCH  28  29
ENDBRANCH  22  23
ENDBRANCH   3  22
TORSDOF 9
ENDMDL
MODEL 8
REMARK VINA RESULT:      -7.6      2.746      4.368
REMARK  Name = 
REMARK  10 active torsions:
REMARK  status: ('A' for Active; 'I' for Inactive)
REMARK    1  A    between atoms: C_1  and  C_2
REMARK    2  A    between atoms: C_2  and  N_3
REMARK    3  A    between atoms: C_2  and  C_17
REMARK    4  A    between atoms: N_3  and  S_4
REMARK    5  A    between atoms: S_4  and  C_7
REMARK    6  A    between atoms: C_12  and  C_13
REMARK    7  A    between atoms: N_19  and  C_20
REMARK    8  A    between atoms: C_20  and  C_21
REMARK    9  A    between atoms: C_26  and  C_27
REMARK   10  A    between atoms: C_27  and  N_28
REMARK                            x       y       z     vdW  Elec       q    Type
REMARK                         _______ _______ _______ _____ _____    ______ ____
ROOT
ATOM      1  C   UNL     1       2.037   8.480  18.691  0.00  0.00    +0.000 C 
ATOM      2  O   UNL     1       1.728   9.297  17.828  0.00  0.00    +0.000 OA
ATOM      3  N   UNL     1       2.904   7.450  18.411  0.00  0.00    +0.000 N 
ATOM      4  H   UNL     1       3.152   6.827  19.155  0.00  0.00    +0.000 HD
ENDROOT
BRANCH   1   6
ATOM      5  C   UNL     1       1.233   7.260  20.832  0.00  0.00    +0.000 C 
ATOM      6  C   UNL     1       1.579   8.605  20.171  0.00  0.00    +0.000 C 
BRANCH   6   7
ATOM      7  N   UNL     1       0.418   9.470  20.436  0.00  0.00    +0.000 NA
ATOM      8  H   UNL     1      -0.325   9.520  19.743  0.00  0.00    +0.000 HD
BRANCH   7   9
ATOM      9  S   UNL     1       0.512  10.779  21.475  0.00  0.00    +0.000 S 
ATOM     10  O   UNL     1       0.556  10.292  22.824  0.00  0.00    +0.000 OA
ATOM     11  O   UNL     1       1.524  11.673  20.971  0.00  0.00    +0.000 OA
BRANCH   9  12
ATOM     12  C   UNL     1      -1.096  11.527  21.282  0.00  0.00    +0.000 A 
ATOM     13  C   UNL     1      -1.815  11.798  22.458  0.00  0.00    +0.000 A 
ATOM     14  C   UNL     1      -3.025  12.483  22.396  0.00  0.00    +0.000 A 
ATOM     15  C   UNL     1      -3.550  12.842  21.164  0.00  0.00    +0.000 A 
ATOM     16  C   UNL     1      -2.871  12.526  19.991  0.00  0.00    +0.000 A 
ATOM     17  C   UNL     1      -1.616  11.877  20.023  0.00  0.00    +0.000 A 
BRANCH  17  18
ATOM     18  C   UNL     1      -0.954  11.641  18.683  0.00  0.00    +0.000 C 
ATOM     19  F   UNL     1       0.345  12.018  18.569  0.00  0.00    +0.000 F 
ATOM     20  F   UNL     1      -1.021  10.339  18.284  0.00  0.00    +0.000 F 
ATOM     21  F   UNL     1      -1.579  12.353  17.700  0.00  0.00    +0.000 F 
ENDBRANCH  17  18
ENDBRANCH   9  12
ENDBRANCH   7   9
ENDBRANCH   6   7
ENDBRANCH   1   6
BRANCH   3  22
ATOM     22  C   UNL     1       3.628   7.277  17.162  0.00  0.00    +0.000 C 
BRANCH  22  23
ATOM     23  C   UNL     1       4.891   6.444  17.298  0.00  0.00    +0.000 A 
ATOM     24  C   UNL     1       6.111   7.146  17.405  0.00  0.00    +0.000 A 
ATOM     25  C   UNL     1       7.330   6.480  17.523  0.00  0.00    +0.000 A 
ATOM     26  C   UNL     1       7.350   5.095  17.577  0.00  0.00    +0.000 A 
ATOM     27  C   UNL     1       6.150   4.382  17.551  0.00  0.00    +0.000 A 
ATOM     28  C   UNL     1       4.904   5.024  17.379  0.00  0.00    +0.000 A 
BRANCH  28  29
ATOM     29  C   UNL     1       3.611   4.211  17.380  0.00  0.00    +0.000 C 
BRANCH  29  30
ATOM     30  N   UNL     1       2.701   4.336  18.521  0.00  0.00    +0.000 NA
ATOM     31  C   UNL     1       3.250   4.053  19.850  0.00  0.00    +0.000 C 
ATOM     32  C   UNL     1       2.671   2.888  20.661  0.00  0.00    +0.000 C 
ATOM     33  O   UNL     1       1.263   2.756  20.521  0.00  0.00    +0.000 OA
ATOM     34  C   UNL     1       0.882   2.614  19.158  0.00  0.00    +0.000 C 
ATOM     35  C   UNL     1       1.369   3.769  18.266  0.00  0.00    +0.000 C 
ENDBRANCH  29  30
ENDBRANCH  28  29
ENDBRANCH  22  23
ENDBRANCH   3  22
TORSDOF 9
ENDMDL
MODEL 9
REMARK VINA RESULT:      -7.6      2.368      3.145
REMARK  Name = 
REMARK  10 active torsions:
REMARK  status: ('A' for Active; 'I' for Inactive)
REMARK    1  A    between atoms: C_1  and  C_2
REMARK    2  A    between atoms: C_2  and  N_3
REMARK    3  A    between atoms: C_2  and  C_17
REMARK    4  A    between atoms: N_3  and  S_4
REMARK    5  A    between atoms: S_4  and  C_7
REMARK    6  A    between atoms: C_12  and  C_13
REMARK    7  A    between atoms: N_19  and  C_20
REMARK    8  A    between atoms: C_20  and  C_21
REMARK    9  A    between atoms: C_26  and  C_27
REMARK   10  A    between atoms: C_27  and  N_28
REMARK                            x       y       z     vdW  Elec       q    Type
REMARK                         _______ _______ _______ _____ _____    ______ ____
ROOT
ATOM      1  C   UNL     1       1.353   8.981  19.965  0.00  0.00    +0.000 C 
ATOM      2  O   UNL     1       1.302   9.417  18.818  0.00  0.00    +0.000 OA
ATOM      3  N   UNL     1       1.897   7.746  20.228  0.00  0.00    +0.000 N 
ATOM      4  H   UNL     1       1.946   7.446  21.182  0.00  0.00    +0.000 HD
ENDROOT
BRANCH   1   6
ATOM      5  C   UNL     1       0.924   9.024  22.520  0.00  0.00    +0.000 C 
ATOM      6  C   UNL     1       0.924   9.817  21.203  0.00  0.00    +0.000 C 
BRANCH   6   7
ATOM      7  N   UNL     1      -0.399  10.460  21.145  0.00  0.00    +0.000 NA
ATOM      8  H   UNL     1      -1.126  10.034  20.576  0.00  0.00    +0.000 HD
BRANCH   7   9
ATOM      9  S   UNL     1      -0.601  12.093  21.453  0.00  0.00    +0.000 S 
ATOM     10  O   UNL     1      -0.417  12.320  22.858  0.00  0.00    +0.000 OA
ATOM     11  O   UNL     1       0.160  12.826  20.473  0.00  0.00    +0.000 OA
BRANCH   9  12
ATOM     12  C   UNL     1      -2.344  12.319  21.150  0.00  0.00    +0.000 A 
ATOM     13  C   UNL     1      -3.151  12.604  22.265  0.00  0.00    +0.000 A 
ATOM     14  C   UNL     1      -4.498  12.905  22.095  0.00  0.00    +0.000 A 
ATOM     15  C   UNL     1      -5.058  12.861  20.827  0.00  0.00    +0.000 A 
ATOM     16  C   UNL     1      -4.278  12.523  19.725  0.00  0.00    +0.000 A 
ATOM     17  C   UNL     1      -2.896  12.262  19.858  0.00  0.00    +0.000 A 
BRANCH  17  18
ATOM     18  C   UNL     1      -2.148  11.963  18.577  0.00  0.00    +0.000 C 
ATOM     19  F   UNL     1      -2.896  11.807  17.456  0.00  0.00    +0.000 F 
ATOM     20  F   UNL     1      -1.201  12.900  18.289  0.00  0.00    +0.000 F 
ATOM     21  F   UNL     1      -1.471  10.781  18.673  0.00  0.00    +0.000 F 
ENDBRANCH  17  18
ENDBRANCH   9  12
ENDBRANCH   7   9
ENDBRANCH   6   7
ENDBRANCH   1   6
BRANCH   3  22
ATOM     22  C   UNL     1       2.563   6.896  19.255  0.00  0.00    +0.000 C 
BRANCH  22  23
ATOM     23  C   UNL     1       2.348   5.411  19.490  0.00  0.00    +0.000 A 
ATOM     24  C   UNL     1       1.544   5.047  20.592  0.00  0.00    +0.000 A 
ATOM     25  C   UNL     1       1.293   3.712  20.904  0.00  0.00    +0.000 A 
ATOM     26  C   UNL     1       1.807   2.711  20.094  0.00  0.00    +0.000 A 
ATOM     27  C   UNL     1       2.539   3.049  18.955  0.00  0.00    +0.000 A 
ATOM     28  C   UNL     1       2.857   4.389  18.641  0.00  0.00    +0.000 A 
BRANCH  28  29
ATOM     29  C   UNL     1       3.640   4.719  17.372  0.00  0.00    +0.000 C 
BRANCH  29  30
ATOM     30  N   UNL     1       5.103   4.650  17.408  0.00  0.00    +0.000 NA
ATOM     31  C   UNL     1       5.811   5.772  18.029  0.00  0.00    +0.000 C 
ATOM     32  C   UNL     1       6.764   6.615  17.175  0.00  0.00    +0.000 C 
ATOM     33  O   UNL     1       7.507   5.842  16.241  0.00  0.00    +0.000 OA
ATOM     34  C   UNL     1       6.654   5.088  15.388  0.00  0.00    +0.000 C 
ATOM     35  C   UNL     1       5.691   4.163  16.152  0.00  0.00    +0.000 C 
ENDBRANCH  29  30
ENDBRANCH  28  29
ENDBRANCH  22  23
ENDBRANCH   3  22
TORSDOF 9
ENDMDL
