MODEL 1
REMARK VINA RESULT:      -6.6      0.000      0.000
REMARK  Name = 
REMARK  3 active torsions:
REMARK  status: ('A' for Active; 'I' for Inactive)
REMARK    1  A    between atoms: C_1  and  S_2
REMARK    2  A    between atoms: S_2  and  C_3
REMARK    3  A    between atoms: C_6  and  C_7
REMARK                            x       y       z     vdW  Elec       q    Type
REMARK                         _______ _______ _______ _____ _____    ______ ____
ROOT
ATOM      1  C   UNL     1       6.347   4.625  17.213  0.00  0.00    +0.000 A 
ATOM      2  N   UNL     1       7.003   4.582  18.355  0.00  0.00    +0.000 NA
ATOM      3  N   UNL     1       6.070   4.333  19.339  0.00  0.00    +0.000 NA
ATOM      4  C   UNL     1       4.908   4.215  18.727  0.00  0.00    +0.000 A 
ATOM      5  O   UNL     1       5.003   4.427  17.380  0.00  0.00    +0.000 OA
ENDROOT
BRANCH   4   6
ATOM      6  C   UNL     1       3.586   3.981  19.294  0.00  0.00    +0.000 A 
ATOM      7  C   UNL     1       2.988   5.037  20.011  0.00  0.00    +0.000 A 
ATOM      8  C   UNL     1       1.728   4.892  20.599  0.00  0.00    +0.000 A 
ATOM      9  C   UNL     1       1.046   3.685  20.487  0.00  0.00    +0.000 A 
ATOM     10  C   UNL     1       1.625   2.625  19.792  0.00  0.00    +0.000 A 
ATOM     11  C   UNL     1       2.888   2.766  19.200  0.00  0.00    +0.000 A 
ATOM     12 CL   UNL     1       3.530   1.358  18.423  0.00  0.00    +0.000 Cl
ENDBRANCH   4   6
BRANCH   1  14
ATOM     13  C   UNL     1       5.972   3.904  14.620  0.00  0.00    +0.000 C 
ATOM     14  S   UNL     1       7.066   4.898  15.657  0.00  0.00    +0.000 S 
ENDBRANCH   1  14
TORSDOF 2
ENDMDL
MODEL 2
REMARK VINA RESULT:      -6.3      1.478      1.947
REMARK  Name = 
REMARK  3 active torsions:
REMARK  status: ('A' for Active; 'I' for Inactive)
REMARK    1  A    between atoms: C_1  and  S_2
REMARK    2  A    between atoms: S_2  and  C_3
REMARK    3  A    between atoms: C_6  and  C_7
REMARK                            x       y       z     vdW  Elec       q    Type
REMARK                         _______ _______ _______ _____ _____    ______ ____
ROOT
ATOM      1  C   UNL     1       6.244   4.601  17.152  0.00  0.00    +0.000 A 
ATOM      2  N   UNL     1       6.852   4.505  18.317  0.00  0.00    +0.000 NA
ATOM      3  N   UNL     1       5.885   4.174  19.243  0.00  0.00    +0.000 NA
ATOM      4  C   UNL     1       4.754   4.063  18.574  0.00  0.00    +0.000 A 
ATOM      5  O   UNL     1       4.900   4.358  17.247  0.00  0.00    +0.000 OA
ENDROOT
BRANCH   4   6
ATOM      6  C   UNL     1       3.416   3.762  19.068  0.00  0.00    +0.000 A 
ATOM      7  C   UNL     1       2.989   2.420  19.015  0.00  0.00    +0.000 A 
ATOM      8  C   UNL     1       1.717   2.046  19.455  0.00  0.00    +0.000 A 
ATOM      9  C   UNL     1       0.844   3.009  19.949  0.00  0.00    +0.000 A 
ATOM     10  C   UNL     1       1.243   4.344  19.998  0.00  0.00    +0.000 A 
ATOM     11  C   UNL     1       2.519   4.723  19.559  0.00  0.00    +0.000 A 
ATOM     12 CL   UNL     1       2.873   6.418  19.608  0.00  0.00    +0.000 Cl
ENDBRANCH   4   6
BRANCH   1  14
ATOM     13  C   UNL     1       6.119   3.889  14.532  0.00  0.00    +0.000 C 
ATOM     14  S   UNL     1       7.021   4.985  15.647  0.00  0.00    +0.000 S 
ENDBRANCH   1  14
TORSDOF 2
ENDMDL
MODEL 3
REMARK VINA RESULT:      -6.1      1.197      1.561
REMARK  Name = 
REMARK  3 active torsions:
REMARK  status: ('A' for Active; 'I' for Inactive)
REMARK    1  A    between atoms: C_1  and  S_2
REMARK    2  A    between atoms: S_2  and  C_3
REMARK    3  A    between atoms: C_6  and  C_7
REMARK                            x       y       z     vdW  Elec       q    Type
REMARK                         _______ _______ _______ _____ _____    ______ ____
ROOT
ATOM      1  C   UNL     1       6.117   5.436  17.807  0.00  0.00    +0.000 A 
ATOM      2  N   UNL     1       6.757   4.698  18.691  0.00  0.00    +0.000 NA
ATOM      3  N   UNL     1       5.796   4.023  19.414  0.00  0.00    +0.000 NA
ATOM      4  C   UNL     1       4.632   4.375  18.904  0.00  0.00    +0.000 A 
ATOM      5  O   UNL     1       4.758   5.300  17.905  0.00  0.00    +0.000 OA
ENDROOT
BRANCH   4   6
ATOM      6  C   UNL     1       3.289   3.983  19.312  0.00  0.00    +0.000 A 
ATOM      7  C   UNL     1       2.568   4.877  20.129  0.00  0.00    +0.000 A 
ATOM      8  C   UNL     1       1.280   4.573  20.575  0.00  0.00    +0.000 A 
ATOM      9  C   UNL     1       0.691   3.364  20.220  0.00  0.00    +0.000 A 
ATOM     10  C   UNL     1       1.392   2.461  19.423  0.00  0.00    +0.000 A 
ATOM     11  C   UNL     1       2.684   2.763  18.971  0.00  0.00    +0.000 A 
ATOM     12 CL   UNL     1       3.477   1.533  18.045  0.00  0.00    +0.000 Cl
ENDBRANCH   4   6
BRANCH   1  14
ATOM     13  C   UNL     1       7.743   7.612  17.731  0.00  0.00    +0.000 C 
ATOM     14  S   UNL     1       6.871   6.473  16.636  0.00  0.00    +0.000 S 
ENDBRANCH   1  14
TORSDOF 2
ENDMDL
MODEL 4
REMARK VINA RESULT:      -6.0      2.613      3.385
REMARK  Name = 
REMARK  3 active torsions:
REMARK  status: ('A' for Active; 'I' for Inactive)
REMARK    1  A    between atoms: C_1  and  S_2
REMARK    2  A    between atoms: S_2  and  C_3
REMARK    3  A    between atoms: C_6  and  C_7
REMARK                            x       y       z     vdW  Elec       q    Type
REMARK                         _______ _______ _______ _____ _____    ______ ____
ROOT
ATOM      1  C   UNL     1       6.653   4.624  13.992  0.00  0.00    +0.000 A 
ATOM      2  N   UNL     1       7.613   5.209  14.680  0.00  0.00    +0.000 NA
ATOM      3  N   UNL     1       7.026   5.731  15.813  0.00  0.00    +0.000 NA
ATOM      4  C   UNL     1       5.749   5.405  15.754  0.00  0.00    +0.000 A 
ATOM      5  O   UNL     1       5.435   4.734  14.605  0.00  0.00    +0.000 OA
ENDROOT
BRANCH   4   6
ATOM      6  C   UNL     1       4.670   5.730  16.678  0.00  0.00    +0.000 A 
ATOM      7  C   UNL     1       4.392   7.094  16.901  0.00  0.00    +0.000 A 
ATOM      8  C   UNL     1       3.382   7.493  17.781  0.00  0.00    +0.000 A 
ATOM      9  C   UNL     1       2.637   6.535  18.461  0.00  0.00    +0.000 A 
ATOM     10  C   UNL     1       2.905   5.182  18.263  0.00  0.00    +0.000 A 
ATOM     11  C   UNL     1       3.916   4.777  17.379  0.00  0.00    +0.000 A 
ATOM     12 CL   UNL     1       4.198   3.072  17.270  0.00  0.00    +0.000 Cl
ENDBRANCH   4   6
BRANCH   1  14
ATOM     13  C   UNL     1       5.158   3.354  12.111  0.00  0.00    +0.000 C 
ATOM     14  S   UNL     1       6.869   3.796  12.481  0.00  0.00    +0.000 S 
ENDBRANCH   1  14
TORSDOF 2
ENDMDL
MODEL 5
REMARK VINA RESULT:      -5.9      2.353      2.883
REMARK  Name = 
REMARK  3 active torsions:
REMARK  status: ('A' for Active; 'I' for Inactive)
REMARK    1  A    between atoms: C_1  and  S_2
REMARK    2  A    between atoms: S_2  and  C_3
REMARK    3  A    between atoms: C_6  and  C_7
REMARK                            x       y       z     vdW  Elec       q    Type
REMARK                         _______ _______ _______ _____ _____    ______ ____
ROOT
ATOM      1  C   UNL     1       6.674   4.654  14.993  0.00  0.00    +0.000 A 
ATOM      2  N   UNL     1       7.387   4.672  16.102  0.00  0.00    +0.000 NA
ATOM      3  N   UNL     1       6.498   4.527  17.146  0.00  0.00    +0.000 NA
ATOM      4  C   UNL     1       5.303   4.404  16.603  0.00  0.00    +0.000 A 
ATOM      5  O   UNL     1       5.335   4.514  15.241  0.00  0.00    +0.000 OA
ENDROOT
BRANCH   4   6
ATOM      6  C   UNL     1       4.006   4.257  17.251  0.00  0.00    +0.000 A 
ATOM      7  C   UNL     1       3.469   2.957  17.347  0.00  0.00    +0.000 A 
ATOM      8  C   UNL     1       2.225   2.729  17.940  0.00  0.00    +0.000 A 
ATOM      9  C   UNL     1       1.490   3.797  18.442  0.00  0.00    +0.000 A 
ATOM     10  C   UNL     1       1.998   5.091  18.346  0.00  0.00    +0.000 A 
ATOM     11  C   UNL     1       3.247   5.325  17.753  0.00  0.00    +0.000 A 
ATOM     12 CL   UNL     1       3.738   6.981  17.632  0.00  0.00    +0.000 Cl
ENDBRANCH   4   6
BRANCH   1  14
ATOM     13  C   UNL     1       6.322   3.547  12.536  0.00  0.00    +0.000 C 
ATOM     14  S   UNL     1       7.319   4.789  13.387  0.00  0.00    +0.000 S 
ENDBRANCH   1  14
TORSDOF 2
ENDMDL
MODEL 6
REMARK VINA RESULT:      -5.9      2.045      2.322
REMARK  Name = 
REMARK  3 active torsions:
REMARK  status: ('A' for Active; 'I' for Inactive)
REMARK    1  A    between atoms: C_1  and  S_2
REMARK    2  A    between atoms: S_2  and  C_3
REMARK    3  A    between atoms: C_6  and  C_7
REMARK                            x       y       z     vdW  Elec       q    Type
REMARK                         _______ _______ _______ _____ _____    ______ ____
ROOT
ATOM      1  C   UNL     1       6.188   4.790  18.091  0.00  0.00    +0.000 A 
ATOM      2  N   UNL     1       5.735   4.207  16.999  0.00  0.00    +0.000 NA
ATOM      3  N   UNL     1       4.512   3.658  17.321  0.00  0.00    +0.000 NA
ATOM      4  C   UNL     1       4.287   3.967  18.583  0.00  0.00    +0.000 A 
ATOM      5  O   UNL     1       5.327   4.652  19.147  0.00  0.00    +0.000 OA
ENDROOT
BRANCH   4   6
ATOM      6  C   UNL     1       3.157   3.612  19.434  0.00  0.00    +0.000 A 
ATOM      7  C   UNL     1       3.439   2.976  20.659  0.00  0.00    +0.000 A 
ATOM      8  C   UNL     1       2.415   2.590  21.527  0.00  0.00    +0.000 A 
ATOM      9  C   UNL     1       1.088   2.825  21.183  0.00  0.00    +0.000 A 
ATOM     10  C   UNL     1       0.789   3.443  19.970  0.00  0.00    +0.000 A 
ATOM     11  C   UNL     1       1.813   3.833  19.096  0.00  0.00    +0.000 A 
ATOM     12 CL   UNL     1       1.312   4.528  17.591  0.00  0.00    +0.000 Cl
ENDBRANCH   4   6
BRANCH   1  14
ATOM     13  C   UNL     1       7.243   7.206  17.432  0.00  0.00    +0.000 C 
ATOM     14  S   UNL     1       7.694   5.644  18.217  0.00  0.00    +0.000 S 
ENDBRANCH   1  14
TORSDOF 2
ENDMDL
MODEL 7
REMARK VINA RESULT:      -5.9      3.360      5.406
REMARK  Name = 
REMARK  3 active torsions:
REMARK  status: ('A' for Active; 'I' for Inactive)
REMARK    1  A    between atoms: C_1  and  S_2
REMARK    2  A    between atoms: S_2  and  C_3
REMARK    3  A    between atoms: C_6  and  C_7
REMARK                            x       y       z     vdW  Elec       q    Type
REMARK                         _______ _______ _______ _____ _____    ______ ____
ROOT
ATOM      1  C   UNL     1       2.535   3.689  18.700  0.00  0.00    +0.000 A 
ATOM      2  N   UNL     1       2.688   3.310  17.447  0.00  0.00    +0.000 NA
ATOM      3  N   UNL     1       3.869   3.867  17.006  0.00  0.00    +0.000 NA
ATOM      4  C   UNL     1       4.373   4.529  18.029  0.00  0.00    +0.000 A 
ATOM      5  O   UNL     1       3.559   4.491  19.127  0.00  0.00    +0.000 OA
ENDROOT
BRANCH   4   6
ATOM      6  C   UNL     1       5.590   5.327  18.104  0.00  0.00    +0.000 A 
ATOM      7  C   UNL     1       6.439   5.118  19.209  0.00  0.00    +0.000 A 
ATOM      8  C   UNL     1       7.619   5.850  19.364  0.00  0.00    +0.000 A 
ATOM      9  C   UNL     1       7.968   6.810  18.421  0.00  0.00    +0.000 A 
ATOM     10  C   UNL     1       7.136   7.040  17.327  0.00  0.00    +0.000 A 
ATOM     11  C   UNL     1       5.952   6.307  17.166  0.00  0.00    +0.000 A 
ATOM     12 CL   UNL     1       4.969   6.730  15.805  0.00  0.00    +0.000 Cl
ENDBRANCH   4   6
BRANCH   1  14
ATOM     13  C   UNL     1       1.931   3.562  21.347  0.00  0.00    +0.000 C 
ATOM     14  S   UNL     1       1.205   3.244  19.724  0.00  0.00    +0.000 S 
ENDBRANCH   1  14
TORSDOF 2
ENDMDL
MODEL 8
REMARK VINA RESULT:      -5.9      3.114      3.892
REMARK  Name = 
REMARK  3 active torsions:
REMARK  status: ('A' for Active; 'I' for Inactive)
REMARK    1  A    between atoms: C_1  and  S_2
REMARK    2  A    between atoms: S_2  and  C_3
REMARK    3  A    between atoms: C_6  and  C_7
REMARK                            x       y       z     vdW  Elec       q    Type
REMARK                         _______ _______ _______ _____ _____    ______ ____
ROOT
ATOM      1  C   UNL     1       6.606   4.239  13.666  0.00  0.00    +0.000 A 
ATOM      2  N   UNL     1       7.481   5.200  13.891  0.00  0.00    +0.000 NA
ATOM      3  N   UNL     1       7.239   5.666  15.165  0.00  0.00    +0.000 NA
ATOM      4  C   UNL     1       6.248   4.939  15.644  0.00  0.00    +0.000 A 
ATOM      5  O   UNL     1       5.772   4.039  14.732  0.00  0.00    +0.000 OA
ENDROOT
BRANCH   4   6
ATOM      6  C   UNL     1       5.576   5.030  16.935  0.00  0.00    +0.000 A 
ATOM      7  C   UNL     1       4.177   5.202  16.930  0.00  0.00    +0.000 A 
ATOM      8  C   UNL     1       3.457   5.312  18.122  0.00  0.00    +0.000 A 
ATOM      9  C   UNL     1       4.123   5.260  19.342  0.00  0.00    +0.000 A 
ATOM     10  C   UNL     1       5.508   5.102  19.367  0.00  0.00    +0.000 A 
ATOM     11  C   UNL     1       6.235   4.990  18.174  0.00  0.00    +0.000 A 
ATOM     12 CL   UNL     1       7.954   4.866  18.334  0.00  0.00    +0.000 Cl
ENDBRANCH   4   6
BRANCH   1  14
ATOM     13  C   UNL     1       4.712   3.372  11.921  0.00  0.00    +0.000 C 
ATOM     14  S   UNL     1       6.494   3.312  12.203  0.00  0.00    +0.000 S 
ENDBRANCH   1  14
TORSDOF 2
ENDMDL
MODEL 9
REMARK VINA RESULT:      -5.9      1.755      2.079
REMARK  Name = 
REMARK  3 active torsions:
REMARK  status: ('A' for Active; 'I' for Inactive)
REMARK    1  A    between atoms: C_1  and  S_2
REMARK    2  A    between atoms: S_2  and  C_3
REMARK    3  A    between atoms: C_6  and  C_7
REMARK                            x       y       z     vdW  Elec       q    Type
REMARK                         _______ _______ _______ _____ _____    ______ ____
ROOT
ATOM      1  C   UNL     1       5.790   5.689  17.437  0.00  0.00    +0.000 A 
ATOM      2  N   UNL     1       5.265   5.224  16.320  0.00  0.00    +0.000 NA
ATOM      3  N   UNL     1       4.115   4.551  16.673  0.00  0.00    +0.000 NA
ATOM      4  C   UNL     1       3.999   4.673  17.981  0.00  0.00    +0.000 A 
ATOM      5  O   UNL     1       5.048   5.351  18.537  0.00  0.00    +0.000 OA
ENDROOT
BRANCH   4   6
ATOM      6  C   UNL     1       2.984   4.128  18.873  0.00  0.00    +0.000 A 
ATOM      7  C   UNL     1       2.263   5.037  19.673  0.00  0.00    +0.000 A 
ATOM      8  C   UNL     1       1.282   4.597  20.565  0.00  0.00    +0.000 A 
ATOM      9  C   UNL     1       1.008   3.239  20.680  0.00  0.00    +0.000 A 
ATOM     10  C   UNL     1       1.718   2.323  19.906  0.00  0.00    +0.000 A 
ATOM     11  C   UNL     1       2.703   2.759  19.009  0.00  0.00    +0.000 A 
ATOM     12 CL   UNL     1       3.562   1.522  18.155  0.00  0.00    +0.000 Cl
ENDBRANCH   4   6
BRANCH   1  14
ATOM     13  C   UNL     1       7.928   5.986  19.087  0.00  0.00    +0.000 C 
ATOM     14  S   UNL     1       7.247   6.626  17.542  0.00  0.00    +0.000 S 
ENDBRANCH   1  14
TORSDOF 2
ENDMDL
