MODEL 1
REMARK VINA RESULT:      -7.3      0.000      0.000
REMARK  Name = 
REMARK  8 active torsions:
REMARK  status: ('A' for Active; 'I' for Inactive)
REMARK    1  A    between atoms: C_1  and  N_2
REMARK    2  A    between atoms: N_5  and  C_6
REMARK    3  A    between atoms: C_6  and  C_7
REMARK    4  A    between atoms: C_7  and  N_8
REMARK    5  A    between atoms: N_8  and  S_9
REMARK    6  A    between atoms: S_9  and  C_12
REMARK    7  A    between atoms: C_18  and  C_19
REMARK    8  A    between atoms: N_20  and  O_21
REMARK                            x       y       z     vdW  Elec       q    Type
REMARK                         _______ _______ _______ _____ _____    ______ ____
ROOT
ATOM      1  C   UNL     1       4.484   5.449  17.374  0.00  0.00    +0.000 C 
ENDROOT
BRANCH   1   2
ATOM      2  N   UNL     1       5.334   4.513  16.619  0.00  0.00    +0.000 NA
ATOM      3  H   UNL     1       4.915   3.993  15.842  0.00  0.00    +0.000 HD
BRANCH   2   4
ATOM      4  S   UNL     1       6.825   5.135  16.086  0.00  0.00    +0.000 S 
ATOM      5  O   UNL     1       6.713   6.569  16.214  0.00  0.00    +0.000 OA
ATOM      6  O   UNL     1       7.855   4.377  16.762  0.00  0.00    +0.000 OA
BRANCH   4   7
ATOM      7  C   UNL     1       6.839   4.730  14.363  0.00  0.00    +0.000 A 
ATOM      8  C   UNL     1       7.748   5.360  13.507  0.00  0.00    +0.000 A 
ATOM      9  C   UNL     1       7.782   5.001  12.159  0.00  0.00    +0.000 A 
ATOM     10  C   UNL     1       6.919   4.017  11.673  0.00  0.00    +0.000 A 
ATOM     11  C   UNL     1       6.020   3.383  12.532  0.00  0.00    +0.000 A 
ATOM     12  C   UNL     1       5.979   3.738  13.882  0.00  0.00    +0.000 A 
ENDBRANCH   4   7
ENDBRANCH   2   4
ENDBRANCH   1   2
BRANCH   1  13
ATOM     13  C   UNL     1       4.763   5.406  18.882  0.00  0.00    +0.000 C 
BRANCH  13  18
ATOM     14  C   UNL     1       1.186   2.759  21.123  0.00  0.00    +0.000 C 
ATOM     15  N   UNL     1       1.990   3.868  20.610  0.00  0.00    +0.000 N 
ATOM     16  C   UNL     1       1.654   5.205  20.750  0.00  0.00    +0.000 A 
ATOM     17  C   UNL     1       2.637   5.927  20.147  0.00  0.00    +0.000 A 
ATOM     18  N   UNL     1       3.555   5.020  19.647  0.00  0.00    +0.000 N 
ATOM     19  C   UNL     1       3.166   3.742  19.931  0.00  0.00    +0.000 A 
BRANCH  19  20
ATOM     20  C   UNL     1       3.824   2.540  19.596  0.00  0.00    +0.000 C 
ATOM     21  N   UNL     1       3.519   1.760  18.602  0.00  0.00    +0.000 NA
BRANCH  21  22
ATOM     22  O   UNL     1       4.406   0.675  18.590  0.00  0.00    +0.000 OA
ATOM     23  H   UNL     1       4.171   0.174  19.399  0.00  0.00    +0.000 HD
ENDBRANCH  21  22
ENDBRANCH  19  20
ENDBRANCH  13  18
ENDBRANCH   1  13
TORSDOF 7
ENDMDL
MODEL 2
REMARK VINA RESULT:      -6.9      1.673      2.269
REMARK  Name = 
REMARK  8 active torsions:
REMARK  status: ('A' for Active; 'I' for Inactive)
REMARK    1  A    between atoms: C_1  and  N_2
REMARK    2  A    between atoms: N_5  and  C_6
REMARK    3  A    between atoms: C_6  and  C_7
REMARK    4  A    between atoms: C_7  and  N_8
REMARK    5  A    between atoms: N_8  and  S_9
REMARK    6  A    between atoms: S_9  and  C_12
REMARK    7  A    between atoms: C_18  and  C_19
REMARK    8  A    between atoms: N_20  and  O_21
REMARK                            x       y       z     vdW  Elec       q    Type
REMARK                         _______ _______ _______ _____ _____    ______ ____
ROOT
ATOM      1  C   UNL     1       5.087   4.018  18.114  0.00  0.00    +0.000 C 
ENDROOT
BRANCH   1   2
ATOM      2  N   UNL     1       5.560   3.835  16.732  0.00  0.00    +0.000 NA
ATOM      3  H   UNL     1       4.863   3.760  15.984  0.00  0.00    +0.000 HD
BRANCH   2   4
ATOM      4  S   UNL     1       6.765   4.918  16.214  0.00  0.00    +0.000 S 
ATOM      5  O   UNL     1       6.226   6.237  16.452  0.00  0.00    +0.000 OA
ATOM      6  O   UNL     1       8.006   4.472  16.807  0.00  0.00    +0.000 OA
BRANCH   4   7
ATOM      7  C   UNL     1       6.825   4.650  14.465  0.00  0.00    +0.000 A 
ATOM      8  C   UNL     1       7.740   5.361  13.683  0.00  0.00    +0.000 A 
ATOM      9  C   UNL     1       7.811   5.109  12.312  0.00  0.00    +0.000 A 
ATOM     10  C   UNL     1       6.978   4.151  11.731  0.00  0.00    +0.000 A 
ATOM     11  C   UNL     1       6.073   3.437  12.516  0.00  0.00    +0.000 A 
ATOM     12  C   UNL     1       5.994   3.684  13.888  0.00  0.00    +0.000 A 
ENDBRANCH   4   7
ENDBRANCH   2   4
ENDBRANCH   1   2
BRANCH   1  13
ATOM     13  C   UNL     1       3.556   4.019  18.214  0.00  0.00    +0.000 C 
BRANCH  13  18
ATOM     14  C   UNL     1       1.461   7.550  21.036  0.00  0.00    +0.000 C 
ATOM     15  N   UNL     1       2.120   6.852  19.933  0.00  0.00    +0.000 N 
ATOM     16  C   UNL     1       2.481   7.450  18.736  0.00  0.00    +0.000 A 
ATOM     17  C   UNL     1       3.063   6.487  17.970  0.00  0.00    +0.000 A 
ATOM     18  N   UNL     1       3.045   5.318  18.711  0.00  0.00    +0.000 N 
ATOM     19  C   UNL     1       2.467   5.532  19.929  0.00  0.00    +0.000 A 
BRANCH  19  20
ATOM     20  C   UNL     1       2.259   4.602  20.969  0.00  0.00    +0.000 C 
ATOM     21  N   UNL     1       1.424   3.608  20.940  0.00  0.00    +0.000 NA
BRANCH  21  22
ATOM     22  O   UNL     1       1.514   2.905  22.150  0.00  0.00    +0.000 OA
ATOM     23  H   UNL     1       2.456   2.642  22.195  0.00  0.00    +0.000 HD
ENDBRANCH  21  22
ENDBRANCH  19  20
ENDBRANCH  13  18
ENDBRANCH   1  13
TORSDOF 7
ENDMDL
MODEL 3
REMARK VINA RESULT:      -6.8      0.919      1.406
REMARK  Name = 
REMARK  8 active torsions:
REMARK  status: ('A' for Active; 'I' for Inactive)
REMARK    1  A    between atoms: C_1  and  N_2
REMARK    2  A    between atoms: N_5  and  C_6
REMARK    3  A    between atoms: C_6  and  C_7
REMARK    4  A    between atoms: C_7  and  N_8
REMARK    5  A    between atoms: N_8  and  S_9
REMARK    6  A    between atoms: S_9  and  C_12
REMARK    7  A    between atoms: C_18  and  C_19
REMARK    8  A    between atoms: N_20  and  O_21
REMARK                            x       y       z     vdW  Elec       q    Type
REMARK                         _______ _______ _______ _____ _____    ______ ____
ROOT
ATOM      1  C   UNL     1       4.467   6.479  17.464  0.00  0.00    +0.000 C 
ENDROOT
BRANCH   1   2
ATOM      2  N   UNL     1       5.278   6.565  16.238  0.00  0.00    +0.000 NA
ATOM      3  H   UNL     1       5.494   7.493  15.860  0.00  0.00    +0.000 HD
BRANCH   2   4
ATOM      4  S   UNL     1       6.716   5.656  16.239  0.00  0.00    +0.000 S 
ATOM      5  O   UNL     1       7.785   6.625  16.313  0.00  0.00    +0.000 OA
ATOM      6  O   UNL     1       6.548   4.615  17.227  0.00  0.00    +0.000 OA
BRANCH   4   7
ATOM      7  C   UNL     1       6.737   4.930  14.624  0.00  0.00    +0.000 A 
ATOM      8  C   UNL     1       5.781   3.969  14.281  0.00  0.00    +0.000 A 
ATOM      9  C   UNL     1       5.777   3.436  12.991  0.00  0.00    +0.000 A 
ATOM     10  C   UNL     1       6.717   3.867  12.052  0.00  0.00    +0.000 A 
ATOM     11  C   UNL     1       7.663   4.833  12.395  0.00  0.00    +0.000 A 
ATOM     12  C   UNL     1       7.674   5.370  13.684  0.00  0.00    +0.000 A 
ENDBRANCH   4   7
ENDBRANCH   2   4
ENDBRANCH   1   2
BRANCH   1  13
ATOM     13  C   UNL     1       3.510   5.279  17.449  0.00  0.00    +0.000 C 
BRANCH  13  18
ATOM     14  C   UNL     1       1.849   3.027  21.571  0.00  0.00    +0.000 C 
ATOM     15  N   UNL     1       2.203   4.043  20.580  0.00  0.00    +0.000 N 
ATOM     16  C   UNL     1       1.965   5.400  20.735  0.00  0.00    +0.000 A 
ATOM     17  C   UNL     1       2.429   6.015  19.613  0.00  0.00    +0.000 A 
ATOM     18  N   UNL     1       2.939   5.024  18.792  0.00  0.00    +0.000 N 
ATOM     19  C   UNL     1       2.808   3.799  19.382  0.00  0.00    +0.000 A 
BRANCH  19  20
ATOM     20  C   UNL     1       3.201   2.544  18.874  0.00  0.00    +0.000 C 
ATOM     21  N   UNL     1       4.190   1.824  19.312  0.00  0.00    +0.000 NA
BRANCH  21  22
ATOM     22  O   UNL     1       4.257   0.642  18.563  0.00  0.00    +0.000 OA
ATOM     23  H   UNL     1       3.318   0.426  18.386  0.00  0.00    +0.000 HD
ENDBRANCH  21  22
ENDBRANCH  19  20
ENDBRANCH  13  18
ENDBRANCH   1  13
TORSDOF 7
ENDMDL
MODEL 4
REMARK VINA RESULT:      -6.7      1.637      2.439
REMARK  Name = 
REMARK  8 active torsions:
REMARK  status: ('A' for Active; 'I' for Inactive)
REMARK    1  A    between atoms: C_1  and  N_2
REMARK    2  A    between atoms: N_5  and  C_6
REMARK    3  A    between atoms: C_6  and  C_7
REMARK    4  A    between atoms: C_7  and  N_8
REMARK    5  A    between atoms: N_8  and  S_9
REMARK    6  A    between atoms: S_9  and  C_12
REMARK    7  A    between atoms: C_18  and  C_19
REMARK    8  A    between atoms: N_20  and  O_21
REMARK                            x       y       z     vdW  Elec       q    Type
REMARK                         _______ _______ _______ _____ _____    ______ ____
ROOT
ATOM      1  C   UNL     1       4.188   4.073  17.070  0.00  0.00    +0.000 C 
ENDROOT
BRANCH   1   2
ATOM      2  N   UNL     1       5.517   3.572  16.682  0.00  0.00    +0.000 NA
ATOM      3  H   UNL     1       5.571   2.819  15.990  0.00  0.00    +0.000 HD
BRANCH   2   4
ATOM      4  S   UNL     1       6.656   4.760  16.249  0.00  0.00    +0.000 S 
ATOM      5  O   UNL     1       6.002   6.026  16.487  0.00  0.00    +0.000 OA
ATOM      6  O   UNL     1       7.897   4.398  16.894  0.00  0.00    +0.000 OA
BRANCH   4   7
ATOM      7  C   UNL     1       6.822   4.542  14.500  0.00  0.00    +0.000 A 
ATOM      8  C   UNL     1       5.996   3.635  13.830  0.00  0.00    +0.000 A 
ATOM      9  C   UNL     1       6.103   3.504  12.444  0.00  0.00    +0.000 A 
ATOM     10  C   UNL     1       7.025   4.279  11.736  0.00  0.00    +0.000 A 
ATOM     11  C   UNL     1       7.841   5.190  12.407  0.00  0.00    +0.000 A 
ATOM     12  C   UNL     1       7.741   5.325  13.793  0.00  0.00    +0.000 A 
ENDBRANCH   4   7
ENDBRANCH   2   4
ENDBRANCH   1   2
BRANCH   1  13
ATOM     13  C   UNL     1       4.009   4.137  18.593  0.00  0.00    +0.000 C 
BRANCH  13  18
ATOM     14  C   UNL     1       1.157   7.394  21.060  0.00  0.00    +0.000 C 
ATOM     15  N   UNL     1       2.043   6.782  20.070  0.00  0.00    +0.000 N 
ATOM     16  C   UNL     1       2.513   7.430  18.938  0.00  0.00    +0.000 A 
ATOM     17  C   UNL     1       3.301   6.543  18.271  0.00  0.00    +0.000 A 
ATOM     18  N   UNL     1       3.296   5.369  19.004  0.00  0.00    +0.000 N 
ATOM     19  C   UNL     1       2.523   5.506  20.122  0.00  0.00    +0.000 A 
BRANCH  19  20
ATOM     20  C   UNL     1       2.262   4.545  21.121  0.00  0.00    +0.000 C 
ATOM     21  N   UNL     1       1.520   3.489  20.982  0.00  0.00    +0.000 NA
BRANCH  21  22
ATOM     22  O   UNL     1       1.514   2.777  22.189  0.00  0.00    +0.000 OA
ATOM     23  H   UNL     1       2.464   2.672  22.401  0.00  0.00    +0.000 HD
ENDBRANCH  21  22
ENDBRANCH  19  20
ENDBRANCH  13  18
ENDBRANCH   1  13
TORSDOF 7
ENDMDL
MODEL 5
REMARK VINA RESULT:      -6.7      1.921      2.586
REMARK  Name = 
REMARK  8 active torsions:
REMARK  status: ('A' for Active; 'I' for Inactive)
REMARK    1  A    between atoms: C_1  and  N_2
REMARK    2  A    between atoms: N_5  and  C_6
REMARK    3  A    between atoms: C_6  and  C_7
REMARK    4  A    between atoms: C_7  and  N_8
REMARK    5  A    between atoms: N_8  and  S_9
REMARK    6  A    between atoms: S_9  and  C_12
REMARK    7  A    between atoms: C_18  and  C_19
REMARK    8  A    between atoms: N_20  and  O_21
REMARK                            x       y       z     vdW  Elec       q    Type
REMARK                         _______ _______ _______ _____ _____    ______ ____
ROOT
ATOM      1  C   UNL     1       4.646   5.237  17.756  0.00  0.00    +0.000 C 
ENDROOT
BRANCH   1   2
ATOM      2  N   UNL     1       5.273   5.870  16.584  0.00  0.00    +0.000 NA
ATOM      3  H   UNL     1       5.213   6.889  16.489  0.00  0.00    +0.000 HD
BRANCH   2   4
ATOM      4  S   UNL     1       6.880   5.411  16.267  0.00  0.00    +0.000 S 
ATOM      5  O   UNL     1       7.648   6.633  16.325  0.00  0.00    +0.000 OA
ATOM      6  O   UNL     1       7.164   4.279  17.120  0.00  0.00    +0.000 OA
BRANCH   4   7
ATOM      7  C   UNL     1       6.822   4.872  14.581  0.00  0.00    +0.000 A 
ATOM      8  C   UNL     1       7.720   5.401  13.650  0.00  0.00    +0.000 A 
ATOM      9  C   UNL     1       7.697   4.936  12.334  0.00  0.00    +0.000 A 
ATOM     10  C   UNL     1       6.786   3.946  11.957  0.00  0.00    +0.000 A 
ATOM     11  C   UNL     1       5.899   3.414  12.892  0.00  0.00    +0.000 A 
ATOM     12  C   UNL     1       5.915   3.875  14.209  0.00  0.00    +0.000 A 
ENDBRANCH   4   7
ENDBRANCH   2   4
ENDBRANCH   1   2
BRANCH   1  13
ATOM     13  C   UNL     1       3.138   5.025  17.570  0.00  0.00    +0.000 C 
BRANCH  13  18
ATOM     14  C   UNL     1       1.451   2.652  21.613  0.00  0.00    +0.000 C 
ATOM     15  N   UNL     1       1.898   2.950  20.253  0.00  0.00    +0.000 N 
ATOM     16  C   UNL     1       1.988   2.010  19.238  0.00  0.00    +0.000 A 
ATOM     17  C   UNL     1       2.438   2.661  18.132  0.00  0.00    +0.000 A 
ATOM     18  N   UNL     1       2.619   3.986  18.489  0.00  0.00    +0.000 N 
ATOM     19  C   UNL     1       2.284   4.177  19.800  0.00  0.00    +0.000 A 
BRANCH  19  20
ATOM     20  C   UNL     1       2.327   5.376  20.541  0.00  0.00    +0.000 C 
ATOM     21  N   UNL     1       1.464   6.344  20.469  0.00  0.00    +0.000 NA
BRANCH  21  22
ATOM     22  O   UNL     1       1.840   7.354  21.365  0.00  0.00    +0.000 OA
ATOM     23  H   UNL     1       1.391   7.104  22.199  0.00  0.00    +0.000 HD
ENDBRANCH  21  22
ENDBRANCH  19  20
ENDBRANCH  13  18
ENDBRANCH   1  13
TORSDOF 7
ENDMDL
MODEL 6
REMARK VINA RESULT:      -6.7      2.907      6.510
REMARK  Name = 
REMARK  8 active torsions:
REMARK  status: ('A' for Active; 'I' for Inactive)
REMARK    1  A    between atoms: C_1  and  N_2
REMARK    2  A    between atoms: N_5  and  C_6
REMARK    3  A    between atoms: C_6  and  C_7
REMARK    4  A    between atoms: C_7  and  N_8
REMARK    5  A    between atoms: N_8  and  S_9
REMARK    6  A    between atoms: S_9  and  C_12
REMARK    7  A    between atoms: C_18  and  C_19
REMARK    8  A    between atoms: N_20  and  O_21
REMARK                            x       y       z     vdW  Elec       q    Type
REMARK                         _______ _______ _______ _____ _____    ______ ____
ROOT
ATOM      1  C   UNL     1       3.861   2.105  18.031  0.00  0.00    +0.000 C 
ENDROOT
BRANCH   1   2
ATOM      2  N   UNL     1       2.424   2.126  17.711  0.00  0.00    +0.000 NA
ATOM      3  H   UNL     1       2.012   1.301  17.265  0.00  0.00    +0.000 HD
BRANCH   2   4
ATOM      4  S   UNL     1       1.392   2.606  18.976  0.00  0.00    +0.000 S 
ATOM      5  O   UNL     1       0.053   2.468  18.453  0.00  0.00    +0.000 OA
ATOM      6  O   UNL     1       1.836   1.906  20.160  0.00  0.00    +0.000 OA
BRANCH   4   7
ATOM      7  C   UNL     1       1.744   4.332  19.152  0.00  0.00    +0.000 A 
ATOM      8  C   UNL     1       1.982   5.113  18.017  0.00  0.00    +0.000 A 
ATOM      9  C   UNL     1       2.213   6.482  18.163  0.00  0.00    +0.000 A 
ATOM     10  C   UNL     1       2.200   7.064  19.433  0.00  0.00    +0.000 A 
ATOM     11  C   UNL     1       1.952   6.283  20.562  0.00  0.00    +0.000 A 
ATOM     12  C   UNL     1       1.722   4.913  20.424  0.00  0.00    +0.000 A 
ENDBRANCH   4   7
ENDBRANCH   2   4
ENDBRANCH   1   2
BRANCH   1  13
ATOM     13  C   UNL     1       4.688   2.972  17.072  0.00  0.00    +0.000 C 
BRANCH  13  18
ATOM     14  C   UNL     1       7.829   6.664  18.221  0.00  0.00    +0.000 C 
ATOM     15  N   UNL     1       6.784   5.644  18.299  0.00  0.00    +0.000 N 
ATOM     16  C   UNL     1       6.050   5.365  19.441  0.00  0.00    +0.000 A 
ATOM     17  C   UNL     1       5.185   4.364  19.123  0.00  0.00    +0.000 A 
ATOM     18  N   UNL     1       5.407   4.046  17.795  0.00  0.00    +0.000 N 
ATOM     19  C   UNL     1       6.393   4.835  17.273  0.00  0.00    +0.000 A 
BRANCH  19  20
ATOM     20  C   UNL     1       6.911   4.824  15.961  0.00  0.00    +0.000 C 
ATOM     21  N   UNL     1       6.522   5.589  14.986  0.00  0.00    +0.000 NA
BRANCH  21  22
ATOM     22  O   UNL     1       7.281   5.290  13.846  0.00  0.00    +0.000 OA
ATOM     23  H   UNL     1       6.914   5.885  13.160  0.00  0.00    +0.000 HD
ENDBRANCH  21  22
ENDBRANCH  19  20
ENDBRANCH  13  18
ENDBRANCH   1  13
TORSDOF 7
ENDMDL
MODEL 7
REMARK VINA RESULT:      -6.7      1.868      2.758
REMARK  Name = 
REMARK  8 active torsions:
REMARK  status: ('A' for Active; 'I' for Inactive)
REMARK    1  A    between atoms: C_1  and  N_2
REMARK    2  A    between atoms: N_5  and  C_6
REMARK    3  A    between atoms: C_6  and  C_7
REMARK    4  A    between atoms: C_7  and  N_8
REMARK    5  A    between atoms: N_8  and  S_9
REMARK    6  A    between atoms: S_9  and  C_12
REMARK    7  A    between atoms: C_18  and  C_19
REMARK    8  A    between atoms: N_20  and  O_21
REMARK                            x       y       z     vdW  Elec       q    Type
REMARK                         _______ _______ _______ _____ _____    ______ ____
ROOT
ATOM      1  C   UNL     1       5.325   5.728  18.275  0.00  0.00    +0.000 C 
ENDROOT
BRANCH   1   2
ATOM      2  N   UNL     1       5.542   5.255  16.898  0.00  0.00    +0.000 NA
ATOM      3  H   UNL     1       4.938   5.620  16.156  0.00  0.00    +0.000 HD
BRANCH   2   4
ATOM      4  S   UNL     1       7.149   5.318  16.341  0.00  0.00    +0.000 S 
ATOM      5  O   UNL     1       7.505   6.718  16.351  0.00  0.00    +0.000 OA
ATOM      6  O   UNL     1       7.887   4.327  17.090  0.00  0.00    +0.000 OA
BRANCH   4   7
ATOM      7  C   UNL     1       7.012   4.793  14.655  0.00  0.00    +0.000 A 
ATOM      8  C   UNL     1       6.074   3.819  14.303  0.00  0.00    +0.000 A 
ATOM      9  C   UNL     1       5.942   3.445  12.965  0.00  0.00    +0.000 A 
ATOM     10  C   UNL     1       6.739   4.046  11.987  0.00  0.00    +0.000 A 
ATOM     11  C   UNL     1       7.667   5.026  12.341  0.00  0.00    +0.000 A 
ATOM     12  C   UNL     1       7.806   5.404  13.678  0.00  0.00    +0.000 A 
ENDBRANCH   4   7
ENDBRANCH   2   4
ENDBRANCH   1   2
BRANCH   1  13
ATOM     13  C   UNL     1       5.253   4.576  19.286  0.00  0.00    +0.000 C 
BRANCH  13  18
ATOM     14  C   UNL     1       0.654   2.700  18.899  0.00  0.00    +0.000 C 
ATOM     15  N   UNL     1       2.107   2.857  18.851  0.00  0.00    +0.000 N 
ATOM     16  C   UNL     1       2.985   1.869  18.434  0.00  0.00    +0.000 A 
ATOM     17  C   UNL     1       4.240   2.386  18.530  0.00  0.00    +0.000 A 
ATOM     18  N   UNL     1       4.108   3.679  19.006  0.00  0.00    +0.000 N 
ATOM     19  C   UNL     1       2.791   3.983  19.205  0.00  0.00    +0.000 A 
BRANCH  19  20
ATOM     20  C   UNL     1       2.241   5.192  19.679  0.00  0.00    +0.000 C 
ATOM     21  N   UNL     1       2.120   5.533  20.926  0.00  0.00    +0.000 NA
BRANCH  21  22
ATOM     22  O   UNL     1       1.541   6.807  20.994  0.00  0.00    +0.000 OA
ATOM     23  H   UNL     1       2.218   7.346  21.452  0.00  0.00    +0.000 HD
ENDBRANCH  21  22
ENDBRANCH  19  20
ENDBRANCH  13  18
ENDBRANCH   1  13
TORSDOF 7
ENDMDL
MODEL 8
REMARK VINA RESULT:      -6.7      1.300      1.750
REMARK  Name = 
REMARK  8 active torsions:
REMARK  status: ('A' for Active; 'I' for Inactive)
REMARK    1  A    between atoms: C_1  and  N_2
REMARK    2  A    between atoms: N_5  and  C_6
REMARK    3  A    between atoms: C_6  and  C_7
REMARK    4  A    between atoms: C_7  and  N_8
REMARK    5  A    between atoms: N_8  and  S_9
REMARK    6  A    between atoms: S_9  and  C_12
REMARK    7  A    between atoms: C_18  and  C_19
REMARK    8  A    between atoms: N_20  and  O_21
REMARK                            x       y       z     vdW  Elec       q    Type
REMARK                         _______ _______ _______ _____ _____    ______ ____
ROOT
ATOM      1  C   UNL     1       4.413   4.799  17.383  0.00  0.00    +0.000 C 
ENDROOT
BRANCH   1   2
ATOM      2  N   UNL     1       5.685   4.468  16.719  0.00  0.00    +0.000 NA
ATOM      3  H   UNL     1       5.762   3.569  16.234  0.00  0.00    +0.000 HD
BRANCH   2   4
ATOM      4  S   UNL     1       6.318   5.669  15.694  0.00  0.00    +0.000 S 
ATOM      5  O   UNL     1       5.270   6.654  15.561  0.00  0.00    +0.000 OA
ATOM      6  O   UNL     1       7.630   6.000  16.204  0.00  0.00    +0.000 OA
BRANCH   4   7
ATOM      7  C   UNL     1       6.490   4.829  14.145  0.00  0.00    +0.000 A 
ATOM      8  C   UNL     1       5.546   3.871  13.765  0.00  0.00    +0.000 A 
ATOM      9  C   UNL     1       5.664   3.247  12.522  0.00  0.00    +0.000 A 
ATOM     10  C   UNL     1       6.714   3.585  11.665  0.00  0.00    +0.000 A 
ATOM     11  C   UNL     1       7.648   4.550  12.044  0.00  0.00    +0.000 A 
ATOM     12  C   UNL     1       7.538   5.177  13.286  0.00  0.00    +0.000 A 
ENDBRANCH   4   7
ENDBRANCH   2   4
ENDBRANCH   1   2
BRANCH   1  13
ATOM     13  C   UNL     1       3.426   3.625  17.375  0.00  0.00    +0.000 C 
BRANCH  13  18
ATOM     14  C   UNL     1       1.548   2.478  21.845  0.00  0.00    +0.000 C 
ATOM     15  N   UNL     1       1.767   3.099  20.539  0.00  0.00    +0.000 N 
ATOM     16  C   UNL     1       0.958   4.087  20.001  0.00  0.00    +0.000 A 
ATOM     17  C   UNL     1       1.478   4.407  18.785  0.00  0.00    +0.000 A 
ATOM     18  N   UNL     1       2.593   3.608  18.600  0.00  0.00    +0.000 N 
ATOM     19  C   UNL     1       2.784   2.797  19.682  0.00  0.00    +0.000 A 
BRANCH  19  20
ATOM     20  C   UNL     1       3.802   1.842  19.883  0.00  0.00    +0.000 C 
ATOM     21  N   UNL     1       4.905   2.037  20.541  0.00  0.00    +0.000 NA
BRANCH  21  22
ATOM     22  O   UNL     1       5.654   0.852  20.531  0.00  0.00    +0.000 OA
ATOM     23  H   UNL     1       5.642   0.562  21.466  0.00  0.00    +0.000 HD
ENDBRANCH  21  22
ENDBRANCH  19  20
ENDBRANCH  13  18
ENDBRANCH   1  13
TORSDOF 7
ENDMDL
MODEL 9
REMARK VINA RESULT:      -6.6      1.642      1.790
REMARK  Name = 
REMARK  8 active torsions:
REMARK  status: ('A' for Active; 'I' for Inactive)
REMARK    1  A    between atoms: C_1  and  N_2
REMARK    2  A    between atoms: N_5  and  C_6
REMARK    3  A    between atoms: C_6  and  C_7
REMARK    4  A    between atoms: C_7  and  N_8
REMARK    5  A    between atoms: N_8  and  S_9
REMARK    6  A    between atoms: S_9  and  C_12
REMARK    7  A    between atoms: C_18  and  C_19
REMARK    8  A    between atoms: N_20  and  O_21
REMARK                            x       y       z     vdW  Elec       q    Type
REMARK                         _______ _______ _______ _____ _____    ______ ____
ROOT
ATOM      1  C   UNL     1       5.180   5.865  18.462  0.00  0.00    +0.000 C 
ENDROOT
BRANCH   1   2
ATOM      2  N   UNL     1       6.124   4.739  18.363  0.00  0.00    +0.000 NA
ATOM      3  H   UNL     1       5.753   3.809  18.148  0.00  0.00    +0.000 HD
BRANCH   2   4
ATOM      4  S   UNL     1       7.482   5.000  17.371  0.00  0.00    +0.000 S 
ATOM      5  O   UNL     1       7.735   6.421  17.430  0.00  0.00    +0.000 OA
ATOM      6  O   UNL     1       8.473   4.023  17.760  0.00  0.00    +0.000 OA
BRANCH   4   7
ATOM      7  C   UNL     1       6.881   4.610  15.752  0.00  0.00    +0.000 A 
ATOM      8  C   UNL     1       7.531   5.124  14.626  0.00  0.00    +0.000 A 
ATOM      9  C   UNL     1       7.077   4.774  13.353  0.00  0.00    +0.000 A 
ATOM     10  C   UNL     1       5.987   3.913  13.210  0.00  0.00    +0.000 A 
ATOM     11  C   UNL     1       5.348   3.394  14.336  0.00  0.00    +0.000 A 
ATOM     12  C   UNL     1       5.794   3.741  15.612  0.00  0.00    +0.000 A 
ENDBRANCH   4   7
ENDBRANCH   2   4
ENDBRANCH   1   2
BRANCH   1  13
ATOM     13  C   UNL     1       4.119   5.644  19.549  0.00  0.00    +0.000 C 
BRANCH  13  18
ATOM     14  C   UNL     1       1.248   1.641  18.801  0.00  0.00    +0.000 C 
ATOM     15  N   UNL     1       1.802   2.993  18.744  0.00  0.00    +0.000 N 
ATOM     16  C   UNL     1       1.286   4.014  17.961  0.00  0.00    +0.000 A 
ATOM     17  C   UNL     1       2.065   5.110  18.175  0.00  0.00    +0.000 A 
ATOM     18  N   UNL     1       3.043   4.739  19.081  0.00  0.00    +0.000 N 
ATOM     19  C   UNL     1       2.888   3.431  19.443  0.00  0.00    +0.000 A 
BRANCH  19  20
ATOM     20  C   UNL     1       3.676   2.679  20.340  0.00  0.00    +0.000 C 
ATOM     21  N   UNL     1       4.848   2.181  20.085  0.00  0.00    +0.000 NA
BRANCH  21  22
ATOM     22  O   UNL     1       5.313   1.513  21.226  0.00  0.00    +0.000 OA
ATOM     23  H   UNL     1       5.433   2.229  21.882  0.00  0.00    +0.000 HD
ENDBRANCH  21  22
ENDBRANCH  19  20
ENDBRANCH  13  18
ENDBRANCH   1  13
TORSDOF 7
ENDMDL
