MODEL 1
REMARK VINA RESULT:      -6.9      0.000      0.000
REMARK  Name = 
REMARK  4 active torsions:
REMARK  status: ('A' for Active; 'I' for Inactive)
REMARK    1  A    between atoms: C_1  and  N_2
REMARK    2  A    between atoms: C_4  and  C_5
REMARK    3  A    between atoms: C_11  and  N_12
REMARK    4  A    between atoms: C_13  and  C_15
REMARK                            x       y       z     vdW  Elec       q    Type
REMARK                         _______ _______ _______ _____ _____    ______ ____
ROOT
ATOM      1  C   UNL     1       7.291   5.490  18.872  0.00  0.00    +0.000 C 
ATOM      2  N   UNL     1       6.006   4.852  18.687  0.00  0.00    +0.000 N 
ATOM      3  N   UNL     1       5.190   4.860  19.759  0.00  0.00    +0.000 NA
ATOM      4  C   UNL     1       4.079   4.244  19.358  0.00  0.00    +0.000 A 
ATOM      5  C   UNL     1       4.196   3.846  17.998  0.00  0.00    +0.000 A 
ATOM      6  C   UNL     1       5.428   4.274  17.565  0.00  0.00    +0.000 A 
ENDROOT
BRANCH   4   7
ATOM      7  C   UNL     1       2.939   4.079  20.307  0.00  0.00    +0.000 C 
ATOM      8  C   UNL     1       1.576   3.986  19.625  0.00  0.00    +0.000 C 
ATOM      9  C   UNL     1       0.663   3.430  20.708  0.00  0.00    +0.000 C 
ATOM     10  C   UNL     1       1.552   2.578  21.612  0.00  0.00    +0.000 C 
ATOM     11  C   UNL     1       2.992   2.810  21.153  0.00  0.00    +0.000 C 
ENDBRANCH   4   7
BRANCH   6  12
ATOM     12  N   UNL     1       5.929   4.106  16.264  0.00  0.00    +0.000 N 
ATOM     13  C   UNL     1       6.011   5.219  15.321  0.00  0.00    +0.000 C 
ATOM     14  O   UNL     1       5.672   6.352  15.593  0.00  0.00    +0.000 OA
ATOM     15  H   UNL     1       6.291   3.204  15.964  0.00  0.00    +0.000 HD
BRANCH  13  16
ATOM     16  C   UNL     1       6.610   4.811  14.062  0.00  0.00    +0.000 A 
ATOM     17  C   UNL     1       6.225   3.689  13.323  0.00  0.00    +0.000 A 
ATOM     18  S   UNL     1       7.136   3.699  11.867  0.00  0.00    +0.000 S 
ATOM     19  N   UNL     1       7.966   5.082  12.290  0.00  0.00    +0.000 NA
ATOM     20  N   UNL     1       7.612   5.569  13.470  0.00  0.00    +0.000 NA
ENDBRANCH  13  16
ENDBRANCH   6  12
TORSDOF 3
ENDMDL
MODEL 2
REMARK VINA RESULT:      -6.9      4.982      7.819
REMARK  Name = 
REMARK  4 active torsions:
REMARK  status: ('A' for Active; 'I' for Inactive)
REMARK    1  A    between atoms: C_1  and  N_2
REMARK    2  A    between atoms: C_4  and  C_5
REMARK    3  A    between atoms: C_11  and  N_12
REMARK    4  A    between atoms: C_13  and  C_15
REMARK                            x       y       z     vdW  Elec       q    Type
REMARK                         _______ _______ _______ _____ _____    ______ ____
ROOT
ATOM      1  C   UNL     1       0.823   3.819  20.105  0.00  0.00    +0.000 C 
ATOM      2  N   UNL     1       2.064   4.473  19.751  0.00  0.00    +0.000 N 
ATOM      3  N   UNL     1       2.892   3.763  18.960  0.00  0.00    +0.000 NA
ATOM      4  C   UNL     1       3.944   4.555  18.754  0.00  0.00    +0.000 A 
ATOM      5  C   UNL     1       3.769   5.795  19.425  0.00  0.00    +0.000 A 
ATOM      6  C   UNL     1       2.539   5.746  20.035  0.00  0.00    +0.000 A 
ENDROOT
BRANCH   4   7
ATOM      7  C   UNL     1       5.073   4.082  17.900  0.00  0.00    +0.000 C 
ATOM      8  C   UNL     1       4.811   4.212  16.402  0.00  0.00    +0.000 C 
ATOM      9  C   UNL     1       6.190   4.067  15.776  0.00  0.00    +0.000 C 
ATOM     10  C   UNL     1       7.181   4.589  16.815  0.00  0.00    +0.000 C 
ATOM     11  C   UNL     1       6.382   4.844  18.093  0.00  0.00    +0.000 C 
ENDBRANCH   4   7
BRANCH   6  12
ATOM     12  N   UNL     1       1.966   6.786  20.783  0.00  0.00    +0.000 N 
ATOM     13  C   UNL     1       1.642   8.079  20.183  0.00  0.00    +0.000 C 
ATOM     14  O   UNL     1       1.827   8.337  19.012  0.00  0.00    +0.000 OA
ATOM     15  H   UNL     1       1.721   6.644  21.760  0.00  0.00    +0.000 HD
BRANCH  13  16
ATOM     16  C   UNL     1       1.012   8.971  21.140  0.00  0.00    +0.000 A 
ATOM     17  C   UNL     1      -0.045   9.838  20.846  0.00  0.00    +0.000 A 
ATOM     18  S   UNL     1      -0.517  10.585  22.320  0.00  0.00    +0.000 S 
ATOM     19  N   UNL     1       0.659   9.796  23.201  0.00  0.00    +0.000 NA
ATOM     20  N   UNL     1       1.408   8.983  22.472  0.00  0.00    +0.000 NA
ENDBRANCH  13  16
ENDBRANCH   6  12
TORSDOF 3
ENDMDL
MODEL 3
REMARK VINA RESULT:      -6.8      5.174      8.092
REMARK  Name = 
REMARK  4 active torsions:
REMARK  status: ('A' for Active; 'I' for Inactive)
REMARK    1  A    between atoms: C_1  and  N_2
REMARK    2  A    between atoms: C_4  and  C_5
REMARK    3  A    between atoms: C_11  and  N_12
REMARK    4  A    between atoms: C_13  and  C_15
REMARK                            x       y       z     vdW  Elec       q    Type
REMARK                         _______ _______ _______ _____ _____    ______ ____
ROOT
ATOM      1  C   UNL     1       1.094   4.074  19.915  0.00  0.00    +0.000 C 
ATOM      2  N   UNL     1       2.192   4.913  19.487  0.00  0.00    +0.000 N 
ATOM      3  N   UNL     1       3.003   4.380  18.553  0.00  0.00    +0.000 NA
ATOM      4  C   UNL     1       3.915   5.319  18.304  0.00  0.00    +0.000 A 
ATOM      5  C   UNL     1       3.667   6.473  19.097  0.00  0.00    +0.000 A 
ATOM      6  C   UNL     1       2.534   6.214  19.829  0.00  0.00    +0.000 A 
ENDROOT
BRANCH   4   7
ATOM      7  C   UNL     1       4.985   5.066  17.295  0.00  0.00    +0.000 C 
ATOM      8  C   UNL     1       4.835   3.740  16.555  0.00  0.00    +0.000 C 
ATOM      9  C   UNL     1       5.752   3.887  15.350  0.00  0.00    +0.000 C 
ATOM     10  C   UNL     1       5.788   5.380  15.029  0.00  0.00    +0.000 C 
ATOM     11  C   UNL     1       5.051   6.090  16.164  0.00  0.00    +0.000 C 
ENDBRANCH   4   7
BRANCH   6  12
ATOM     12  N   UNL     1       1.928   7.111  20.723  0.00  0.00    +0.000 N 
ATOM     13  C   UNL     1       1.454   8.425  20.294  0.00  0.00    +0.000 C 
ATOM     14  O   UNL     1       1.535   8.823  19.151  0.00  0.00    +0.000 OA
ATOM     15  H   UNL     1       1.765   6.842  21.691  0.00  0.00    +0.000 HD
BRANCH  13  16
ATOM     16  C   UNL     1       0.819   9.147  21.382  0.00  0.00    +0.000 A 
ATOM     17  C   UNL     1      -0.376   9.864  21.272  0.00  0.00    +0.000 A 
ATOM     18  S   UNL     1      -0.777  10.432  22.843  0.00  0.00    +0.000 S 
ATOM     19  N   UNL     1       0.591   9.770  23.530  0.00  0.00    +0.000 NA
ATOM     20  N   UNL     1       1.359   9.129  22.662  0.00  0.00    +0.000 NA
ENDBRANCH  13  16
ENDBRANCH   6  12
TORSDOF 3
ENDMDL
MODEL 4
REMARK VINA RESULT:      -6.8      4.030      7.206
REMARK  Name = 
REMARK  4 active torsions:
REMARK  status: ('A' for Active; 'I' for Inactive)
REMARK    1  A    between atoms: C_1  and  N_2
REMARK    2  A    between atoms: C_4  and  C_5
REMARK    3  A    between atoms: C_11  and  N_12
REMARK    4  A    between atoms: C_13  and  C_15
REMARK                            x       y       z     vdW  Elec       q    Type
REMARK                         _______ _______ _______ _____ _____    ______ ____
ROOT
ATOM      1  C   UNL     1       6.047   5.094  19.041  0.00  0.00    +0.000 C 
ATOM      2  N   UNL     1       5.813   5.349  17.636  0.00  0.00    +0.000 N 
ATOM      3  N   UNL     1       6.464   4.538  16.780  0.00  0.00    +0.000 NA
ATOM      4  C   UNL     1       6.091   4.940  15.565  0.00  0.00    +0.000 A 
ATOM      5  C   UNL     1       5.177   6.025  15.661  0.00  0.00    +0.000 A 
ATOM      6  C   UNL     1       4.977   6.257  17.000  0.00  0.00    +0.000 A 
ENDROOT
BRANCH   4   7
ATOM      7  C   UNL     1       6.624   4.245  14.357  0.00  0.00    +0.000 C 
ATOM      8  C   UNL     1       5.543   3.663  13.451  0.00  0.00    +0.000 C 
ATOM      9  C   UNL     1       6.271   3.385  12.144  0.00  0.00    +0.000 C 
ATOM     10  C   UNL     1       7.402   4.410  12.066  0.00  0.00    +0.000 C 
ATOM     11  C   UNL     1       7.429   5.134  13.413  0.00  0.00    +0.000 C 
ENDBRANCH   4   7
BRANCH   6  12
ATOM     12  N   UNL     1       4.118   7.232  17.531  0.00  0.00    +0.000 N 
ATOM     13  C   UNL     1       2.814   6.886  18.094  0.00  0.00    +0.000 C 
ATOM     14  O   UNL     1       2.394   5.750  18.156  0.00  0.00    +0.000 OA
ATOM     15  H   UNL     1       4.409   8.206  17.575  0.00  0.00    +0.000 HD
BRANCH  13  16
ATOM     16  C   UNL     1       2.134   8.054  18.627  0.00  0.00    +0.000 A 
ATOM     17  C   UNL     1       1.740   9.161  17.869  0.00  0.00    +0.000 A 
ATOM     18  S   UNL     1       0.875  10.213  18.915  0.00  0.00    +0.000 S 
ATOM     19  N   UNL     1       1.094   9.224  20.240  0.00  0.00    +0.000 NA
ATOM     20  N   UNL     1       1.780   8.124  19.968  0.00  0.00    +0.000 NA
ENDBRANCH  13  16
ENDBRANCH   6  12
TORSDOF 3
ENDMDL
MODEL 5
REMARK VINA RESULT:      -6.7      3.937      7.138
REMARK  Name = 
REMARK  4 active torsions:
REMARK  status: ('A' for Active; 'I' for Inactive)
REMARK    1  A    between atoms: C_1  and  N_2
REMARK    2  A    between atoms: C_4  and  C_5
REMARK    3  A    between atoms: C_11  and  N_12
REMARK    4  A    between atoms: C_13  and  C_15
REMARK                            x       y       z     vdW  Elec       q    Type
REMARK                         _______ _______ _______ _____ _____    ______ ____
ROOT
ATOM      1  C   UNL     1       7.371   5.791  18.701  0.00  0.00    +0.000 C 
ATOM      2  N   UNL     1       6.687   5.693  17.430  0.00  0.00    +0.000 N 
ATOM      3  N   UNL     1       7.309   4.960  16.487  0.00  0.00    +0.000 NA
ATOM      4  C   UNL     1       6.503   4.995  15.427  0.00  0.00    +0.000 A 
ATOM      5  C   UNL     1       5.342   5.764  15.713  0.00  0.00    +0.000 A 
ATOM      6  C   UNL     1       5.454   6.179  17.018  0.00  0.00    +0.000 A 
ENDROOT
BRANCH   4   7
ATOM      7  C   UNL     1       6.884   4.268  14.181  0.00  0.00    +0.000 C 
ATOM      8  C   UNL     1       5.698   3.672  13.426  0.00  0.00    +0.000 C 
ATOM      9  C   UNL     1       6.262   3.359  12.048  0.00  0.00    +0.000 C 
ATOM     10  C   UNL     1       7.378   4.374  11.809  0.00  0.00    +0.000 C 
ATOM     11  C   UNL     1       7.571   5.130  13.124  0.00  0.00    +0.000 C 
ENDBRANCH   4   7
BRANCH   6  12
ATOM     12  N   UNL     1       4.498   6.944  17.706  0.00  0.00    +0.000 N 
ATOM     13  C   UNL     1       3.197   6.396  18.082  0.00  0.00    +0.000 C 
ATOM     14  O   UNL     1       2.859   5.255  17.843  0.00  0.00    +0.000 OA
ATOM     15  H   UNL     1       4.714   7.895  18.000  0.00  0.00    +0.000 HD
BRANCH  13  16
ATOM     16  C   UNL     1       2.406   7.358  18.829  0.00  0.00    +0.000 A 
ATOM     17  C   UNL     1       2.049   7.222  20.174  0.00  0.00    +0.000 A 
ATOM     18  S   UNL     1       1.228   8.660  20.631  0.00  0.00    +0.000 S 
ATOM     19  N   UNL     1       1.349   9.322  19.105  0.00  0.00    +0.000 NA
ATOM     20  N   UNL     1       1.978   8.541  18.241  0.00  0.00    +0.000 NA
ENDBRANCH  13  16
ENDBRANCH   6  12
TORSDOF 3
ENDMDL
MODEL 6
REMARK VINA RESULT:      -6.7      1.577      1.693
REMARK  Name = 
REMARK  4 active torsions:
REMARK  status: ('A' for Active; 'I' for Inactive)
REMARK    1  A    between atoms: C_1  and  N_2
REMARK    2  A    between atoms: C_4  and  C_5
REMARK    3  A    between atoms: C_11  and  N_12
REMARK    4  A    between atoms: C_13  and  C_15
REMARK                            x       y       z     vdW  Elec       q    Type
REMARK                         _______ _______ _______ _____ _____    ______ ____
ROOT
ATOM      1  C   UNL     1       3.492   7.716  17.377  0.00  0.00    +0.000 C 
ATOM      2  N   UNL     1       3.672   6.356  17.837  0.00  0.00    +0.000 N 
ATOM      3  N   UNL     1       3.095   6.059  19.018  0.00  0.00    +0.000 NA
ATOM      4  C   UNL     1       3.373   4.773  19.229  0.00  0.00    +0.000 A 
ATOM      5  C   UNL     1       4.136   4.247  18.151  0.00  0.00    +0.000 A 
ATOM      6  C   UNL     1       4.292   5.267  17.242  0.00  0.00    +0.000 A 
ENDROOT
BRANCH   4   7
ATOM      7  C   UNL     1       2.873   4.099  20.463  0.00  0.00    +0.000 C 
ATOM      8  C   UNL     1       1.357   3.935  20.506  0.00  0.00    +0.000 C 
ATOM      9  C   UNL     1       1.131   2.904  21.603  0.00  0.00    +0.000 C 
ATOM     10  C   UNL     1       2.379   2.022  21.614  0.00  0.00    +0.000 C 
ATOM     11  C   UNL     1       3.383   2.674  20.662  0.00  0.00    +0.000 C 
ENDBRANCH   4   7
BRANCH   6  12
ATOM     12  N   UNL     1       4.965   5.158  16.015  0.00  0.00    +0.000 N 
ATOM     13  C   UNL     1       6.384   4.814  15.942  0.00  0.00    +0.000 C 
ATOM     14  O   UNL     1       7.067   4.587  16.918  0.00  0.00    +0.000 OA
ATOM     15  H   UNL     1       4.461   5.274  15.139  0.00  0.00    +0.000 HD
BRANCH  13  16
ATOM     16  C   UNL     1       6.839   4.710  14.567  0.00  0.00    +0.000 A 
ATOM     17  C   UNL     1       6.285   3.858  13.606  0.00  0.00    +0.000 A 
ATOM     18  S   UNL     1       7.077   4.185  12.117  0.00  0.00    +0.000 S 
ATOM     19  N   UNL     1       8.074   5.336  12.796  0.00  0.00    +0.000 NA
ATOM     20  N   UNL     1       7.864   5.517  14.091  0.00  0.00    +0.000 NA
ENDBRANCH  13  16
ENDBRANCH   6  12
TORSDOF 3
ENDMDL
MODEL 7
REMARK VINA RESULT:      -6.6      3.593      4.224
REMARK  Name = 
REMARK  4 active torsions:
REMARK  status: ('A' for Active; 'I' for Inactive)
REMARK    1  A    between atoms: C_1  and  N_2
REMARK    2  A    between atoms: C_4  and  C_5
REMARK    3  A    between atoms: C_11  and  N_12
REMARK    4  A    between atoms: C_13  and  C_15
REMARK                            x       y       z     vdW  Elec       q    Type
REMARK                         _______ _______ _______ _____ _____    ______ ____
ROOT
ATOM      1  C   UNL     1       2.744   4.102  20.094  0.00  0.00    +0.000 C 
ATOM      2  N   UNL     1       2.549   5.500  19.777  0.00  0.00    +0.000 N 
ATOM      3  N   UNL     1       1.802   6.199  20.653  0.00  0.00    +0.000 NA
ATOM      4  C   UNL     1       1.772   7.442  20.176  0.00  0.00    +0.000 A 
ATOM      5  C   UNL     1       2.526   7.530  18.974  0.00  0.00    +0.000 A 
ATOM      6  C   UNL     1       3.052   6.281  18.745  0.00  0.00    +0.000 A 
ENDROOT
BRANCH   4   7
ATOM      7  C   UNL     1       1.025   8.503  20.914  0.00  0.00    +0.000 C 
ATOM      8  C   UNL     1      -0.356   8.065  21.395  0.00  0.00    +0.000 C 
ATOM      9  C   UNL     1      -0.735   9.117  22.426  0.00  0.00    +0.000 C 
ATOM     10  C   UNL     1       0.581   9.615  23.022  0.00  0.00    +0.000 C 
ATOM     11  C   UNL     1       1.702   8.987  22.194  0.00  0.00    +0.000 C 
ENDBRANCH   4   7
BRANCH   6  12
ATOM     12  N   UNL     1       3.887   5.942  17.669  0.00  0.00    +0.000 N 
ATOM     13  C   UNL     1       5.286   5.570  17.867  0.00  0.00    +0.000 C 
ATOM     14  O   UNL     1       5.815   5.513  18.958  0.00  0.00    +0.000 OA
ATOM     15  H   UNL     1       3.517   5.905  16.721  0.00  0.00    +0.000 HD
BRANCH  13  16
ATOM     16  C   UNL     1       5.928   5.211  16.614  0.00  0.00    +0.000 A 
ATOM     17  C   UNL     1       5.401   4.318  15.676  0.00  0.00    +0.000 A 
ATOM     18  S   UNL     1       6.457   4.320  14.321  0.00  0.00    +0.000 S 
ATOM     19  N   UNL     1       7.508   5.406  15.027  0.00  0.00    +0.000 NA
ATOM     20  N   UNL     1       7.130   5.794  16.235  0.00  0.00    +0.000 NA
ENDBRANCH  13  16
ENDBRANCH   6  12
TORSDOF 3
ENDMDL
MODEL 8
REMARK VINA RESULT:      -6.6      3.950      4.481
REMARK  Name = 
REMARK  4 active torsions:
REMARK  status: ('A' for Active; 'I' for Inactive)
REMARK    1  A    between atoms: C_1  and  N_2
REMARK    2  A    between atoms: C_4  and  C_5
REMARK    3  A    between atoms: C_11  and  N_12
REMARK    4  A    between atoms: C_13  and  C_15
REMARK                            x       y       z     vdW  Elec       q    Type
REMARK                         _______ _______ _______ _____ _____    ______ ____
ROOT
ATOM      1  C   UNL     1       3.006   4.940  19.900  0.00  0.00    +0.000 C 
ATOM      2  N   UNL     1       2.765   6.243  19.319  0.00  0.00    +0.000 N 
ATOM      3  N   UNL     1       2.039   7.092  20.072  0.00  0.00    +0.000 NA
ATOM      4  C   UNL     1       1.960   8.213  19.357  0.00  0.00    +0.000 A 
ATOM      5  C   UNL     1       2.659   8.068  18.128  0.00  0.00    +0.000 A 
ATOM      6  C   UNL     1       3.205   6.807  18.129  0.00  0.00    +0.000 A 
ENDROOT
BRANCH   4   7
ATOM      7  C   UNL     1       1.220   9.389  19.901  0.00  0.00    +0.000 C 
ATOM      8  C   UNL     1       0.105   9.894  18.989  0.00  0.00    +0.000 C 
ATOM      9  C   UNL     1      -0.733  10.784  19.895  0.00  0.00    +0.000 C 
ATOM     10  C   UNL     1      -0.576  10.217  21.305  0.00  0.00    +0.000 C 
ATOM     11  C   UNL     1       0.499   9.133  21.223  0.00  0.00    +0.000 C 
ENDBRANCH   4   7
BRANCH   6  12
ATOM     12  N   UNL     1       4.001   6.271  17.105  0.00  0.00    +0.000 N 
ATOM     13  C   UNL     1       5.419   5.978  17.304  0.00  0.00    +0.000 C 
ATOM     14  O   UNL     1       5.997   6.160  18.356  0.00  0.00    +0.000 OA
ATOM     15  H   UNL     1       3.591   6.031  16.205  0.00  0.00    +0.000 HD
BRANCH  13  16
ATOM     16  C   UNL     1       6.015   5.383  16.121  0.00  0.00    +0.000 A 
ATOM     17  C   UNL     1       5.408   4.401  15.332  0.00  0.00    +0.000 A 
ATOM     18  S   UNL     1       6.444   4.111  13.992  0.00  0.00    +0.000 S 
ATOM     19  N   UNL     1       7.585   5.206  14.523  0.00  0.00    +0.000 NA
ATOM     20  N   UNL     1       7.254   5.803  15.657  0.00  0.00    +0.000 NA
ENDBRANCH  13  16
ENDBRANCH   6  12
TORSDOF 3
ENDMDL
MODEL 9
REMARK VINA RESULT:      -6.6      5.382      8.159
REMARK  Name = 
REMARK  4 active torsions:
REMARK  status: ('A' for Active; 'I' for Inactive)
REMARK    1  A    between atoms: C_1  and  N_2
REMARK    2  A    between atoms: C_4  and  C_5
REMARK    3  A    between atoms: C_11  and  N_12
REMARK    4  A    between atoms: C_13  and  C_15
REMARK                            x       y       z     vdW  Elec       q    Type
REMARK                         _______ _______ _______ _____ _____    ______ ____
ROOT
ATOM      1  C   UNL     1       1.763   4.168  20.998  0.00  0.00    +0.000 C 
ATOM      2  N   UNL     1       2.333   5.072  20.023  0.00  0.00    +0.000 N 
ATOM      3  N   UNL     1       2.959   4.489  18.983  0.00  0.00    +0.000 NA
ATOM      4  C   UNL     1       3.382   5.495  18.219  0.00  0.00    +0.000 A 
ATOM      5  C   UNL     1       3.006   6.742  18.789  0.00  0.00    +0.000 A 
ATOM      6  C   UNL     1       2.299   6.457  19.933  0.00  0.00    +0.000 A 
ENDROOT
BRANCH   4   7
ATOM      7  C   UNL     1       4.123   5.208  16.956  0.00  0.00    +0.000 C 
ATOM      8  C   UNL     1       5.152   6.272  16.588  0.00  0.00    +0.000 C 
ATOM      9  C   UNL     1       6.027   5.591  15.545  0.00  0.00    +0.000 C 
ATOM     10  C   UNL     1       5.989   4.100  15.875  0.00  0.00    +0.000 C 
ATOM     11  C   UNL     1       4.945   3.921  16.977  0.00  0.00    +0.000 C 
ENDBRANCH   4   7
BRANCH   6  12
ATOM     12  N   UNL     1       1.720   7.412  20.783  0.00  0.00    +0.000 N 
ATOM     13  C   UNL     1       1.229   8.694  20.281  0.00  0.00    +0.000 C 
ATOM     14  O   UNL     1       1.270   9.013  19.111  0.00  0.00    +0.000 OA
ATOM     15  H   UNL     1       1.590   7.211  21.772  0.00  0.00    +0.000 HD
BRANCH  13  16
ATOM     16  C   UNL     1       0.628   9.488  21.338  0.00  0.00    +0.000 A 
ATOM     17  C   UNL     1      -0.367  10.451  21.144  0.00  0.00    +0.000 A 
ATOM     18  S   UNL     1      -0.834  11.023  22.695  0.00  0.00    +0.000 S 
ATOM     19  N   UNL     1       0.269  10.052  23.484  0.00  0.00    +0.000 NA
ATOM     20  N   UNL     1       0.987   9.298  22.666  0.00  0.00    +0.000 NA
ENDBRANCH  13  16
ENDBRANCH   6  12
TORSDOF 3
ENDMDL
