MODEL 1
REMARK VINA RESULT:      -9.6      0.000      0.000
REMARK  Name = 
REMARK  3 active torsions:
REMARK  status: ('A' for Active; 'I' for Inactive)
REMARK    1  A    between atoms: C_2  and  C_3
REMARK    2  A    between atoms: C_2  and  C_12
REMARK    3  A    between atoms: N_16  and  C_17
REMARK                            x       y       z     vdW  Elec       q    Type
REMARK                         _______ _______ _______ _____ _____    ______ ____
ROOT
ATOM      1  C   UNL     1       5.463   4.681  18.592  0.00  0.00    +0.000 A 
ATOM      2  C   UNL     1       4.786   5.804  19.040  0.00  0.00    +0.000 A 
ATOM      3  C   UNL     1       3.482   5.504  19.564  0.00  0.00    +0.000 A 
ATOM      4  C   UNL     1       2.423   6.304  20.041  0.00  0.00    +0.000 A 
ATOM      5  N   UNL     1       2.503   7.702  20.112  0.00  0.00    +0.000 N 
ATOM      6  N   UNL     1       1.288   5.683  20.442  0.00  0.00    +0.000 NA
ATOM      7  C   UNL     1       1.203   4.348  20.369  0.00  0.00    +0.000 A 
ATOM      8  N   UNL     1       2.133   3.505  19.921  0.00  0.00    +0.000 NA
ATOM      9  C   UNL     1       3.246   4.139  19.523  0.00  0.00    +0.000 A 
ATOM     10  S   UNL     1       4.543   3.262  18.863  0.00  0.00    +0.000 S 
ATOM     11  H   UNL     1       3.422   8.101  19.977  0.00  0.00    +0.000 HD
ENDROOT
BRANCH   5  12
ATOM     12  C   UNL     1       1.447   8.629  20.006  0.00  0.00    +0.000 A 
ATOM     13  C   UNL     1       1.020   9.050  18.740  0.00  0.00    +0.000 A 
ATOM     14  C   UNL     1       0.019  10.020  18.610  0.00  0.00    +0.000 A 
ATOM     15  C   UNL     1      -0.571  10.576  19.744  0.00  0.00    +0.000 A 
ATOM     16  C   UNL     1      -0.155  10.161  21.006  0.00  0.00    +0.000 A 
ATOM     17  I   UNL     1      -1.025  10.970  22.712  0.00  0.00    +0.000 I 
ATOM     18  C   UNL     1       0.850   9.203  21.136  0.00  0.00    +0.000 A 
ENDBRANCH   5  12
BRANCH   1  20
ATOM     19  O   UNL     1       7.824   4.558  18.475  0.00  0.00    +0.000 OA
ATOM     20  C   UNL     1       6.739   4.561  17.899  0.00  0.00    +0.000 C 
BRANCH  20  21
ATOM     21  C   UNL     1       6.668   4.374  16.462  0.00  0.00    +0.000 A 
ATOM     22  C   UNL     1       5.788   3.675  15.652  0.00  0.00    +0.000 A 
ATOM     23  C   UNL     1       6.146   3.910  14.295  0.00  0.00    +0.000 A 
ATOM     24  C   UNL     1       5.609   3.508  13.057  0.00  0.00    +0.000 A 
ATOM     25  C   UNL     1       6.210   3.957  11.875  0.00  0.00    +0.000 A 
ATOM     26  C   UNL     1       7.336   4.777  11.915  0.00  0.00    +0.000 A 
ATOM     27  C   UNL     1       7.889   5.183  13.134  0.00  0.00    +0.000 A 
ATOM     28  C   UNL     1       7.262   4.742  14.304  0.00  0.00    +0.000 A 
ATOM     29  N   UNL     1       7.547   5.018  15.618  0.00  0.00    +0.000 N 
ATOM     30  H   UNL     1       8.285   5.634  15.936  0.00  0.00    +0.000 HD
ENDBRANCH  20  21
ENDBRANCH   1  20
TORSDOF 3
ENDMDL
MODEL 2
REMARK VINA RESULT:      -9.3      1.008      1.392
REMARK  Name = 
REMARK  3 active torsions:
REMARK  status: ('A' for Active; 'I' for Inactive)
REMARK    1  A    between atoms: C_2  and  C_3
REMARK    2  A    between atoms: C_2  and  C_12
REMARK    3  A    between atoms: N_16  and  C_17
REMARK                            x       y       z     vdW  Elec       q    Type
REMARK                         _______ _______ _______ _____ _____    ______ ____
ROOT
ATOM      1  C   UNL     1       5.286   4.658  18.609  0.00  0.00    +0.000 A 
ATOM      2  C   UNL     1       4.647   5.671  19.306  0.00  0.00    +0.000 A 
ATOM      3  C   UNL     1       3.308   5.327  19.698  0.00  0.00    +0.000 A 
ATOM      4  C   UNL     1       2.270   6.044  20.329  0.00  0.00    +0.000 A 
ATOM      5  N   UNL     1       2.417   7.372  20.754  0.00  0.00    +0.000 N 
ATOM      6  N   UNL     1       1.089   5.410  20.526  0.00  0.00    +0.000 NA
ATOM      7  C   UNL     1       0.941   4.144  20.116  0.00  0.00    +0.000 A 
ATOM      8  N   UNL     1       1.846   3.387  19.497  0.00  0.00    +0.000 NA
ATOM      9  C   UNL     1       3.006   4.033  19.306  0.00  0.00    +0.000 A 
ATOM     10  S   UNL     1       4.285   3.274  18.485  0.00  0.00    +0.000 S 
ATOM     11  H   UNL     1       3.359   7.737  20.752  0.00  0.00    +0.000 HD
ENDROOT
BRANCH   5  12
ATOM     12  C   UNL     1       1.414   8.357  20.854  0.00  0.00    +0.000 A 
ATOM     13  C   UNL     1       0.977   8.774  22.118  0.00  0.00    +0.000 A 
ATOM     14  C   UNL     1      -0.065   9.700  22.245  0.00  0.00    +0.000 A 
ATOM     15  C   UNL     1      -0.678  10.226  21.108  0.00  0.00    +0.000 A 
ATOM     16  C   UNL     1      -0.248   9.820  19.849  0.00  0.00    +0.000 A 
ATOM     17  I   UNL     1      -1.142  10.595  18.139  0.00  0.00    +0.000 I 
ATOM     18  C   UNL     1       0.782   8.889  19.723  0.00  0.00    +0.000 A 
ENDBRANCH   5  12
BRANCH   1  20
ATOM     19  O   UNL     1       7.651   4.740  18.547  0.00  0.00    +0.000 OA
ATOM     20  C   UNL     1       6.584   4.641  17.947  0.00  0.00    +0.000 C 
BRANCH  20  21
ATOM     21  C   UNL     1       6.563   4.427  16.512  0.00  0.00    +0.000 A 
ATOM     22  C   UNL     1       5.728   3.692  15.687  0.00  0.00    +0.000 A 
ATOM     23  C   UNL     1       6.123   3.912  14.338  0.00  0.00    +0.000 A 
ATOM     24  C   UNL     1       5.636   3.477  13.091  0.00  0.00    +0.000 A 
ATOM     25  C   UNL     1       6.264   3.920  11.921  0.00  0.00    +0.000 A 
ATOM     26  C   UNL     1       7.367   4.768  11.982  0.00  0.00    +0.000 A 
ATOM     27  C   UNL     1       7.870   5.209  13.210  0.00  0.00    +0.000 A 
ATOM     28  C   UNL     1       7.217   4.772  14.367  0.00  0.00    +0.000 A 
ATOM     29  N   UNL     1       7.453   5.079  15.684  0.00  0.00    +0.000 N 
ATOM     30  H   UNL     1       8.166   5.718  16.015  0.00  0.00    +0.000 HD
ENDBRANCH  20  21
ENDBRANCH   1  20
TORSDOF 3
ENDMDL
MODEL 3
REMARK VINA RESULT:      -9.0      0.520      1.107
REMARK  Name = 
REMARK  3 active torsions:
REMARK  status: ('A' for Active; 'I' for Inactive)
REMARK    1  A    between atoms: C_2  and  C_3
REMARK    2  A    between atoms: C_2  and  C_12
REMARK    3  A    between atoms: N_16  and  C_17
REMARK                            x       y       z     vdW  Elec       q    Type
REMARK                         _______ _______ _______ _____ _____    ______ ____
ROOT
ATOM      1  C   UNL     1       5.481   4.683  18.653  0.00  0.00    +0.000 A 
ATOM      2  C   UNL     1       4.794   5.796  19.110  0.00  0.00    +0.000 A 
ATOM      3  C   UNL     1       3.468   5.489  19.574  0.00  0.00    +0.000 A 
ATOM      4  C   UNL     1       2.397   6.281  20.035  0.00  0.00    +0.000 A 
ATOM      5  N   UNL     1       2.483   7.676  20.153  0.00  0.00    +0.000 N 
ATOM      6  N   UNL     1       1.244   5.656  20.373  0.00  0.00    +0.000 NA
ATOM      7  C   UNL     1       1.154   4.325  20.254  0.00  0.00    +0.000 A 
ATOM      8  N   UNL     1       2.094   3.490  19.816  0.00  0.00    +0.000 NA
ATOM      9  C   UNL     1       3.226   4.128  19.481  0.00  0.00    +0.000 A 
ATOM     10  S   UNL     1       4.542   3.263  18.843  0.00  0.00    +0.000 S 
ATOM     11  H   UNL     1       3.408   8.072  20.066  0.00  0.00    +0.000 HD
ENDROOT
BRANCH   5  12
ATOM     12  C   UNL     1       1.437   8.613  20.037  0.00  0.00    +0.000 A 
ATOM     13  C   UNL     1       1.028   9.040  18.767  0.00  0.00    +0.000 A 
ATOM     14  C   UNL     1       0.039  10.020  18.626  0.00  0.00    +0.000 A 
ATOM     15  C   UNL     1      -0.559  10.581  19.754  0.00  0.00    +0.000 A 
ATOM     16  C   UNL     1      -0.161  10.160  21.020  0.00  0.00    +0.000 A 
ATOM     17  I   UNL     1      -1.044  10.975  22.717  0.00  0.00    +0.000 I 
ATOM     18  C   UNL     1       0.832   9.192  21.160  0.00  0.00    +0.000 A 
ENDBRANCH   5  12
BRANCH   1  20
ATOM     19  O   UNL     1       7.835   4.439  18.623  0.00  0.00    +0.000 OA
ATOM     20  C   UNL     1       6.782   4.576  18.006  0.00  0.00    +0.000 C 
BRANCH  20  21
ATOM     21  C   UNL     1       6.772   4.571  16.555  0.00  0.00    +0.000 A 
ATOM     22  C   UNL     1       7.530   5.245  15.612  0.00  0.00    +0.000 A 
ATOM     23  C   UNL     1       7.148   4.789  14.320  0.00  0.00    +0.000 A 
ATOM     24  C   UNL     1       7.583   5.073  13.011  0.00  0.00    +0.000 A 
ATOM     25  C   UNL     1       6.992   4.403  11.934  0.00  0.00    +0.000 A 
ATOM     26  C   UNL     1       5.973   3.476  12.145  0.00  0.00    +0.000 A 
ATOM     27  C   UNL     1       5.522   3.182  13.435  0.00  0.00    +0.000 A 
ATOM     28  C   UNL     1       6.139   3.847  14.500  0.00  0.00    +0.000 A 
ATOM     29  N   UNL     1       5.942   3.723  15.853  0.00  0.00    +0.000 N 
ATOM     30  H   UNL     1       5.294   3.079  16.290  0.00  0.00    +0.000 HD
ENDBRANCH  20  21
ENDBRANCH   1  20
TORSDOF 3
ENDMDL
MODEL 4
REMARK VINA RESULT:      -8.6      1.145      1.780
REMARK  Name = 
REMARK  3 active torsions:
REMARK  status: ('A' for Active; 'I' for Inactive)
REMARK    1  A    between atoms: C_2  and  C_3
REMARK    2  A    between atoms: C_2  and  C_12
REMARK    3  A    between atoms: N_16  and  C_17
REMARK                            x       y       z     vdW  Elec       q    Type
REMARK                         _______ _______ _______ _____ _____    ______ ____
ROOT
ATOM      1  C   UNL     1       5.346   4.594  18.594  0.00  0.00    +0.000 A 
ATOM      2  C   UNL     1       4.698   5.601  19.293  0.00  0.00    +0.000 A 
ATOM      3  C   UNL     1       3.343   5.266  19.638  0.00  0.00    +0.000 A 
ATOM      4  C   UNL     1       2.297   5.983  20.252  0.00  0.00    +0.000 A 
ATOM      5  N   UNL     1       2.447   7.300  20.709  0.00  0.00    +0.000 N 
ATOM      6  N   UNL     1       1.102   5.361  20.401  0.00  0.00    +0.000 NA
ATOM      7  C   UNL     1       0.951   4.106  19.960  0.00  0.00    +0.000 A 
ATOM      8  N   UNL     1       1.865   3.350  19.353  0.00  0.00    +0.000 NA
ATOM      9  C   UNL     1       3.037   3.985  19.210  0.00  0.00    +0.000 A 
ATOM     10  S   UNL     1       4.331   3.226  18.411  0.00  0.00    +0.000 S 
ATOM     11  H   UNL     1       3.393   7.653  20.742  0.00  0.00    +0.000 HD
ENDROOT
BRANCH   5  12
ATOM     12  C   UNL     1       1.454   8.296  20.800  0.00  0.00    +0.000 A 
ATOM     13  C   UNL     1       1.008   8.716  22.060  0.00  0.00    +0.000 A 
ATOM     14  C   UNL     1      -0.025   9.653  22.177  0.00  0.00    +0.000 A 
ATOM     15  C   UNL     1      -0.620  10.187  21.034  0.00  0.00    +0.000 A 
ATOM     16  C   UNL     1      -0.182   9.778  19.779  0.00  0.00    +0.000 A 
ATOM     17  I   UNL     1      -1.048  10.566  18.061  0.00  0.00    +0.000 I 
ATOM     18  C   UNL     1       0.839   8.836  19.663  0.00  0.00    +0.000 A 
ENDBRANCH   5  12
BRANCH   1  20
ATOM     19  O   UNL     1       7.711   4.509  18.607  0.00  0.00    +0.000 OA
ATOM     20  C   UNL     1       6.662   4.573  17.971  0.00  0.00    +0.000 C 
BRANCH  20  21
ATOM     21  C   UNL     1       6.679   4.564  16.520  0.00  0.00    +0.000 A 
ATOM     22  C   UNL     1       7.432   5.260  15.589  0.00  0.00    +0.000 A 
ATOM     23  C   UNL     1       7.088   4.788  14.291  0.00  0.00    +0.000 A 
ATOM     24  C   UNL     1       7.538   5.083  12.990  0.00  0.00    +0.000 A 
ATOM     25  C   UNL     1       6.988   4.391  11.905  0.00  0.00    +0.000 A 
ATOM     26  C   UNL     1       5.996   3.432  12.100  0.00  0.00    +0.000 A 
ATOM     27  C   UNL     1       5.531   3.127  13.383  0.00  0.00    +0.000 A 
ATOM     28  C   UNL     1       6.107   3.814  14.457  0.00  0.00    +0.000 A 
ATOM     29  N   UNL     1       5.890   3.688  15.806  0.00  0.00    +0.000 N 
ATOM     30  H   UNL     1       5.256   3.024  16.234  0.00  0.00    +0.000 HD
ENDBRANCH  20  21
ENDBRANCH   1  20
TORSDOF 3
ENDMDL
MODEL 5
REMARK VINA RESULT:      -8.5      4.164      8.950
REMARK  Name = 
REMARK  3 active torsions:
REMARK  status: ('A' for Active; 'I' for Inactive)
REMARK    1  A    between atoms: C_2  and  C_3
REMARK    2  A    between atoms: C_2  and  C_12
REMARK    3  A    between atoms: N_16  and  C_17
REMARK                            x       y       z     vdW  Elec       q    Type
REMARK                         _______ _______ _______ _____ _____    ______ ____
ROOT
ATOM      1  C   UNL     1       1.313   8.993  19.491  0.00  0.00    +0.000 A 
ATOM      2  C   UNL     1       2.012   8.294  18.520  0.00  0.00    +0.000 A 
ATOM      3  C   UNL     1       2.438   6.993  18.960  0.00  0.00    +0.000 A 
ATOM      4  C   UNL     1       3.229   5.984  18.373  0.00  0.00    +0.000 A 
ATOM      5  N   UNL     1       3.770   6.100  17.084  0.00  0.00    +0.000 N 
ATOM      6  N   UNL     1       3.467   4.863  19.095  0.00  0.00    +0.000 NA
ATOM      7  C   UNL     1       2.959   4.750  20.329  0.00  0.00    +0.000 A 
ATOM      8  N   UNL     1       2.219   5.646  20.980  0.00  0.00    +0.000 NA
ATOM      9  C   UNL     1       1.999   6.751  20.251  0.00  0.00    +0.000 A 
ATOM     10  S   UNL     1       1.122   8.050  20.908  0.00  0.00    +0.000 S 
ATOM     11  H   UNL     1       3.418   6.862  16.523  0.00  0.00    +0.000 HD
ENDROOT
BRANCH   5  12
ATOM     12  C   UNL     1       4.959   5.522  16.598  0.00  0.00    +0.000 A 
ATOM     13  C   UNL     1       6.103   5.506  17.407  0.00  0.00    +0.000 A 
ATOM     14  C   UNL     1       7.315   5.000  16.923  0.00  0.00    +0.000 A 
ATOM     15  C   UNL     1       7.395   4.497  15.625  0.00  0.00    +0.000 A 
ATOM     16  C   UNL     1       6.264   4.505  14.815  0.00  0.00    +0.000 A 
ATOM     17  I   UNL     1       6.358   3.752  12.880  0.00  0.00    +0.000 I 
ATOM     18  C   UNL     1       5.060   5.020  15.294  0.00  0.00    +0.000 A 
ENDBRANCH   5  12
BRANCH   1  20
ATOM     19  O   UNL     1       1.450  11.313  19.940  0.00  0.00    +0.000 OA
ATOM     20  C   UNL     1       0.814  10.362  19.493  0.00  0.00    +0.000 C 
BRANCH  20  21
ATOM     21  C   UNL     1      -0.478  10.570  18.866  0.00  0.00    +0.000 A 
ATOM     22  C   UNL     1      -1.638  11.193  19.296  0.00  0.00    +0.000 A 
ATOM     23  C   UNL     1      -2.577  11.179  18.228  0.00  0.00    +0.000 A 
ATOM     24  C   UNL     1      -3.881  11.684  18.062  0.00  0.00    +0.000 A 
ATOM     25  C   UNL     1      -4.528  11.514  16.832  0.00  0.00    +0.000 A 
ATOM     26  C   UNL     1      -3.902  10.840  15.786  0.00  0.00    +0.000 A 
ATOM     27  C   UNL     1      -2.610  10.326  15.930  0.00  0.00    +0.000 A 
ATOM     28  C   UNL     1      -1.972  10.523  17.159  0.00  0.00    +0.000 A 
ATOM     29  N   UNL     1      -0.706  10.181  17.563  0.00  0.00    +0.000 N 
ATOM     30  H   UNL     1      -0.013   9.725  16.982  0.00  0.00    +0.000 HD
ENDBRANCH  20  21
ENDBRANCH   1  20
TORSDOF 3
ENDMDL
MODEL 6
REMARK VINA RESULT:      -8.2      4.159      9.092
REMARK  Name = 
REMARK  3 active torsions:
REMARK  status: ('A' for Active; 'I' for Inactive)
REMARK    1  A    between atoms: C_2  and  C_3
REMARK    2  A    between atoms: C_2  and  C_12
REMARK    3  A    between atoms: N_16  and  C_17
REMARK                            x       y       z     vdW  Elec       q    Type
REMARK                         _______ _______ _______ _____ _____    ______ ____
ROOT
ATOM      1  C   UNL     1       1.230   8.915  19.748  0.00  0.00    +0.000 A 
ATOM      2  C   UNL     1       1.952   8.273  18.755  0.00  0.00    +0.000 A 
ATOM      3  C   UNL     1       2.378   6.953  19.131  0.00  0.00    +0.000 A 
ATOM      4  C   UNL     1       3.186   5.982  18.505  0.00  0.00    +0.000 A 
ATOM      5  N   UNL     1       3.749   6.170  17.234  0.00  0.00    +0.000 N 
ATOM      6  N   UNL     1       3.419   4.824  19.169  0.00  0.00    +0.000 NA
ATOM      7  C   UNL     1       2.889   4.642  20.386  0.00  0.00    +0.000 A 
ATOM      8  N   UNL     1       2.131   5.497  21.071  0.00  0.00    +0.000 NA
ATOM      9  C   UNL     1       1.917   6.638  20.399  0.00  0.00    +0.000 A 
ATOM     10  S   UNL     1       1.020   7.895  21.109  0.00  0.00    +0.000 S 
ATOM     11  H   UNL     1       3.403   6.960  16.708  0.00  0.00    +0.000 HD
ENDROOT
BRANCH   5  12
ATOM     12  C   UNL     1       4.951   5.626  16.739  0.00  0.00    +0.000 A 
ATOM     13  C   UNL     1       6.111   5.681  17.523  0.00  0.00    +0.000 A 
ATOM     14  C   UNL     1       7.332   5.210  17.028  0.00  0.00    +0.000 A 
ATOM     15  C   UNL     1       7.407   4.671  15.744  0.00  0.00    +0.000 A 
ATOM     16  C   UNL     1       6.259   4.609  14.959  0.00  0.00    +0.000 A 
ATOM     17  I   UNL     1       6.344   3.802  13.045  0.00  0.00    +0.000 I 
ATOM     18  C   UNL     1       5.045   5.089  15.449  0.00  0.00    +0.000 A 
ENDBRANCH   5  12
BRANCH   1  20
ATOM     19  O   UNL     1       1.285  11.180  20.431  0.00  0.00    +0.000 OA
ATOM     20  C   UNL     1       0.722  10.279  19.816  0.00  0.00    +0.000 C 
BRANCH  20  21
ATOM     21  C   UNL     1      -0.478  10.549  19.046  0.00  0.00    +0.000 A 
ATOM     22  C   UNL     1      -0.885  10.163  17.780  0.00  0.00    +0.000 A 
ATOM     23  C   UNL     1      -2.204  10.650  17.565  0.00  0.00    +0.000 A 
ATOM     24  C   UNL     1      -3.129  10.542  16.509  0.00  0.00    +0.000 A 
ATOM     25  C   UNL     1      -4.389  11.138  16.641  0.00  0.00    +0.000 A 
ATOM     26  C   UNL     1      -4.725  11.845  17.794  0.00  0.00    +0.000 A 
ATOM     27  C   UNL     1      -3.820  11.969  18.852  0.00  0.00    +0.000 A 
ATOM     28  C   UNL     1      -2.574  11.350  18.711  0.00  0.00    +0.000 A 
ATOM     29  N   UNL     1      -1.525  11.261  19.591  0.00  0.00    +0.000 N 
ATOM     30  H   UNL     1      -1.519  11.643  20.530  0.00  0.00    +0.000 HD
ENDBRANCH  20  21
ENDBRANCH   1  20
TORSDOF 3
ENDMDL
MODEL 7
REMARK VINA RESULT:      -8.0      1.223      1.368
REMARK  Name = 
REMARK  3 active torsions:
REMARK  status: ('A' for Active; 'I' for Inactive)
REMARK    1  A    between atoms: C_2  and  C_3
REMARK    2  A    between atoms: C_2  and  C_12
REMARK    3  A    between atoms: N_16  and  C_17
REMARK                            x       y       z     vdW  Elec       q    Type
REMARK                         _______ _______ _______ _____ _____    ______ ____
ROOT
ATOM      1  C   UNL     1       5.452   6.049  17.910  0.00  0.00    +0.000 A 
ATOM      2  C   UNL     1       4.607   7.116  18.171  0.00  0.00    +0.000 A 
ATOM      3  C   UNL     1       3.503   6.765  19.022  0.00  0.00    +0.000 A 
ATOM      4  C   UNL     1       2.371   7.470  19.478  0.00  0.00    +0.000 A 
ATOM      5  N   UNL     1       2.132   8.812  19.150  0.00  0.00    +0.000 N 
ATOM      6  N   UNL     1       1.486   6.811  20.265  0.00  0.00    +0.000 NA
ATOM      7  C   UNL     1       1.705   5.527  20.575  0.00  0.00    +0.000 A 
ATOM      8  N   UNL     1       2.727   4.767  20.184  0.00  0.00    +0.000 NA
ATOM      9  C   UNL     1       3.588   5.435  19.402  0.00  0.00    +0.000 A 
ATOM     10  S   UNL     1       4.940   4.643  18.744  0.00  0.00    +0.000 S 
ATOM     11  H   UNL     1       2.900   9.307  18.720  0.00  0.00    +0.000 HD
ENDROOT
BRANCH   5  12
ATOM     12  C   UNL     1       0.885   9.456  19.025  0.00  0.00    +0.000 A 
ATOM     13  C   UNL     1       0.154   9.326  17.837  0.00  0.00    +0.000 A 
ATOM     14  C   UNL     1      -1.054  10.011  17.662  0.00  0.00    +0.000 A 
ATOM     15  C   UNL     1      -1.550  10.829  18.677  0.00  0.00    +0.000 A 
ATOM     16  C   UNL     1      -0.833  10.961  19.862  0.00  0.00    +0.000 A 
ATOM     17  I   UNL     1      -1.556  12.169  21.391  0.00  0.00    +0.000 I 
ATOM     18  C   UNL     1       0.376  10.289  20.031  0.00  0.00    +0.000 A 
ENDBRANCH   5  12
BRANCH   1  20
ATOM     19  O   UNL     1       7.715   6.387  17.303  0.00  0.00    +0.000 OA
ATOM     20  C   UNL     1       6.602   5.951  17.021  0.00  0.00    +0.000 C 
BRANCH  20  21
ATOM     21  C   UNL     1       6.385   5.236  15.777  0.00  0.00    +0.000 A 
ATOM     22  C   UNL     1       5.298   4.538  15.276  0.00  0.00    +0.000 A 
ATOM     23  C   UNL     1       5.611   4.109  13.956  0.00  0.00    +0.000 A 
ATOM     24  C   UNL     1       4.903   3.410  12.960  0.00  0.00    +0.000 A 
ATOM     25  C   UNL     1       5.519   3.172  11.725  0.00  0.00    +0.000 A 
ATOM     26  C   UNL     1       6.821   3.604  11.484  0.00  0.00    +0.000 A 
ATOM     27  C   UNL     1       7.544   4.295  12.461  0.00  0.00    +0.000 A 
ATOM     28  C   UNL     1       6.905   4.541  13.681  0.00  0.00    +0.000 A 
ATOM     29  N   UNL     1       7.343   5.229  14.785  0.00  0.00    +0.000 N 
ATOM     30  H   UNL     1       8.238   5.696  14.863  0.00  0.00    +0.000 HD
ENDBRANCH  20  21
ENDBRANCH   1  20
TORSDOF 3
ENDMDL
MODEL 8
REMARK VINA RESULT:      -8.0      4.258      6.092
REMARK  Name = 
REMARK  3 active torsions:
REMARK  status: ('A' for Active; 'I' for Inactive)
REMARK    1  A    between atoms: C_2  and  C_3
REMARK    2  A    between atoms: C_2  and  C_12
REMARK    3  A    between atoms: N_16  and  C_17
REMARK                            x       y       z     vdW  Elec       q    Type
REMARK                         _______ _______ _______ _____ _____    ______ ____
ROOT
ATOM      1  C   UNL     1       1.636   8.597  19.207  0.00  0.00    +0.000 A 
ATOM      2  C   UNL     1       0.815   9.712  19.149  0.00  0.00    +0.000 A 
ATOM      3  C   UNL     1       0.192  10.019  20.407  0.00  0.00    +0.000 A 
ATOM      4  C   UNL     1      -0.763  10.977  20.806  0.00  0.00    +0.000 A 
ATOM      5  N   UNL     1      -1.301  11.923  19.922  0.00  0.00    +0.000 N 
ATOM      6  N   UNL     1      -1.167  10.972  22.099  0.00  0.00    +0.000 NA
ATOM      7  C   UNL     1      -0.662  10.066  22.946  0.00  0.00    +0.000 A 
ATOM      8  N   UNL     1       0.226   9.112  22.669  0.00  0.00    +0.000 NA
ATOM      9  C   UNL     1       0.609   9.130  21.384  0.00  0.00    +0.000 A 
ATOM     10  S   UNL     1       1.697   7.963  20.797  0.00  0.00    +0.000 S 
ATOM     11  H   UNL     1      -0.840  12.006  19.026  0.00  0.00    +0.000 HD
ENDROOT
BRANCH   5  12
ATOM     12  C   UNL     1      -2.577  12.519  19.974  0.00  0.00    +0.000 A 
ATOM     13  C   UNL     1      -2.782  13.647  20.779  0.00  0.00    +0.000 A 
ATOM     14  C   UNL     1      -4.055  14.216  20.901  0.00  0.00    +0.000 A 
ATOM     15  C   UNL     1      -5.138  13.667  20.215  0.00  0.00    +0.000 A 
ATOM     16  C   UNL     1      -4.943  12.548  19.411  0.00  0.00    +0.000 A 
ATOM     17  I   UNL     1      -6.540  11.717  18.372  0.00  0.00    +0.000 I 
ATOM     18  C   UNL     1      -3.677  11.975  19.298  0.00  0.00    +0.000 A 
ENDBRANCH   5  12
BRANCH   1  20
ATOM     19  O   UNL     1       2.867   8.460  17.190  0.00  0.00    +0.000 OA
ATOM     20  C   UNL     1       2.350   7.894  18.149  0.00  0.00    +0.000 C 
BRANCH  20  21
ATOM     21  C   UNL     1       2.484   6.459  18.318  0.00  0.00    +0.000 A 
ATOM     22  C   UNL     1       1.690   5.393  17.929  0.00  0.00    +0.000 A 
ATOM     23  C   UNL     1       2.355   4.186  18.284  0.00  0.00    +0.000 A 
ATOM     24  C   UNL     1       2.063   2.819  18.113  0.00  0.00    +0.000 A 
ATOM     25  C   UNL     1       2.978   1.863  18.571  0.00  0.00    +0.000 A 
ATOM     26  C   UNL     1       4.156   2.251  19.204  0.00  0.00    +0.000 A 
ATOM     27  C   UNL     1       4.464   3.603  19.390  0.00  0.00    +0.000 A 
ATOM     28  C   UNL     1       3.548   4.543  18.907  0.00  0.00    +0.000 A 
ATOM     29  N   UNL     1       3.609   5.915  18.901  0.00  0.00    +0.000 N 
ATOM     30  H   UNL     1       4.384   6.464  19.252  0.00  0.00    +0.000 HD
ENDBRANCH  20  21
ENDBRANCH   1  20
TORSDOF 3
ENDMDL
MODEL 9
REMARK VINA RESULT:      -7.8      1.865      2.195
REMARK  Name = 
REMARK  3 active torsions:
REMARK  status: ('A' for Active; 'I' for Inactive)
REMARK    1  A    between atoms: C_2  and  C_3
REMARK    2  A    between atoms: C_2  and  C_12
REMARK    3  A    between atoms: N_16  and  C_17
REMARK                            x       y       z     vdW  Elec       q    Type
REMARK                         _______ _______ _______ _____ _____    ______ ____
ROOT
ATOM      1  C   UNL     1       5.359   6.313  17.646  0.00  0.00    +0.000 A 
ATOM      2  C   UNL     1       4.514   7.368  17.949  0.00  0.00    +0.000 A 
ATOM      3  C   UNL     1       3.447   6.999  18.839  0.00  0.00    +0.000 A 
ATOM      4  C   UNL     1       2.327   7.690  19.344  0.00  0.00    +0.000 A 
ATOM      5  N   UNL     1       2.062   9.032  19.038  0.00  0.00    +0.000 N 
ATOM      6  N   UNL     1       1.480   7.015  20.159  0.00  0.00    +0.000 NA
ATOM      7  C   UNL     1       1.723   5.731  20.450  0.00  0.00    +0.000 A 
ATOM      8  N   UNL     1       2.737   4.985  20.013  0.00  0.00    +0.000 NA
ATOM      9  C   UNL     1       3.560   5.668  19.205  0.00  0.00    +0.000 A 
ATOM     10  S   UNL     1       4.893   4.894  18.487  0.00  0.00    +0.000 S 
ATOM     11  H   UNL     1       2.809   9.538  18.582  0.00  0.00    +0.000 HD
ENDROOT
BRANCH   5  12
ATOM     12  C   UNL     1       0.805   9.665  18.966  0.00  0.00    +0.000 A 
ATOM     13  C   UNL     1       0.343  10.411  20.058  0.00  0.00    +0.000 A 
ATOM     14  C   UNL     1      -0.930  10.992  20.039  0.00  0.00    +0.000 A 
ATOM     15  C   UNL     1      -1.754  10.839  18.924  0.00  0.00    +0.000 A 
ATOM     16  C   UNL     1      -1.302  10.102  17.834  0.00  0.00    +0.000 A 
ATOM     17  I   UNL     1      -2.509   9.868  16.158  0.00  0.00    +0.000 I 
ATOM     18  C   UNL     1      -0.038   9.514  17.858  0.00  0.00    +0.000 A 
ENDBRANCH   5  12
BRANCH   1  20
ATOM     19  O   UNL     1       7.557   6.781  16.903  0.00  0.00    +0.000 OA
ATOM     20  C   UNL     1       6.474   6.233  16.712  0.00  0.00    +0.000 C 
BRANCH  20  21
ATOM     21  C   UNL     1       6.266   5.399  15.543  0.00  0.00    +0.000 A 
ATOM     22  C   UNL     1       5.172   4.682  15.087  0.00  0.00    +0.000 A 
ATOM     23  C   UNL     1       5.504   4.112  13.827  0.00  0.00    +0.000 A 
ATOM     24  C   UNL     1       4.800   3.332  12.888  0.00  0.00    +0.000 A 
ATOM     25  C   UNL     1       5.438   2.953  11.701  0.00  0.00    +0.000 A 
ATOM     26  C   UNL     1       6.758   3.324  11.452  0.00  0.00    +0.000 A 
ATOM     27  C   UNL     1       7.477   4.093  12.372  0.00  0.00    +0.000 A 
ATOM     28  C   UNL     1       6.816   4.480  13.543  0.00  0.00    +0.000 A 
ATOM     29  N   UNL     1       7.247   5.266  14.583  0.00  0.00    +0.000 N 
ATOM     30  H   UNL     1       8.153   5.715  14.636  0.00  0.00    +0.000 HD
ENDBRANCH  20  21
ENDBRANCH   1  20
TORSDOF 3
ENDMDL
