MODEL 1
REMARK VINA RESULT:      -7.7      0.000      0.000
REMARK  Name = 
REMARK  4 active torsions:
REMARK  status: ('A' for Active; 'I' for Inactive)
REMARK    1  A    between atoms: C_1  and  C_2
REMARK    2  A    between atoms: C_7  and  C_9
REMARK    3  A    between atoms: C_11  and  O_12
REMARK    4  A    between atoms: O_12  and  C_13
REMARK                            x       y       z     vdW  Elec       q    Type
REMARK                         _______ _______ _______ _____ _____    ______ ____
ROOT
ATOM      1  C   UNL     1       3.018   5.911  19.505  0.00  0.00    +0.000 A 
ATOM      2  C   UNL     1       4.239   5.747  18.867  0.00  0.00    +0.000 A 
ATOM      3  C   UNL     1       4.899   4.536  19.014  0.00  0.00    +0.000 A 
ATOM      4  C   UNL     1       4.269   3.497  19.696  0.00  0.00    +0.000 A 
ATOM      5  C   UNL     1       3.028   3.735  20.262  0.00  0.00    +0.000 A 
ATOM      6  N   UNL     1       2.392   4.926  20.208  0.00  0.00    +0.000 NA
ENDROOT
BRANCH   1  13
ATOM      7  C   UNL     1      -0.915  10.660  23.228  0.00  0.00    +0.000 C 
ATOM      8  C   UNL     1      -0.270  10.165  21.986  0.00  0.00    +0.000 A 
ATOM      9  C   UNL     1      -0.185  10.835  20.783  0.00  0.00    +0.000 A 
ATOM     10  S   UNL     1       0.687   9.896  19.655  0.00  0.00    +0.000 S 
ATOM     11  C   UNL     1       0.889   8.676  20.829  0.00  0.00    +0.000 A 
ATOM     12  N   UNL     1       1.575   7.513  20.577  0.00  0.00    +0.000 N 
ATOM     13  C   UNL     1       2.357   7.251  19.476  0.00  0.00    +0.000 C 
ATOM     14  O   UNL     1       2.589   7.996  18.529  0.00  0.00    +0.000 OA
ATOM     15  N   UNL     1       0.322   8.908  21.997  0.00  0.00    +0.000 NA
ATOM     16  H   UNL     1       1.561   6.827  21.318  0.00  0.00    +0.000 HD
ENDBRANCH   1  13
BRANCH   3  17
ATOM     17  O   UNL     1       6.139   4.256  18.482  0.00  0.00    +0.000 OA
BRANCH  17  18
ATOM     18  C   UNL     1       6.349   4.410  17.141  0.00  0.00    +0.000 A 
ATOM     19  C   UNL     1       5.742   3.703  16.122  0.00  0.00    +0.000 A 
ATOM     20  N   UNL     1       6.012   3.889  14.811  0.00  0.00    +0.000 NA
ATOM     21  C   UNL     1       6.903   4.852  14.531  0.00  0.00    +0.000 A 
ATOM     22  N   UNL     1       7.509   5.647  15.426  0.00  0.00    +0.000 NA
ATOM     23  C   UNL     1       7.206   5.405  16.720  0.00  0.00    +0.000 A 
ENDBRANCH  17  18
ENDBRANCH   3  17
TORSDOF 3
ENDMDL
MODEL 2
REMARK VINA RESULT:      -7.5      1.878      4.205
REMARK  Name = 
REMARK  4 active torsions:
REMARK  status: ('A' for Active; 'I' for Inactive)
REMARK    1  A    between atoms: C_1  and  C_2
REMARK    2  A    between atoms: C_7  and  C_9
REMARK    3  A    between atoms: C_11  and  O_12
REMARK    4  A    between atoms: O_12  and  C_13
REMARK                            x       y       z     vdW  Elec       q    Type
REMARK                         _______ _______ _______ _____ _____    ______ ____
ROOT
ATOM      1  C   UNL     1       3.459   6.798  17.739  0.00  0.00    +0.000 A 
ATOM      2  C   UNL     1       3.272   5.570  18.358  0.00  0.00    +0.000 A 
ATOM      3  C   UNL     1       3.975   4.477  17.872  0.00  0.00    +0.000 A 
ATOM      4  C   UNL     1       4.918   4.668  16.865  0.00  0.00    +0.000 A 
ATOM      5  C   UNL     1       5.073   5.939  16.338  0.00  0.00    +0.000 A 
ATOM      6  N   UNL     1       4.349   7.011  16.730  0.00  0.00    +0.000 NA
ENDROOT
BRANCH   1  13
ATOM      7  C   UNL     1      -0.247   9.801  23.137  0.00  0.00    +0.000 C 
ATOM      8  C   UNL     1       0.178   9.709  21.717  0.00  0.00    +0.000 A 
ATOM      9  C   UNL     1      -0.106  10.614  20.716  0.00  0.00    +0.000 A 
ATOM     10  S   UNL     1       0.631  10.119  19.258  0.00  0.00    +0.000 S 
ATOM     11  C   UNL     1       1.272   8.751  20.048  0.00  0.00    +0.000 A 
ATOM     12  N   UNL     1       2.057   7.826  19.405  0.00  0.00    +0.000 N 
ATOM     13  C   UNL     1       2.610   7.956  18.153  0.00  0.00    +0.000 C 
ATOM     14  O   UNL     1       2.511   8.910  17.387  0.00  0.00    +0.000 OA
ATOM     15  N   UNL     1       0.946   8.621  21.320  0.00  0.00    +0.000 NA
ATOM     16  H   UNL     1       2.312   7.014  19.950  0.00  0.00    +0.000 HD
ENDBRANCH   1  13
BRANCH   3  17
ATOM     17  O   UNL     1       3.846   3.193  18.354  0.00  0.00    +0.000 OA
BRANCH  17  18
ATOM     18  C   UNL     1       3.105   2.965  19.480  0.00  0.00    +0.000 A 
ATOM     19  C   UNL     1       3.587   2.725  20.752  0.00  0.00    +0.000 A 
ATOM     20  N   UNL     1       2.799   2.483  21.822  0.00  0.00    +0.000 NA
ATOM     21  C   UNL     1       1.477   2.524  21.594  0.00  0.00    +0.000 A 
ATOM     22  N   UNL     1       0.891   2.810  20.422  0.00  0.00    +0.000 NA
ATOM     23  C   UNL     1       1.731   3.032  19.388  0.00  0.00    +0.000 A 
ENDBRANCH  17  18
ENDBRANCH   3  17
TORSDOF 3
ENDMDL
MODEL 3
REMARK VINA RESULT:      -7.5      1.893      4.125
REMARK  Name = 
REMARK  4 active torsions:
REMARK  status: ('A' for Active; 'I' for Inactive)
REMARK    1  A    between atoms: C_1  and  C_2
REMARK    2  A    between atoms: C_7  and  C_9
REMARK    3  A    between atoms: C_11  and  O_12
REMARK    4  A    between atoms: O_12  and  C_13
REMARK                            x       y       z     vdW  Elec       q    Type
REMARK                         _______ _______ _______ _____ _____    ______ ____
ROOT
ATOM      1  C   UNL     1       3.480   6.820  17.758  0.00  0.00    +0.000 A 
ATOM      2  C   UNL     1       3.239   5.573  18.318  0.00  0.00    +0.000 A 
ATOM      3  C   UNL     1       3.962   4.489  17.840  0.00  0.00    +0.000 A 
ATOM      4  C   UNL     1       4.971   4.704  16.905  0.00  0.00    +0.000 A 
ATOM      5  C   UNL     1       5.173   5.991  16.435  0.00  0.00    +0.000 A 
ATOM      6  N   UNL     1       4.435   7.057  16.818  0.00  0.00    +0.000 NA
ENDROOT
BRANCH   1  13
ATOM      7  C   UNL     1      -0.300   9.823  23.105  0.00  0.00    +0.000 C 
ATOM      8  C   UNL     1       0.138   9.726  21.690  0.00  0.00    +0.000 A 
ATOM      9  C   UNL     1      -0.145  10.623  20.680  0.00  0.00    +0.000 A 
ATOM     10  S   UNL     1       0.609  10.125  19.232  0.00  0.00    +0.000 S 
ATOM     11  C   UNL     1       1.255   8.767  20.036  0.00  0.00    +0.000 A 
ATOM     12  N   UNL     1       2.054   7.845  19.406  0.00  0.00    +0.000 N 
ATOM     13  C   UNL     1       2.617   7.973  18.157  0.00  0.00    +0.000 C 
ATOM     14  O   UNL     1       2.516   8.921  17.385  0.00  0.00    +0.000 OA
ATOM     15  N   UNL     1       0.919   8.643  21.306  0.00  0.00    +0.000 NA
ATOM     16  H   UNL     1       2.311   7.039  19.958  0.00  0.00    +0.000 HD
ENDBRANCH   1  13
BRANCH   3  17
ATOM     17  O   UNL     1       3.788   3.190  18.266  0.00  0.00    +0.000 OA
BRANCH  17  18
ATOM     18  C   UNL     1       3.028   2.938  19.373  0.00  0.00    +0.000 A 
ATOM     19  C   UNL     1       1.649   2.883  19.434  0.00  0.00    +0.000 A 
ATOM     20  N   UNL     1       0.954   2.649  20.569  0.00  0.00    +0.000 NA
ATOM     21  C   UNL     1       1.691   2.429  21.669  0.00  0.00    +0.000 A 
ATOM     22  N   UNL     1       3.031   2.392  21.722  0.00  0.00    +0.000 NA
ATOM     23  C   UNL     1       3.669   2.643  20.558  0.00  0.00    +0.000 A 
ENDBRANCH  17  18
ENDBRANCH   3  17
TORSDOF 3
ENDMDL
MODEL 4
REMARK VINA RESULT:      -7.3      0.421      1.088
REMARK  Name = 
REMARK  4 active torsions:
REMARK  status: ('A' for Active; 'I' for Inactive)
REMARK    1  A    between atoms: C_1  and  C_2
REMARK    2  A    between atoms: C_7  and  C_9
REMARK    3  A    between atoms: C_11  and  O_12
REMARK    4  A    between atoms: O_12  and  C_13
REMARK                            x       y       z     vdW  Elec       q    Type
REMARK                         _______ _______ _______ _____ _____    ______ ____
ROOT
ATOM      1  C   UNL     1       2.825   6.193  19.218  0.00  0.00    +0.000 A 
ATOM      2  C   UNL     1       4.088   5.972  18.685  0.00  0.00    +0.000 A 
ATOM      3  C   UNL     1       4.646   4.710  18.825  0.00  0.00    +0.000 A 
ATOM      4  C   UNL     1       3.885   3.688  19.388  0.00  0.00    +0.000 A 
ATOM      5  C   UNL     1       2.615   3.988  19.850  0.00  0.00    +0.000 A 
ATOM      6  N   UNL     1       2.069   5.224  19.805  0.00  0.00    +0.000 NA
ENDROOT
BRANCH   1  13
ATOM      7  C   UNL     1      -0.913  11.110  22.925  0.00  0.00    +0.000 C 
ATOM      8  C   UNL     1      -0.254  10.604  21.694  0.00  0.00    +0.000 A 
ATOM      9  C   UNL     1      -0.070  11.299  20.517  0.00  0.00    +0.000 A 
ATOM     10  S   UNL     1       0.779  10.331  19.397  0.00  0.00    +0.000 S 
ATOM     11  C   UNL     1       0.845   9.067  20.539  0.00  0.00    +0.000 A 
ATOM     12  N   UNL     1       1.456   7.865  20.280  0.00  0.00    +0.000 N 
ATOM     13  C   UNL     1       2.263   7.578  19.204  0.00  0.00    +0.000 C 
ATOM     14  O   UNL     1       2.587   8.330  18.290  0.00  0.00    +0.000 OA
ATOM     15  N   UNL     1       0.247   9.308  21.691  0.00  0.00    +0.000 NA
ATOM     16  H   UNL     1       1.362   7.162  20.999  0.00  0.00    +0.000 HD
ENDBRANCH   1  13
BRANCH   3  17
ATOM     17  O   UNL     1       5.908   4.367  18.393  0.00  0.00    +0.000 OA
BRANCH  17  18
ATOM     18  C   UNL     1       6.252   4.562  17.085  0.00  0.00    +0.000 A 
ATOM     19  C   UNL     1       7.125   5.512  16.593  0.00  0.00    +0.000 A 
ATOM     20  N   UNL     1       7.407   5.668  15.281  0.00  0.00    +0.000 NA
ATOM     21  C   UNL     1       6.805   4.804  14.449  0.00  0.00    +0.000 A 
ATOM     22  N   UNL     1       5.991   3.801  14.812  0.00  0.00    +0.000 NA
ATOM     23  C   UNL     1       5.741   3.703  16.136  0.00  0.00    +0.000 A 
ENDBRANCH  17  18
ENDBRANCH   3  17
TORSDOF 3
ENDMDL
MODEL 5
REMARK VINA RESULT:      -7.0      1.427      1.922
REMARK  Name = 
REMARK  4 active torsions:
REMARK  status: ('A' for Active; 'I' for Inactive)
REMARK    1  A    between atoms: C_1  and  C_2
REMARK    2  A    between atoms: C_7  and  C_9
REMARK    3  A    between atoms: C_11  and  O_12
REMARK    4  A    between atoms: O_12  and  C_13
REMARK                            x       y       z     vdW  Elec       q    Type
REMARK                         _______ _______ _______ _____ _____    ______ ____
ROOT
ATOM      1  C   UNL     1       3.780   5.973  18.497  0.00  0.00    +0.000 A 
ATOM      2  C   UNL     1       3.856   5.398  17.236  0.00  0.00    +0.000 A 
ATOM      3  C   UNL     1       4.753   4.357  17.042  0.00  0.00    +0.000 A 
ATOM      4  C   UNL     1       5.456   3.855  18.134  0.00  0.00    +0.000 A 
ATOM      5  C   UNL     1       5.284   4.459  19.367  0.00  0.00    +0.000 A 
ATOM      6  N   UNL     1       4.481   5.527  19.576  0.00  0.00    +0.000 NA
ENDROOT
BRANCH   1  13
ATOM      7  C   UNL     1      -0.187   9.732  23.189  0.00  0.00    +0.000 C 
ATOM      8  C   UNL     1       0.319   9.439  21.824  0.00  0.00    +0.000 A 
ATOM      9  C   UNL     1       0.109  10.197  20.691  0.00  0.00    +0.000 A 
ATOM     10  S   UNL     1       0.922   9.496  19.364  0.00  0.00    +0.000 S 
ATOM     11  C   UNL     1       1.493   8.247  20.374  0.00  0.00    +0.000 A 
ATOM     12  N   UNL     1       2.300   7.235  19.916  0.00  0.00    +0.000 N 
ATOM     13  C   UNL     1       2.927   7.184  18.693  0.00  0.00    +0.000 C 
ATOM     14  O   UNL     1       2.888   8.022  17.797  0.00  0.00    +0.000 OA
ATOM     15  N   UNL     1       1.091   8.300  21.630  0.00  0.00    +0.000 NA
ATOM     16  H   UNL     1       2.509   6.505  20.583  0.00  0.00    +0.000 HD
ENDBRANCH   1  13
BRANCH   3  17
ATOM     17  O   UNL     1       4.969   3.733  15.834  0.00  0.00    +0.000 OA
BRANCH  17  18
ATOM     18  C   UNL     1       5.927   4.214  14.986  0.00  0.00    +0.000 A 
ATOM     19  C   UNL     1       6.995   5.024  15.319  0.00  0.00    +0.000 A 
ATOM     20  N   UNL     1       7.897   5.485  14.426  0.00  0.00    +0.000 NA
ATOM     21  C   UNL     1       7.724   5.078  13.159  0.00  0.00    +0.000 A 
ATOM     22  N   UNL     1       6.767   4.244  12.726  0.00  0.00    +0.000 NA
ATOM     23  C   UNL     1       5.890   3.824  13.664  0.00  0.00    +0.000 A 
ENDBRANCH  17  18
ENDBRANCH   3  17
TORSDOF 3
ENDMDL
MODEL 6
REMARK VINA RESULT:      -6.9      1.213      1.578
REMARK  Name = 
REMARK  4 active torsions:
REMARK  status: ('A' for Active; 'I' for Inactive)
REMARK    1  A    between atoms: C_1  and  C_2
REMARK    2  A    between atoms: C_7  and  C_9
REMARK    3  A    between atoms: C_11  and  O_12
REMARK    4  A    between atoms: O_12  and  C_13
REMARK                            x       y       z     vdW  Elec       q    Type
REMARK                         _______ _______ _______ _____ _____    ______ ____
ROOT
ATOM      1  C   UNL     1       2.856   5.905  18.169  0.00  0.00    +0.000 A 
ATOM      2  C   UNL     1       4.179   5.715  17.795  0.00  0.00    +0.000 A 
ATOM      3  C   UNL     1       4.626   4.415  17.603  0.00  0.00    +0.000 A 
ATOM      4  C   UNL     1       3.715   3.365  17.682  0.00  0.00    +0.000 A 
ATOM      5  C   UNL     1       2.403   3.651  18.016  0.00  0.00    +0.000 A 
ATOM      6  N   UNL     1       1.950   4.895  18.289  0.00  0.00    +0.000 NA
ENDROOT
BRANCH   1  13
ATOM      7  C   UNL     1      -0.282  10.007  23.190  0.00  0.00    +0.000 C 
ATOM      8  C   UNL     1       0.257   9.768  21.828  0.00  0.00    +0.000 A 
ATOM      9  C   UNL     1       0.409  10.708  20.829  0.00  0.00    +0.000 A 
ATOM     10  S   UNL     1       1.113   9.985  19.453  0.00  0.00    +0.000 S 
ATOM     11  C   UNL     1       1.169   8.489  20.268  0.00  0.00    +0.000 A 
ATOM     12  N   UNL     1       1.679   7.351  19.692  0.00  0.00    +0.000 N 
ATOM     13  C   UNL     1       2.391   7.282  18.517  0.00  0.00    +0.000 C 
ATOM     14  O   UNL     1       2.703   8.208  17.776  0.00  0.00    +0.000 OA
ATOM     15  N   UNL     1       0.667   8.485  21.488  0.00  0.00    +0.000 NA
ATOM     16  H   UNL     1       1.585   6.505  20.237  0.00  0.00    +0.000 HD
ENDBRANCH   1  13
BRANCH   3  17
ATOM     17  O   UNL     1       5.923   4.079  17.283  0.00  0.00    +0.000 OA
BRANCH  17  18
ATOM     18  C   UNL     1       6.410   4.370  16.040  0.00  0.00    +0.000 A 
ATOM     19  C   UNL     1       7.416   5.266  15.735  0.00  0.00    +0.000 A 
ATOM     20  N   UNL     1       7.838   5.525  14.478  0.00  0.00    +0.000 NA
ATOM     21  C   UNL     1       7.238   4.822  13.505  0.00  0.00    +0.000 A 
ATOM     22  N   UNL     1       6.297   3.882  13.681  0.00  0.00    +0.000 NA
ATOM     23  C   UNL     1       5.911   3.675  14.959  0.00  0.00    +0.000 A 
ENDBRANCH  17  18
ENDBRANCH   3  17
TORSDOF 3
ENDMDL
MODEL 7
REMARK VINA RESULT:      -6.9      4.596      6.759
REMARK  Name = 
REMARK  4 active torsions:
REMARK  status: ('A' for Active; 'I' for Inactive)
REMARK    1  A    between atoms: C_1  and  C_2
REMARK    2  A    between atoms: C_7  and  C_9
REMARK    3  A    between atoms: C_11  and  O_12
REMARK    4  A    between atoms: O_12  and  C_13
REMARK                            x       y       z     vdW  Elec       q    Type
REMARK                         _______ _______ _______ _____ _____    ______ ____
ROOT
ATOM      1  C   UNL     1       6.999   6.763  17.258  0.00  0.00    +0.000 A 
ATOM      2  C   UNL     1       5.700   6.543  17.695  0.00  0.00    +0.000 A 
ATOM      3  C   UNL     1       4.890   5.702  16.945  0.00  0.00    +0.000 A 
ATOM      4  C   UNL     1       5.435   5.028  15.855  0.00  0.00    +0.000 A 
ATOM      5  C   UNL     1       6.755   5.273  15.518  0.00  0.00    +0.000 A 
ATOM      6  N   UNL     1       7.550   6.146  16.176  0.00  0.00    +0.000 NA
ENDROOT
BRANCH   1  13
ATOM      7  C   UNL     1       8.571  13.761  17.925  0.00  0.00    +0.000 C 
ATOM      8  C   UNL     1       8.809  12.322  18.202  0.00  0.00    +0.000 A 
ATOM      9  C   UNL     1       9.727  11.798  19.088  0.00  0.00    +0.000 A 
ATOM     10  S   UNL     1       9.609  10.095  19.108  0.00  0.00    +0.000 S 
ATOM     11  C   UNL     1       8.360  10.169  17.950  0.00  0.00    +0.000 A 
ATOM     12  N   UNL     1       7.732   9.048  17.466  0.00  0.00    +0.000 N 
ATOM     13  C   UNL     1       7.843   7.772  17.968  0.00  0.00    +0.000 C 
ATOM     14  O   UNL     1       8.510   7.402  18.929  0.00  0.00    +0.000 OA
ATOM     15  N   UNL     1       8.047  11.378  17.525  0.00  0.00    +0.000 NA
ATOM     16  H   UNL     1       7.066   9.205  16.723  0.00  0.00    +0.000 HD
ENDBRANCH   1  13
BRANCH   3  17
ATOM     17  O   UNL     1       3.569   5.437  17.231  0.00  0.00    +0.000 OA
BRANCH  17  18
ATOM     18  C   UNL     1       3.239   4.290  17.897  0.00  0.00    +0.000 A 
ATOM     19  C   UNL     1       3.638   3.927  19.168  0.00  0.00    +0.000 A 
ATOM     20  N   UNL     1       3.294   2.764  19.762  0.00  0.00    +0.000 NA
ATOM     21  C   UNL     1       2.486   1.962  19.050  0.00  0.00    +0.000 A 
ATOM     22  N   UNL     1       1.981   2.233  17.837  0.00  0.00    +0.000 NA
ATOM     23  C   UNL     1       2.370   3.406  17.291  0.00  0.00    +0.000 A 
ENDBRANCH  17  18
ENDBRANCH   3  17
TORSDOF 3
ENDMDL
MODEL 8
REMARK VINA RESULT:      -6.8      4.523      8.059
REMARK  Name = 
REMARK  4 active torsions:
REMARK  status: ('A' for Active; 'I' for Inactive)
REMARK    1  A    between atoms: C_1  and  C_2
REMARK    2  A    between atoms: C_7  and  C_9
REMARK    3  A    between atoms: C_11  and  O_12
REMARK    4  A    between atoms: O_12  and  C_13
REMARK                            x       y       z     vdW  Elec       q    Type
REMARK                         _______ _______ _______ _____ _____    ______ ____
ROOT
ATOM      1  C   UNL     1       6.636   5.115  16.765  0.00  0.00    +0.000 A 
ATOM      2  C   UNL     1       5.349   5.188  17.281  0.00  0.00    +0.000 A 
ATOM      3  C   UNL     1       5.199   5.329  18.652  0.00  0.00    +0.000 A 
ATOM      4  C   UNL     1       6.331   5.505  19.445  0.00  0.00    +0.000 A 
ATOM      5  C   UNL     1       7.575   5.466  18.840  0.00  0.00    +0.000 A 
ATOM      6  N   UNL     1       7.763   5.249  17.518  0.00  0.00    +0.000 NA
ENDROOT
BRANCH   1  13
ATOM      7  C   UNL     1       3.428   2.869  10.719  0.00  0.00    +0.000 C 
ATOM      8  C   UNL     1       4.619   3.256  11.517  0.00  0.00    +0.000 A 
ATOM      9  C   UNL     1       5.907   3.409  11.047  0.00  0.00    +0.000 A 
ATOM     10  S   UNL     1       6.934   3.910  12.316  0.00  0.00    +0.000 S 
ATOM     11  C   UNL     1       5.611   3.891  13.392  0.00  0.00    +0.000 A 
ATOM     12  N   UNL     1       5.730   4.231  14.717  0.00  0.00    +0.000 N 
ATOM     13  C   UNL     1       6.820   4.823  15.311  0.00  0.00    +0.000 C 
ATOM     14  O   UNL     1       7.873   5.157  14.778  0.00  0.00    +0.000 OA
ATOM     15  N   UNL     1       4.460   3.504  12.875  0.00  0.00    +0.000 NA
ATOM     16  H   UNL     1       4.899   4.103  15.278  0.00  0.00    +0.000 HD
ENDBRANCH   1  13
BRANCH   3  17
ATOM     17  O   UNL     1       3.985   5.360  19.303  0.00  0.00    +0.000 OA
BRANCH  17  18
ATOM     18  C   UNL     1       3.046   4.406  19.027  0.00  0.00    +0.000 A 
ATOM     19  C   UNL     1       2.013   4.502  18.115  0.00  0.00    +0.000 A 
ATOM     20  N   UNL     1       1.102   3.528  17.905  0.00  0.00    +0.000 NA
ATOM     21  C   UNL     1       1.270   2.407  18.623  0.00  0.00    +0.000 A 
ATOM     22  N   UNL     1       2.268   2.171  19.489  0.00  0.00    +0.000 NA
ATOM     23  C   UNL     1       3.141   3.187  19.663  0.00  0.00    +0.000 A 
ENDBRANCH  17  18
ENDBRANCH   3  17
TORSDOF 3
ENDMDL
MODEL 9
REMARK VINA RESULT:      -6.8      4.469      6.700
REMARK  Name = 
REMARK  4 active torsions:
REMARK  status: ('A' for Active; 'I' for Inactive)
REMARK    1  A    between atoms: C_1  and  C_2
REMARK    2  A    between atoms: C_7  and  C_9
REMARK    3  A    between atoms: C_11  and  O_12
REMARK    4  A    between atoms: O_12  and  C_13
REMARK                            x       y       z     vdW  Elec       q    Type
REMARK                         _______ _______ _______ _____ _____    ______ ____
ROOT
ATOM      1  C   UNL     1       6.979   6.776  17.257  0.00  0.00    +0.000 A 
ATOM      2  C   UNL     1       5.677   6.572  17.692  0.00  0.00    +0.000 A 
ATOM      3  C   UNL     1       4.859   5.735  16.946  0.00  0.00    +0.000 A 
ATOM      4  C   UNL     1       5.399   5.048  15.862  0.00  0.00    +0.000 A 
ATOM      5  C   UNL     1       6.722   5.277  15.526  0.00  0.00    +0.000 A 
ATOM      6  N   UNL     1       7.526   6.146  16.180  0.00  0.00    +0.000 NA
ENDROOT
BRANCH   1  13
ATOM      7  C   UNL     1       8.569  13.769  17.938  0.00  0.00    +0.000 C 
ATOM      8  C   UNL     1       8.807  12.328  18.206  0.00  0.00    +0.000 A 
ATOM      9  C   UNL     1       9.734  11.798  19.080  0.00  0.00    +0.000 A 
ATOM     10  S   UNL     1       9.614  10.096  19.093  0.00  0.00    +0.000 S 
ATOM     11  C   UNL     1       8.353  10.176  17.949  0.00  0.00    +0.000 A 
ATOM     12  N   UNL     1       7.718   9.058  17.467  0.00  0.00    +0.000 N 
ATOM     13  C   UNL     1       7.832   7.780  17.963  0.00  0.00    +0.000 C 
ATOM     14  O   UNL     1       8.508   7.405  18.915  0.00  0.00    +0.000 OA
ATOM     15  N   UNL     1       8.036  11.388  17.533  0.00  0.00    +0.000 NA
ATOM     16  H   UNL     1       7.043   9.220  16.732  0.00  0.00    +0.000 HD
ENDBRANCH   1  13
BRANCH   3  17
ATOM     17  O   UNL     1       3.535   5.486  17.232  0.00  0.00    +0.000 OA
BRANCH  17  18
ATOM     18  C   UNL     1       3.185   4.319  17.851  0.00  0.00    +0.000 A 
ATOM     19  C   UNL     1       2.589   3.219  17.267  0.00  0.00    +0.000 A 
ATOM     20  N   UNL     1       2.247   2.100  17.942  0.00  0.00    +0.000 NA
ATOM     21  C   UNL     1       2.556   2.090  19.248  0.00  0.00    +0.000 A 
ATOM     22  N   UNL     1       3.191   3.068  19.913  0.00  0.00    +0.000 NA
ATOM     23  C   UNL     1       3.498   4.164  19.185  0.00  0.00    +0.000 A 
ENDBRANCH  17  18
ENDBRANCH   3  17
TORSDOF 3
ENDMDL
