MODEL 1
REMARK VINA RESULT:      -6.2      0.000      0.000
REMARK  Name = 
REMARK  16 active torsions:
REMARK  status: ('A' for Active; 'I' for Inactive)
REMARK    1  A    between atoms: C_1  and  O_2
REMARK    2  A    between atoms: O_2  and  C_3
REMARK    3  A    between atoms: C_3  and  C_4
REMARK    4  A    between atoms: C_3  and  C_16
REMARK    5  A    between atoms: C_4  and  O_5
REMARK    6  A    between atoms: C_4  and  C_6
REMARK    7  A    between atoms: C_6  and  S_7
REMARK    8  A    between atoms: C_9  and  O_10
REMARK    9  A    between atoms: C_11  and  O_12
REMARK   10  A    between atoms: C_13  and  C_14
REMARK   11  A    between atoms: C_14  and  O_15
REMARK   12  A    between atoms: C_16  and  O_17
REMARK   13  A    between atoms: C_16  and  C_18
REMARK   14  A    between atoms: C_18  and  O_19
REMARK   15  A    between atoms: C_18  and  C_20
REMARK   16  A    between atoms: C_20  and  O_21
REMARK                            x       y       z     vdW  Elec       q    Type
REMARK                         _______ _______ _______ _____ _____    ______ ____
ROOT
ATOM      1  C   UNL     1       2.105   4.180  17.964  0.00  0.00    +0.000 C 
ENDROOT
BRANCH   1   2
ATOM      2  O   UNL     1       1.030   4.519  17.065  0.00  0.00    +0.000 OA
ATOM      3  H   UNL     1       0.529   5.249  17.475  0.00  0.00    +0.000 HD
ENDBRANCH   1   2
BRANCH   1   4
ATOM      4  C   UNL     1       1.616   4.267  19.446  0.00  0.00    +0.000 C 
BRANCH   4   6
ATOM      5  C   UNL     1       1.638   6.440  20.500  0.00  0.00    +0.000 C 
ATOM      6  O   UNL     1       2.384   5.276  20.129  0.00  0.00    +0.000 OA
ENDBRANCH   4   6
BRANCH   4   7
ATOM      7  C   UNL     1       1.770   2.943  20.243  0.00  0.00    +0.000 C 
BRANCH   7   8
ATOM      8  O   UNL     1       0.923   2.948  21.400  0.00  0.00    +0.000 OA
ATOM      9  H   UNL     1       1.281   3.601  22.033  0.00  0.00    +0.000 HD
ENDBRANCH   7   8
BRANCH   7  10
ATOM     10  C   UNL     1       3.203   2.650  20.748  0.00  0.00    +0.000 C 
BRANCH  10  11
ATOM     11  O   UNL     1       3.086   2.084  22.077  0.00  0.00    +0.000 OA
ATOM     12  H   UNL     1       2.134   2.049  22.292  0.00  0.00    +0.000 HD
ENDBRANCH  10  11
BRANCH  10  13
ATOM     13  C   UNL     1       4.044   1.709  19.878  0.00  0.00    +0.000 C 
BRANCH  13  14
ATOM     14  O   UNL     1       5.353   1.546  20.431  0.00  0.00    +0.000 OA
ATOM     15  H   UNL     1       5.881   1.024  19.803  0.00  0.00    +0.000 HD
ENDBRANCH  13  14
ENDBRANCH  10  13
ENDBRANCH   7  10
ENDBRANCH   4   7
ENDBRANCH   1   4
BRANCH   1  16
ATOM     16  C   UNL     1       3.322   5.001  17.524  0.00  0.00    +0.000 C 
BRANCH  16  17
ATOM     17  S   UNL     1       4.690   4.013  16.886  0.00  0.00    +0.000 S 
ATOM     18  C   UNL     1       5.420   5.214  15.756  0.00  0.00    +0.000 C 
ATOM     19  C   UNL     1       6.884   4.826  15.784  0.00  0.00    +0.000 C 
ATOM     20  C   UNL     1       7.277   4.760  17.282  0.00  0.00    +0.000 C 
ATOM     21  C   UNL     1       6.040   4.307  18.106  0.00  0.00    +0.000 C 
BRANCH  19  22
ATOM     22  O   UNL     1       7.679   5.745  15.041  0.00  0.00    +0.000 OA
ATOM     23  H   UNL     1       8.002   5.297  14.241  0.00  0.00    +0.000 HD
ENDBRANCH  19  22
BRANCH  20  24
ATOM     24  O   UNL     1       8.355   3.833  17.471  0.00  0.00    +0.000 OA
ATOM     25  H   UNL     1       9.009   4.249  18.060  0.00  0.00    +0.000 HD
ENDBRANCH  20  24
BRANCH  21  26
ATOM     26  C   UNL     1       5.736   5.287  19.245  0.00  0.00    +0.000 C 
BRANCH  26  27
ATOM     27  O   UNL     1       6.896   5.548  20.029  0.00  0.00    +0.000 OA
ATOM     28  H   UNL     1       7.491   6.118  19.510  0.00  0.00    +0.000 HD
ENDBRANCH  26  27
ENDBRANCH  21  26
ENDBRANCH  16  17
ENDBRANCH   1  16
TORSDOF 15
ENDMDL
MODEL 2
REMARK VINA RESULT:      -6.1      1.631      6.423
REMARK  Name = 
REMARK  16 active torsions:
REMARK  status: ('A' for Active; 'I' for Inactive)
REMARK    1  A    between atoms: C_1  and  O_2
REMARK    2  A    between atoms: O_2  and  C_3
REMARK    3  A    between atoms: C_3  and  C_4
REMARK    4  A    between atoms: C_3  and  C_16
REMARK    5  A    between atoms: C_4  and  O_5
REMARK    6  A    between atoms: C_4  and  C_6
REMARK    7  A    between atoms: C_6  and  S_7
REMARK    8  A    between atoms: C_9  and  O_10
REMARK    9  A    between atoms: C_11  and  O_12
REMARK   10  A    between atoms: C_13  and  C_14
REMARK   11  A    between atoms: C_14  and  O_15
REMARK   12  A    between atoms: C_16  and  O_17
REMARK   13  A    between atoms: C_16  and  C_18
REMARK   14  A    between atoms: C_18  and  O_19
REMARK   15  A    between atoms: C_18  and  C_20
REMARK   16  A    between atoms: C_20  and  O_21
REMARK                            x       y       z     vdW  Elec       q    Type
REMARK                         _______ _______ _______ _____ _____    ______ ____
ROOT
ATOM      1  C   UNL     1       6.351   4.951  18.212  0.00  0.00    +0.000 C 
ENDROOT
BRANCH   1   2
ATOM      2  O   UNL     1       7.017   5.022  19.489  0.00  0.00    +0.000 OA
ATOM      3  H   UNL     1       7.434   5.901  19.550  0.00  0.00    +0.000 HD
ENDBRANCH   1   2
BRANCH   1   4
ATOM      4  C   UNL     1       7.242   5.598  17.103  0.00  0.00    +0.000 C 
BRANCH   4   6
ATOM      5  C   UNL     1       7.792   7.876  17.688  0.00  0.00    +0.000 C 
ATOM      6  O   UNL     1       6.905   6.994  16.993  0.00  0.00    +0.000 OA
ENDBRANCH   4   6
BRANCH   4   7
ATOM      7  C   UNL     1       7.065   4.963  15.697  0.00  0.00    +0.000 C 
BRANCH   7   8
ATOM      8  O   UNL     1       7.846   5.668  14.722  0.00  0.00    +0.000 OA
ATOM      9  H   UNL     1       7.421   5.544  13.850  0.00  0.00    +0.000 HD
ENDBRANCH   7   8
BRANCH   7  10
ATOM     10  C   UNL     1       5.612   4.945  15.169  0.00  0.00    +0.000 C 
BRANCH  10  11
ATOM     11  O   UNL     1       5.195   6.323  15.002  0.00  0.00    +0.000 OA
ATOM     12  H   UNL     1       5.406   6.579  14.084  0.00  0.00    +0.000 HD
ENDBRANCH  10  11
BRANCH  10  13
ATOM     13  C   UNL     1       5.383   4.193  13.853  0.00  0.00    +0.000 C 
BRANCH  13  14
ATOM     14  O   UNL     1       6.422   3.236  13.632  0.00  0.00    +0.000 OA
ATOM     15  H   UNL     1       6.072   2.356  13.855  0.00  0.00    +0.000 HD
ENDBRANCH  13  14
ENDBRANCH  10  13
ENDBRANCH   7  10
ENDBRANCH   4   7
ENDBRANCH   1   4
BRANCH   1  16
ATOM     16  C   UNL     1       4.926   5.470  18.429  0.00  0.00    +0.000 C 
BRANCH  16  17
ATOM     17  S   UNL     1       3.670   4.176  18.502  0.00  0.00    +0.000 S 
ATOM     18  C   UNL     1       4.051   3.485  20.124  0.00  0.00    +0.000 C 
ATOM     19  C   UNL     1       2.693   2.998  20.587  0.00  0.00    +0.000 C 
ATOM     20  C   UNL     1       1.728   4.197  20.410  0.00  0.00    +0.000 C 
ATOM     21  C   UNL     1       2.198   5.044  19.193  0.00  0.00    +0.000 C 
BRANCH  19  22
ATOM     22  O   UNL     1       2.743   2.518  21.927  0.00  0.00    +0.000 OA
ATOM     23  H   UNL     1       3.520   1.941  22.020  0.00  0.00    +0.000 HD
ENDBRANCH  19  22
BRANCH  20  24
ATOM     24  O   UNL     1       0.391   3.729  20.191  0.00  0.00    +0.000 OA
ATOM     25  H   UNL     1       0.105   3.254  20.991  0.00  0.00    +0.000 HD
ENDBRANCH  20  24
BRANCH  21  26
ATOM     26  C   UNL     1       2.382   6.517  19.573  0.00  0.00    +0.000 C 
BRANCH  26  27
ATOM     27  O   UNL     1       2.086   6.741  20.948  0.00  0.00    +0.000 OA
ATOM     28  H   UNL     1       2.581   7.526  21.241  0.00  0.00    +0.000 HD
ENDBRANCH  26  27
ENDBRANCH  21  26
ENDBRANCH  16  17
ENDBRANCH   1  16
TORSDOF 15
ENDMDL
MODEL 3
REMARK VINA RESULT:      -6.1      1.519      6.038
REMARK  Name = 
REMARK  16 active torsions:
REMARK  status: ('A' for Active; 'I' for Inactive)
REMARK    1  A    between atoms: C_1  and  O_2
REMARK    2  A    between atoms: O_2  and  C_3
REMARK    3  A    between atoms: C_3  and  C_4
REMARK    4  A    between atoms: C_3  and  C_16
REMARK    5  A    between atoms: C_4  and  O_5
REMARK    6  A    between atoms: C_4  and  C_6
REMARK    7  A    between atoms: C_6  and  S_7
REMARK    8  A    between atoms: C_9  and  O_10
REMARK    9  A    between atoms: C_11  and  O_12
REMARK   10  A    between atoms: C_13  and  C_14
REMARK   11  A    between atoms: C_14  and  O_15
REMARK   12  A    between atoms: C_16  and  O_17
REMARK   13  A    between atoms: C_16  and  C_18
REMARK   14  A    between atoms: C_18  and  O_19
REMARK   15  A    between atoms: C_18  and  C_20
REMARK   16  A    between atoms: C_20  and  O_21
REMARK                            x       y       z     vdW  Elec       q    Type
REMARK                         _______ _______ _______ _____ _____    ______ ____
ROOT
ATOM      1  C   UNL     1       4.832   4.477  16.246  0.00  0.00    +0.000 C 
ENDROOT
BRANCH   1   2
ATOM      2  O   UNL     1       5.346   3.172  16.580  0.00  0.00    +0.000 OA
ATOM      3  H   UNL     1       5.269   2.617  15.782  0.00  0.00    +0.000 HD
ENDBRANCH   1   2
BRANCH   1   4
ATOM      4  C   UNL     1       5.993   5.404  15.761  0.00  0.00    +0.000 C 
BRANCH   4   6
ATOM      5  C   UNL     1       6.630   4.284  13.718  0.00  0.00    +0.000 C 
ATOM      6  O   UNL     1       6.971   4.602  15.071  0.00  0.00    +0.000 OA
ENDBRANCH   4   6
BRANCH   4   7
ATOM      7  C   UNL     1       6.728   6.153  16.906  0.00  0.00    +0.000 C 
BRANCH   7   8
ATOM      8  O   UNL     1       7.877   6.846  16.402  0.00  0.00    +0.000 OA
ATOM      9  H   UNL     1       8.126   6.436  15.550  0.00  0.00    +0.000 HD
ENDBRANCH   7   8
BRANCH   7  10
ATOM     10  C   UNL     1       7.227   5.250  18.059  0.00  0.00    +0.000 C 
BRANCH  10  11
ATOM     11  O   UNL     1       8.069   4.227  17.471  0.00  0.00    +0.000 OA
ATOM     12  H   UNL     1       7.485   3.490  17.207  0.00  0.00    +0.000 HD
ENDBRANCH  10  11
BRANCH  10  13
ATOM     13  C   UNL     1       8.005   5.954  19.176  0.00  0.00    +0.000 C 
BRANCH  13  14
ATOM     14  O   UNL     1       7.812   5.282  20.424  0.00  0.00    +0.000 OA
ATOM     15  H   UNL     1       8.555   5.516  21.008  0.00  0.00    +0.000 HD
ENDBRANCH  13  14
ENDBRANCH  10  13
ENDBRANCH   7  10
ENDBRANCH   4   7
ENDBRANCH   1   4
BRANCH   1  16
ATOM     16  C   UNL     1       3.957   4.921  17.422  0.00  0.00    +0.000 C 
BRANCH  16  17
ATOM     17  S   UNL     1       2.902   3.619  18.092  0.00  0.00    +0.000 S 
ATOM     18  C   UNL     1       4.003   2.971  19.364  0.00  0.00    +0.000 C 
ATOM     19  C   UNL     1       3.024   2.484  20.413  0.00  0.00    +0.000 C 
ATOM     20  C   UNL     1       2.065   3.671  20.681  0.00  0.00    +0.000 C 
ATOM     21  C   UNL     1       1.901   4.491  19.371  0.00  0.00    +0.000 C 
BRANCH  19  22
ATOM     22  O   UNL     1       3.697   2.038  21.585  0.00  0.00    +0.000 OA
ATOM     23  H   UNL     1       4.610   1.801  21.347  0.00  0.00    +0.000 HD
ENDBRANCH  19  22
BRANCH  20  24
ATOM     24  O   UNL     1       0.786   3.187  21.115  0.00  0.00    +0.000 OA
ATOM     25  H   UNL     1       0.852   2.221  21.223  0.00  0.00    +0.000 HD
ENDBRANCH  20  24
BRANCH  21  26
ATOM     26  C   UNL     1       2.214   5.975  19.595  0.00  0.00    +0.000 C 
BRANCH  26  27
ATOM     27  O   UNL     1       1.948   6.365  20.939  0.00  0.00    +0.000 OA
ATOM     28  H   UNL     1       1.066   6.032  21.183  0.00  0.00    +0.000 HD
ENDBRANCH  26  27
ENDBRANCH  21  26
ENDBRANCH  16  17
ENDBRANCH   1  16
TORSDOF 15
ENDMDL
MODEL 4
REMARK VINA RESULT:      -6.1      1.563      5.692
REMARK  Name = 
REMARK  16 active torsions:
REMARK  status: ('A' for Active; 'I' for Inactive)
REMARK    1  A    between atoms: C_1  and  O_2
REMARK    2  A    between atoms: O_2  and  C_3
REMARK    3  A    between atoms: C_3  and  C_4
REMARK    4  A    between atoms: C_3  and  C_16
REMARK    5  A    between atoms: C_4  and  O_5
REMARK    6  A    between atoms: C_4  and  C_6
REMARK    7  A    between atoms: C_6  and  S_7
REMARK    8  A    between atoms: C_9  and  O_10
REMARK    9  A    between atoms: C_11  and  O_12
REMARK   10  A    between atoms: C_13  and  C_14
REMARK   11  A    between atoms: C_14  and  O_15
REMARK   12  A    between atoms: C_16  and  O_17
REMARK   13  A    between atoms: C_16  and  C_18
REMARK   14  A    between atoms: C_18  and  O_19
REMARK   15  A    between atoms: C_18  and  C_20
REMARK   16  A    between atoms: C_20  and  O_21
REMARK                            x       y       z     vdW  Elec       q    Type
REMARK                         _______ _______ _______ _____ _____    ______ ____
ROOT
ATOM      1  C   UNL     1       4.057   5.340  17.804  0.00  0.00    +0.000 C 
ENDROOT
BRANCH   1   2
ATOM      2  O   UNL     1       3.709   6.642  18.316  0.00  0.00    +0.000 OA
ATOM      3  H   UNL     1       3.065   7.034  17.697  0.00  0.00    +0.000 HD
ENDBRANCH   1   2
BRANCH   1   4
ATOM      4  C   UNL     1       5.133   5.474  16.679  0.00  0.00    +0.000 C 
BRANCH   4   6
ATOM      5  C   UNL     1       5.392   4.210  14.637  0.00  0.00    +0.000 C 
ATOM      6  O   UNL     1       5.327   4.185  16.066  0.00  0.00    +0.000 OA
ENDBRANCH   4   6
BRANCH   4   7
ATOM      7  C   UNL     1       6.519   5.965  17.181  0.00  0.00    +0.000 C 
BRANCH   7   8
ATOM      8  O   UNL     1       7.408   6.185  16.077  0.00  0.00    +0.000 OA
ATOM      9  H   UNL     1       7.590   5.319  15.660  0.00  0.00    +0.000 HD
ENDBRANCH   7   8
BRANCH   7  10
ATOM     10  C   UNL     1       7.243   4.996  18.144  0.00  0.00    +0.000 C 
BRANCH  10  11
ATOM     11  O   UNL     1       8.116   4.162  17.343  0.00  0.00    +0.000 OA
ATOM     12  H   UNL     1       7.561   3.729  16.666  0.00  0.00    +0.000 HD
ENDBRANCH  10  11
BRANCH  10  13
ATOM     13  C   UNL     1       8.064   5.647  19.263  0.00  0.00    +0.000 C 
BRANCH  13  14
ATOM     14  O   UNL     1       8.377   7.004  18.934  0.00  0.00    +0.000 OA
ATOM     15  H   UNL     1       8.489   7.060  17.969  0.00  0.00    +0.000 HD
ENDBRANCH  13  14
ENDBRANCH  10  13
ENDBRANCH   7  10
ENDBRANCH   4   7
ENDBRANCH   1   4
BRANCH   1  16
ATOM     16  C   UNL     1       2.740   4.619  17.502  0.00  0.00    +0.000 C 
BRANCH  16  17
ATOM     17  S   UNL     1       2.539   3.050  18.372  0.00  0.00    +0.000 S 
ATOM     18  C   UNL     1       4.170   2.922  19.130  0.00  0.00    +0.000 C 
ATOM     19  C   UNL     1       3.869   2.155  20.401  0.00  0.00    +0.000 C 
ATOM     20  C   UNL     1       2.700   2.908  21.085  0.00  0.00    +0.000 C 
ATOM     21  C   UNL     1       1.803   3.545  19.987  0.00  0.00    +0.000 C 
BRANCH  19  22
ATOM     22  O   UNL     1       5.022   2.048  21.230  0.00  0.00    +0.000 OA
ATOM     23  H   UNL     1       5.516   2.884  21.180  0.00  0.00    +0.000 HD
ENDBRANCH  19  22
BRANCH  20  24
ATOM     24  O   UNL     1       1.926   2.003  21.883  0.00  0.00    +0.000 OA
ATOM     25  H   UNL     1       2.544   1.425  22.365  0.00  0.00    +0.000 HD
ENDBRANCH  20  24
BRANCH  21  26
ATOM     26  C   UNL     1       1.607   5.047  20.223  0.00  0.00    +0.000 C 
BRANCH  26  27
ATOM     27  O   UNL     1       2.677   5.597  20.986  0.00  0.00    +0.000 OA
ATOM     28  H   UNL     1       2.351   6.398  21.433  0.00  0.00    +0.000 HD
ENDBRANCH  26  27
ENDBRANCH  21  26
ENDBRANCH  16  17
ENDBRANCH   1  16
TORSDOF 15
ENDMDL
MODEL 5
REMARK VINA RESULT:      -5.9      2.079      6.035
REMARK  Name = 
REMARK  16 active torsions:
REMARK  status: ('A' for Active; 'I' for Inactive)
REMARK    1  A    between atoms: C_1  and  O_2
REMARK    2  A    between atoms: O_2  and  C_3
REMARK    3  A    between atoms: C_3  and  C_4
REMARK    4  A    between atoms: C_3  and  C_16
REMARK    5  A    between atoms: C_4  and  O_5
REMARK    6  A    between atoms: C_4  and  C_6
REMARK    7  A    between atoms: C_6  and  S_7
REMARK    8  A    between atoms: C_9  and  O_10
REMARK    9  A    between atoms: C_11  and  O_12
REMARK   10  A    between atoms: C_13  and  C_14
REMARK   11  A    between atoms: C_14  and  O_15
REMARK   12  A    between atoms: C_16  and  O_17
REMARK   13  A    between atoms: C_16  and  C_18
REMARK   14  A    between atoms: C_18  and  O_19
REMARK   15  A    between atoms: C_18  and  C_20
REMARK   16  A    between atoms: C_20  and  O_21
REMARK                            x       y       z     vdW  Elec       q    Type
REMARK                         _______ _______ _______ _____ _____    ______ ____
ROOT
ATOM      1  C   UNL     1       5.141   6.684  17.901  0.00  0.00    +0.000 C 
ENDROOT
BRANCH   1   2
ATOM      2  O   UNL     1       4.422   6.825  16.659  0.00  0.00    +0.000 OA
ATOM      3  H   UNL     1       3.557   7.224  16.869  0.00  0.00    +0.000 HD
ENDBRANCH   1   2
BRANCH   1   4
ATOM      4  C   UNL     1       6.618   6.255  17.622  0.00  0.00    +0.000 C 
BRANCH   4   6
ATOM      5  C   UNL     1       7.912   8.294  17.633  0.00  0.00    +0.000 C 
ATOM      6  O   UNL     1       7.264   7.286  16.851  0.00  0.00    +0.000 OA
ENDBRANCH   4   6
BRANCH   4   7
ATOM      7  C   UNL     1       6.754   4.926  16.830  0.00  0.00    +0.000 C 
BRANCH   7   8
ATOM      8  O   UNL     1       8.067   4.372  16.992  0.00  0.00    +0.000 OA
ATOM      9  H   UNL     1       7.969   3.472  17.363  0.00  0.00    +0.000 HD
ENDBRANCH   7   8
BRANCH   7  10
ATOM     10  C   UNL     1       6.512   5.048  15.307  0.00  0.00    +0.000 C 
BRANCH  10  11
ATOM     11  O   UNL     1       7.795   5.313  14.686  0.00  0.00    +0.000 OA
ATOM     12  H   UNL     1       7.973   4.579  14.067  0.00  0.00    +0.000 HD
ENDBRANCH  10  11
BRANCH  10  13
ATOM     13  C   UNL     1       5.871   3.834  14.627  0.00  0.00    +0.000 C 
BRANCH  13  14
ATOM     14  O   UNL     1       6.527   3.544  13.389  0.00  0.00    +0.000 OA
ATOM     15  H   UNL     1       7.439   3.880  13.448  0.00  0.00    +0.000 HD
ENDBRANCH  13  14
ENDBRANCH  10  13
ENDBRANCH   7  10
ENDBRANCH   4   7
ENDBRANCH   1   4
BRANCH   1  16
ATOM     16  C   UNL     1       4.269   5.823  18.820  0.00  0.00    +0.000 C 
BRANCH  16  17
ATOM     17  S   UNL     1       3.061   4.802  17.952  0.00  0.00    +0.000 S 
ATOM     18  C   UNL     1       3.862   3.195  18.113  0.00  0.00    +0.000 C 
ATOM     19  C   UNL     1       2.676   2.252  18.142  0.00  0.00    +0.000 C 
ATOM     20  C   UNL     1       1.719   2.807  19.227  0.00  0.00    +0.000 C 
ATOM     21  C   UNL     1       1.850   4.356  19.267  0.00  0.00    +0.000 C 
BRANCH  19  22
ATOM     22  O   UNL     1       3.084   0.912  18.395  0.00  0.00    +0.000 OA
ATOM     23  H   UNL     1       2.318   0.411  18.723  0.00  0.00    +0.000 HD
ENDBRANCH  19  22
BRANCH  20  24
ATOM     24  O   UNL     1       0.365   2.440  18.929  0.00  0.00    +0.000 OA
ATOM     25  H   UNL     1       0.074   1.799  19.602  0.00  0.00    +0.000 HD
ENDBRANCH  20  24
BRANCH  21  26
ATOM     26  C   UNL     1       2.155   4.857  20.683  0.00  0.00    +0.000 C 
BRANCH  26  27
ATOM     27  O   UNL     1       1.727   6.203  20.862  0.00  0.00    +0.000 OA
ATOM     28  H   UNL     1       2.130   6.746  20.162  0.00  0.00    +0.000 HD
ENDBRANCH  26  27
ENDBRANCH  21  26
ENDBRANCH  16  17
ENDBRANCH   1  16
TORSDOF 15
ENDMDL
MODEL 6
REMARK VINA RESULT:      -5.9      1.812      5.989
REMARK  Name = 
REMARK  16 active torsions:
REMARK  status: ('A' for Active; 'I' for Inactive)
REMARK    1  A    between atoms: C_1  and  O_2
REMARK    2  A    between atoms: O_2  and  C_3
REMARK    3  A    between atoms: C_3  and  C_4
REMARK    4  A    between atoms: C_3  and  C_16
REMARK    5  A    between atoms: C_4  and  O_5
REMARK    6  A    between atoms: C_4  and  C_6
REMARK    7  A    between atoms: C_6  and  S_7
REMARK    8  A    between atoms: C_9  and  O_10
REMARK    9  A    between atoms: C_11  and  O_12
REMARK   10  A    between atoms: C_13  and  C_14
REMARK   11  A    between atoms: C_14  and  O_15
REMARK   12  A    between atoms: C_16  and  O_17
REMARK   13  A    between atoms: C_16  and  C_18
REMARK   14  A    between atoms: C_18  and  O_19
REMARK   15  A    between atoms: C_18  and  C_20
REMARK   16  A    between atoms: C_20  and  O_21
REMARK                            x       y       z     vdW  Elec       q    Type
REMARK                         _______ _______ _______ _____ _____    ______ ____
ROOT
ATOM      1  C   UNL     1       4.329   4.284  17.146  0.00  0.00    +0.000 C 
ENDROOT
BRANCH   1   2
ATOM      2  O   UNL     1       3.162   3.980  16.355  0.00  0.00    +0.000 OA
ATOM      3  H   UNL     1       3.451   3.912  15.426  0.00  0.00    +0.000 HD
ENDBRANCH   1   2
BRANCH   1   4
ATOM      4  C   UNL     1       5.445   4.903  16.243  0.00  0.00    +0.000 C 
BRANCH   4   6
ATOM      5  C   UNL     1       6.090   3.833  14.176  0.00  0.00    +0.000 C 
ATOM      6  O   UNL     1       6.171   3.835  15.604  0.00  0.00    +0.000 OA
ENDBRANCH   4   6
BRANCH   4   7
ATOM      7  C   UNL     1       6.475   5.773  17.014  0.00  0.00    +0.000 C 
BRANCH   7   8
ATOM      8  O   UNL     1       7.511   6.229  16.133  0.00  0.00    +0.000 OA
ATOM      9  H   UNL     1       8.341   5.779  16.387  0.00  0.00    +0.000 HD
ENDBRANCH   7   8
BRANCH   7  10
ATOM     10  C   UNL     1       7.180   5.057  18.190  0.00  0.00    +0.000 C 
BRANCH  10  11
ATOM     11  O   UNL     1       8.136   4.128  17.620  0.00  0.00    +0.000 OA
ATOM     12  H   UNL     1       7.954   3.252  18.011  0.00  0.00    +0.000 HD
ENDBRANCH  10  11
BRANCH  10  13
ATOM     13  C   UNL     1       7.903   5.963  19.193  0.00  0.00    +0.000 C 
BRANCH  13  14
ATOM     14  O   UNL     1       7.970   5.338  20.478  0.00  0.00    +0.000 OA
ATOM     15  H   UNL     1       8.500   4.527  20.389  0.00  0.00    +0.000 HD
ENDBRANCH  13  14
ENDBRANCH  10  13
ENDBRANCH   7  10
ENDBRANCH   4   7
ENDBRANCH   1   4
BRANCH   1  16
ATOM     16  C   UNL     1       4.640   3.032  17.972  0.00  0.00    +0.000 C 
BRANCH  16  17
ATOM     17  S   UNL     1       4.339   3.220  19.741  0.00  0.00    +0.000 S 
ATOM     18  C   UNL     1       3.561   4.847  19.738  0.00  0.00    +0.000 C 
ATOM     19  C   UNL     1       2.628   4.754  20.928  0.00  0.00    +0.000 C 
ATOM     20  C   UNL     1       1.813   3.451  20.728  0.00  0.00    +0.000 C 
ATOM     21  C   UNL     1       2.701   2.412  19.987  0.00  0.00    +0.000 C 
BRANCH  19  22
ATOM     22  O   UNL     1       1.807   5.912  21.036  0.00  0.00    +0.000 OA
ATOM     23  H   UNL     1       0.902   5.631  21.254  0.00  0.00    +0.000 HD
ENDBRANCH  19  22
BRANCH  20  24
ATOM     24  O   UNL     1       1.402   2.924  21.997  0.00  0.00    +0.000 OA
ATOM     25  H   UNL     1       2.202   2.665  22.487  0.00  0.00    +0.000 HD
ENDBRANCH  20  24
BRANCH  21  26
ATOM     26  C   UNL     1       2.005   1.872  18.734  0.00  0.00    +0.000 C 
BRANCH  26  27
ATOM     27  O   UNL     1       0.626   2.228  18.710  0.00  0.00    +0.000 OA
ATOM     28  H   UNL     1       0.553   3.139  18.374  0.00  0.00    +0.000 HD
ENDBRANCH  26  27
ENDBRANCH  21  26
ENDBRANCH  16  17
ENDBRANCH   1  16
TORSDOF 15
ENDMDL
MODEL 7
REMARK VINA RESULT:      -5.9      1.856      6.191
REMARK  Name = 
REMARK  16 active torsions:
REMARK  status: ('A' for Active; 'I' for Inactive)
REMARK    1  A    between atoms: C_1  and  O_2
REMARK    2  A    between atoms: O_2  and  C_3
REMARK    3  A    between atoms: C_3  and  C_4
REMARK    4  A    between atoms: C_3  and  C_16
REMARK    5  A    between atoms: C_4  and  O_5
REMARK    6  A    between atoms: C_4  and  C_6
REMARK    7  A    between atoms: C_6  and  S_7
REMARK    8  A    between atoms: C_9  and  O_10
REMARK    9  A    between atoms: C_11  and  O_12
REMARK   10  A    between atoms: C_13  and  C_14
REMARK   11  A    between atoms: C_14  and  O_15
REMARK   12  A    between atoms: C_16  and  O_17
REMARK   13  A    between atoms: C_16  and  C_18
REMARK   14  A    between atoms: C_18  and  O_19
REMARK   15  A    between atoms: C_18  and  C_20
REMARK   16  A    between atoms: C_20  and  O_21
REMARK                            x       y       z     vdW  Elec       q    Type
REMARK                         _______ _______ _______ _____ _____    ______ ____
ROOT
ATOM      1  C   UNL     1       4.982   4.666  17.528  0.00  0.00    +0.000 C 
ENDROOT
BRANCH   1   2
ATOM      2  O   UNL     1       3.776   5.151  16.902  0.00  0.00    +0.000 OA
ATOM      3  H   UNL     1       3.985   6.014  16.500  0.00  0.00    +0.000 HD
ENDBRANCH   1   2
BRANCH   1   4
ATOM      4  C   UNL     1       6.214   4.939  16.606  0.00  0.00    +0.000 C 
BRANCH   4   6
ATOM      5  C   UNL     1       6.304   4.105  14.342  0.00  0.00    +0.000 C 
ATOM      6  O   UNL     1       6.404   3.806  15.737  0.00  0.00    +0.000 OA
ENDBRANCH   4   6
BRANCH   4   7
ATOM      7  C   UNL     1       7.544   5.165  17.376  0.00  0.00    +0.000 C 
BRANCH   7   8
ATOM      8  O   UNL     1       8.032   3.930  17.917  0.00  0.00    +0.000 OA
ATOM      9  H   UNL     1       8.193   4.063  18.872  0.00  0.00    +0.000 HD
ENDBRANCH   7   8
BRANCH   7  10
ATOM     10  C   UNL     1       7.452   6.158  18.558  0.00  0.00    +0.000 C 
BRANCH  10  11
ATOM     11  O   UNL     1       8.090   5.533  19.699  0.00  0.00    +0.000 OA
ATOM     12  H   UNL     1       7.866   6.068  20.484  0.00  0.00    +0.000 HD
ENDBRANCH  10  11
BRANCH  10  13
ATOM     13  C   UNL     1       8.081   7.538  18.330  0.00  0.00    +0.000 C 
BRANCH  13  14
ATOM     14  O   UNL     1       7.458   8.199  17.225  0.00  0.00    +0.000 OA
ATOM     15  H   UNL     1       8.159   8.608  16.687  0.00  0.00    +0.000 HD
ENDBRANCH  13  14
ENDBRANCH  10  13
ENDBRANCH   7  10
ENDBRANCH   4   7
ENDBRANCH   1   4
BRANCH   1  16
ATOM     16  C   UNL     1       4.693   3.235  17.992  0.00  0.00    +0.000 C 
BRANCH  16  17
ATOM     17  S   UNL     1       4.089   3.115  19.689  0.00  0.00    +0.000 S 
ATOM     18  C   UNL     1       3.566   4.823  19.938  0.00  0.00    +0.000 C 
ATOM     19  C   UNL     1       2.419   4.664  20.915  0.00  0.00    +0.000 C 
ATOM     20  C   UNL     1       1.480   3.597  20.297  0.00  0.00    +0.000 C 
ATOM     21  C   UNL     1       2.336   2.585  19.484  0.00  0.00    +0.000 C 
BRANCH  19  22
ATOM     22  O   UNL     1       1.767   5.906  21.156  0.00  0.00    +0.000 OA
ATOM     23  H   UNL     1       1.145   5.790  21.895  0.00  0.00    +0.000 HD
ENDBRANCH  19  22
BRANCH  20  24
ATOM     24  O   UNL     1       0.762   2.910  21.331  0.00  0.00    +0.000 OA
ATOM     25  H   UNL     1       0.881   3.407  22.159  0.00  0.00    +0.000 HD
ENDBRANCH  20  24
BRANCH  21  26
ATOM     26  C   UNL     1       1.822   2.443  18.048  0.00  0.00    +0.000 C 
BRANCH  26  27
ATOM     27  O   UNL     1       1.258   3.662  17.574  0.00  0.00    +0.000 OA
ATOM     28  H   UNL     1       1.858   4.035  16.904  0.00  0.00    +0.000 HD
ENDBRANCH  26  27
ENDBRANCH  21  26
ENDBRANCH  16  17
ENDBRANCH   1  16
TORSDOF 15
ENDMDL
MODEL 8
REMARK VINA RESULT:      -5.9      1.690      6.289
REMARK  Name = 
REMARK  16 active torsions:
REMARK  status: ('A' for Active; 'I' for Inactive)
REMARK    1  A    between atoms: C_1  and  O_2
REMARK    2  A    between atoms: O_2  and  C_3
REMARK    3  A    between atoms: C_3  and  C_4
REMARK    4  A    between atoms: C_3  and  C_16
REMARK    5  A    between atoms: C_4  and  O_5
REMARK    6  A    between atoms: C_4  and  C_6
REMARK    7  A    between atoms: C_6  and  S_7
REMARK    8  A    between atoms: C_9  and  O_10
REMARK    9  A    between atoms: C_11  and  O_12
REMARK   10  A    between atoms: C_13  and  C_14
REMARK   11  A    between atoms: C_14  and  O_15
REMARK   12  A    between atoms: C_16  and  O_17
REMARK   13  A    between atoms: C_16  and  C_18
REMARK   14  A    between atoms: C_18  and  O_19
REMARK   15  A    between atoms: C_18  and  C_20
REMARK   16  A    between atoms: C_20  and  O_21
REMARK                            x       y       z     vdW  Elec       q    Type
REMARK                         _______ _______ _______ _____ _____    ______ ____
ROOT
ATOM      1  C   UNL     1       6.196   4.602  18.460  0.00  0.00    +0.000 C 
ENDROOT
BRANCH   1   2
ATOM      2  O   UNL     1       6.126   5.362  19.684  0.00  0.00    +0.000 OA
ATOM      3  H   UNL     1       6.934   5.906  19.734  0.00  0.00    +0.000 HD
ENDBRANCH   1   2
BRANCH   1   4
ATOM      4  C   UNL     1       6.997   5.397  17.379  0.00  0.00    +0.000 C 
BRANCH   4   6
ATOM      5  C   UNL     1       7.500   7.753  17.546  0.00  0.00    +0.000 C 
ATOM      6  O   UNL     1       6.503   6.749  17.335  0.00  0.00    +0.000 OA
ENDBRANCH   4   6
BRANCH   4   7
ATOM      7  C   UNL     1       6.880   4.811  15.945  0.00  0.00    +0.000 C 
BRANCH   7   8
ATOM      8  O   UNL     1       7.826   5.433  15.065  0.00  0.00    +0.000 OA
ATOM      9  H   UNL     1       7.697   6.401  15.121  0.00  0.00    +0.000 HD
ENDBRANCH   7   8
BRANCH   7  10
ATOM     10  C   UNL     1       5.490   4.976  15.286  0.00  0.00    +0.000 C 
BRANCH  10  11
ATOM     11  O   UNL     1       5.339   6.376  14.941  0.00  0.00    +0.000 OA
ATOM     12  H   UNL     1       6.235   6.735  14.794  0.00  0.00    +0.000 HD
ENDBRANCH  10  11
BRANCH  10  13
ATOM     13  C   UNL     1       5.231   4.125  14.038  0.00  0.00    +0.000 C 
BRANCH  13  14
ATOM     14  O   UNL     1       6.414   3.418  13.655  0.00  0.00    +0.000 OA
ATOM     15  H   UNL     1       7.020   4.053  13.236  0.00  0.00    +0.000 HD
ENDBRANCH  13  14
ENDBRANCH  10  13
ENDBRANCH   7  10
ENDBRANCH   4   7
ENDBRANCH   1   4
BRANCH   1  16
ATOM     16  C   UNL     1       4.770   4.136  18.149  0.00  0.00    +0.000 C 
BRANCH  16  17
ATOM     17  S   UNL     1       3.562   4.547  19.424  0.00  0.00    +0.000 S 
ATOM     18  C   UNL     1       2.076   3.880  18.649  0.00  0.00    +0.000 C 
ATOM     19  C   UNL     1       1.247   3.476  19.851  0.00  0.00    +0.000 C 
ATOM     20  C   UNL     1       2.176   2.606  20.735  0.00  0.00    +0.000 C 
ATOM     21  C   UNL     1       3.638   3.105  20.570  0.00  0.00    +0.000 C 
BRANCH  19  22
ATOM     22  O   UNL     1       0.059   2.797  19.457  0.00  0.00    +0.000 OA
ATOM     23  H   UNL     1      -0.613   2.922  20.149  0.00  0.00    +0.000 HD
ENDBRANCH  19  22
BRANCH  20  24
ATOM     24  O   UNL     1       1.781   2.698  22.110  0.00  0.00    +0.000 OA
ATOM     25  H   UNL     1       2.565   2.518  22.660  0.00  0.00    +0.000 HD
ENDBRANCH  20  24
BRANCH  21  26
ATOM     26  C   UNL     1       4.581   1.963  20.176  0.00  0.00    +0.000 C 
BRANCH  26  27
ATOM     27  O   UNL     1       5.316   1.485  21.298  0.00  0.00    +0.000 OA
ATOM     28  H   UNL     1       6.041   0.924  20.970  0.00  0.00    +0.000 HD
ENDBRANCH  26  27
ENDBRANCH  21  26
ENDBRANCH  16  17
ENDBRANCH   1  16
TORSDOF 15
ENDMDL
MODEL 9
REMARK VINA RESULT:      -5.7      1.929      5.823
REMARK  Name = 
REMARK  16 active torsions:
REMARK  status: ('A' for Active; 'I' for Inactive)
REMARK    1  A    between atoms: C_1  and  O_2
REMARK    2  A    between atoms: O_2  and  C_3
REMARK    3  A    between atoms: C_3  and  C_4
REMARK    4  A    between atoms: C_3  and  C_16
REMARK    5  A    between atoms: C_4  and  O_5
REMARK    6  A    between atoms: C_4  and  C_6
REMARK    7  A    between atoms: C_6  and  S_7
REMARK    8  A    between atoms: C_9  and  O_10
REMARK    9  A    between atoms: C_11  and  O_12
REMARK   10  A    between atoms: C_13  and  C_14
REMARK   11  A    between atoms: C_14  and  O_15
REMARK   12  A    between atoms: C_16  and  O_17
REMARK   13  A    between atoms: C_16  and  C_18
REMARK   14  A    between atoms: C_18  and  O_19
REMARK   15  A    between atoms: C_18  and  C_20
REMARK   16  A    between atoms: C_20  and  O_21
REMARK                            x       y       z     vdW  Elec       q    Type
REMARK                         _______ _______ _______ _____ _____    ______ ____
ROOT
ATOM      1  C   UNL     1       5.088   6.913  17.447  0.00  0.00    +0.000 C 
ENDROOT
BRANCH   1   2
ATOM      2  O   UNL     1       4.543   6.908  16.112  0.00  0.00    +0.000 OA
ATOM      3  H   UNL     1       5.291   6.993  15.493  0.00  0.00    +0.000 HD
ENDBRANCH   1   2
BRANCH   1   4
ATOM      4  C   UNL     1       6.566   6.405  17.427  0.00  0.00    +0.000 C 
BRANCH   4   6
ATOM      5  C   UNL     1       7.896   8.406  17.670  0.00  0.00    +0.000 C 
ATOM      6  O   UNL     1       7.390   7.400  16.788  0.00  0.00    +0.000 OA
ENDBRANCH   4   6
BRANCH   4   7
ATOM      7  C   UNL     1       6.767   5.069  16.661  0.00  0.00    +0.000 C 
BRANCH   7   8
ATOM      8  O   UNL     1       8.074   4.534  16.913  0.00  0.00    +0.000 OA
ATOM      9  H   UNL     1       8.068   3.592  16.651  0.00  0.00    +0.000 HD
ENDBRANCH   7   8
BRANCH   7  10
ATOM     10  C   UNL     1       6.622   5.172  15.125  0.00  0.00    +0.000 C 
BRANCH  10  11
ATOM     11  O   UNL     1       7.922   5.527  14.591  0.00  0.00    +0.000 OA
ATOM     12  H   UNL     1       7.984   6.502  14.607  0.00  0.00    +0.000 HD
ENDBRANCH  10  11
BRANCH  10  13
ATOM     13  C   UNL     1       6.117   3.913  14.410  0.00  0.00    +0.000 C 
BRANCH  13  14
ATOM     14  O   UNL     1       5.958   2.837  15.338  0.00  0.00    +0.000 OA
ATOM     15  H   UNL     1       5.252   3.081  15.963  0.00  0.00    +0.000 HD
ENDBRANCH  13  14
ENDBRANCH  10  13
ENDBRANCH   7  10
ENDBRANCH   4   7
ENDBRANCH   1   4
BRANCH   1  16
ATOM     16  C   UNL     1       4.063   6.210  18.344  0.00  0.00    +0.000 C 
BRANCH  16  17
ATOM     17  S   UNL     1       3.707   4.507  17.867  0.00  0.00    +0.000 S 
ATOM     18  C   UNL     1       4.880   3.650  18.936  0.00  0.00    +0.000 C 
ATOM     19  C   UNL     1       4.172   2.335  19.193  0.00  0.00    +0.000 C 
ATOM     20  C   UNL     1       2.745   2.707  19.668  0.00  0.00    +0.000 C 
ATOM     21  C   UNL     1       2.315   4.031  18.976  0.00  0.00    +0.000 C 
BRANCH  19  22
ATOM     22  O   UNL     1       4.882   1.539  20.136  0.00  0.00    +0.000 OA
ATOM     23  H   UNL     1       5.621   2.062  20.489  0.00  0.00    +0.000 HD
ENDBRANCH  19  22
BRANCH  20  24
ATOM     24  O   UNL     1       1.823   1.661  19.334  0.00  0.00    +0.000 OA
ATOM     25  H   UNL     1       1.411   1.886  18.481  0.00  0.00    +0.000 HD
ENDBRANCH  20  24
BRANCH  21  26
ATOM     26  C   UNL     1       1.863   5.078  20.000  0.00  0.00    +0.000 C 
BRANCH  26  27
ATOM     27  O   UNL     1       2.477   4.865  21.268  0.00  0.00    +0.000 OA
ATOM     28  H   UNL     1       3.101   4.122  21.182  0.00  0.00    +0.000 HD
ENDBRANCH  26  27
ENDBRANCH  21  26
ENDBRANCH  16  17
ENDBRANCH   1  16
TORSDOF 15
ENDMDL
