MODEL 1
REMARK VINA RESULT:      -6.9      0.000      0.000
REMARK  Name = 
REMARK  3 active torsions:
REMARK  status: ('A' for Active; 'I' for Inactive)
REMARK    1  A    between atoms: C_1  and  C_2
REMARK    2  A    between atoms: C_3  and  O_4
REMARK    3  A    between atoms: C_9  and  O_10
REMARK                            x       y       z     vdW  Elec       q    Type
REMARK                         _______ _______ _______ _____ _____    ______ ____
ROOT
ATOM      1  C   UNL     1       5.463   4.003  16.036  0.00  0.00    +0.000 C 
ATOM      2  C   UNL     1       4.579   4.463  17.166  0.00  0.00    +0.000 A 
ATOM      3  C   UNL     1       4.173   3.660  18.238  0.00  0.00    +0.000 A 
ATOM      4  C   UNL     1       3.336   4.166  19.266  0.00  0.00    +0.000 A 
ATOM      5 BR   UNL     1       2.863   2.941  20.665  0.00  0.00    +0.000 Br
ATOM      6  C   UNL     1       2.892   5.507  19.230  0.00  0.00    +0.000 A 
ATOM      7  C   UNL     1       3.297   6.313  18.157  0.00  0.00    +0.000 A 
ATOM      8  C   UNL     1       4.129   5.790  17.145  0.00  0.00    +0.000 A 
ATOM      9  C   UNL     1       2.863   7.724  18.061  0.00  0.00    +0.000 C 
ATOM     10  O   UNL     1       3.229   8.414  17.113  0.00  0.00    +0.000 OA
ATOM     11  C   UNL     1       1.999   8.303  19.091  0.00  0.00    +0.000 A 
ATOM     12  C   UNL     1       1.595   9.642  18.986  0.00  0.00    +0.000 A 
ATOM     13  C   UNL     1       0.774  10.201  19.962  0.00  0.00    +0.000 A 
ATOM     14  C   UNL     1       0.355   9.425  21.043  0.00  0.00    +0.000 A 
ATOM     15  C   UNL     1       0.758   8.092  21.143  0.00  0.00    +0.000 A 
ATOM     16  C   UNL     1       1.585   7.525  20.162  0.00  0.00    +0.000 A 
ATOM     17  C   UNL     1       2.010   6.114  20.275  0.00  0.00    +0.000 C 
ATOM     18  O   UNL     1       1.609   5.493  21.250  0.00  0.00    +0.000 OA
ENDROOT
BRANCH   3  19
ATOM     19  O   UNL     1       4.567   2.349  18.339  0.00  0.00    +0.000 OA
ATOM     20  H   UNL     1       5.507   2.236  18.140  0.00  0.00    +0.000 HD
ENDBRANCH   3  19
BRANCH   8  21
ATOM     21  O   UNL     1       4.545   6.554  16.079  0.00  0.00    +0.000 OA
ATOM     22  H   UNL     1       5.400   6.201  15.742  0.00  0.00    +0.000 HD
ENDBRANCH   8  21
TORSDOF 2
ENDMDL
MODEL 2
REMARK VINA RESULT:      -6.9      1.678      3.325
REMARK  Name = 
REMARK  3 active torsions:
REMARK  status: ('A' for Active; 'I' for Inactive)
REMARK    1  A    between atoms: C_1  and  C_2
REMARK    2  A    between atoms: C_3  and  O_4
REMARK    3  A    between atoms: C_9  and  O_10
REMARK                            x       y       z     vdW  Elec       q    Type
REMARK                         _______ _______ _______ _____ _____    ______ ____
ROOT
ATOM      1  C   UNL     1       4.086   2.336  19.909  0.00  0.00    +0.000 C 
ATOM      2  C   UNL     1       3.891   3.687  19.270  0.00  0.00    +0.000 A 
ATOM      3  C   UNL     1       4.480   4.093  18.067  0.00  0.00    +0.000 A 
ATOM      4  C   UNL     1       4.250   5.385  17.529  0.00  0.00    +0.000 A 
ATOM      5 BR   UNL     1       5.132   5.793  15.875  0.00  0.00    +0.000 Br
ATOM      6  C   UNL     1       3.409   6.300  18.203  0.00  0.00    +0.000 A 
ATOM      7  C   UNL     1       2.817   5.896  19.408  0.00  0.00    +0.000 A 
ATOM      8  C   UNL     1       3.061   4.607  19.927  0.00  0.00    +0.000 A 
ATOM      9  C   UNL     1       1.931   6.809  20.162  0.00  0.00    +0.000 C 
ATOM     10  O   UNL     1       1.422   6.436  21.216  0.00  0.00    +0.000 OA
ATOM     11  C   UNL     1       1.655   8.155  19.658  0.00  0.00    +0.000 A 
ATOM     12  C   UNL     1       0.812   9.009  20.383  0.00  0.00    +0.000 A 
ATOM     13  C   UNL     1       0.544  10.291  19.910  0.00  0.00    +0.000 A 
ATOM     14  C   UNL     1       1.115  10.722  18.713  0.00  0.00    +0.000 A 
ATOM     15  C   UNL     1       1.955   9.869  17.994  0.00  0.00    +0.000 A 
ATOM     16  C   UNL     1       2.228   8.577  18.467  0.00  0.00    +0.000 A 
ATOM     17  C   UNL     1       3.115   7.678  17.700  0.00  0.00    +0.000 C 
ATOM     18  O   UNL     1       3.580   8.119  16.658  0.00  0.00    +0.000 OA
ENDROOT
BRANCH   3  19
ATOM     19  O   UNL     1       5.307   3.257  17.359  0.00  0.00    +0.000 OA
ATOM     20  H   UNL     1       5.592   2.497  17.885  0.00  0.00    +0.000 HD
ENDBRANCH   3  19
BRANCH   8  21
ATOM     21  O   UNL     1       2.496   4.179  21.106  0.00  0.00    +0.000 OA
ATOM     22  H   UNL     1       1.802   3.510  20.908  0.00  0.00    +0.000 HD
ENDBRANCH   8  21
TORSDOF 2
ENDMDL
MODEL 3
REMARK VINA RESULT:      -6.8      2.380      5.892
REMARK  Name = 
REMARK  3 active torsions:
REMARK  status: ('A' for Active; 'I' for Inactive)
REMARK    1  A    between atoms: C_1  and  C_2
REMARK    2  A    between atoms: C_3  and  O_4
REMARK    3  A    between atoms: C_9  and  O_10
REMARK                            x       y       z     vdW  Elec       q    Type
REMARK                         _______ _______ _______ _____ _____    ______ ____
ROOT
ATOM      1  C   UNL     1       1.162   3.046  21.332  0.00  0.00    +0.000 C 
ATOM      2  C   UNL     1       1.864   3.922  20.327  0.00  0.00    +0.000 A 
ATOM      3  C   UNL     1       1.766   5.317  20.279  0.00  0.00    +0.000 A 
ATOM      4  C   UNL     1       2.458   6.074  19.299  0.00  0.00    +0.000 A 
ATOM      5 BR   UNL     1       2.218   7.977  19.360  0.00  0.00    +0.000 Br
ATOM      6  C   UNL     1       3.273   5.429  18.342  0.00  0.00    +0.000 A 
ATOM      7  C   UNL     1       3.374   4.031  18.388  0.00  0.00    +0.000 A 
ATOM      8  C   UNL     1       2.676   3.297  19.370  0.00  0.00    +0.000 A 
ATOM      9  C   UNL     1       4.208   3.298  17.412  0.00  0.00    +0.000 C 
ATOM     10  O   UNL     1       4.283   2.072  17.470  0.00  0.00    +0.000 OA
ATOM     11  C   UNL     1       4.946   4.023  16.377  0.00  0.00    +0.000 A 
ATOM     12  C   UNL     1       5.733   3.314  15.458  0.00  0.00    +0.000 A 
ATOM     13  C   UNL     1       6.439   3.997  14.472  0.00  0.00    +0.000 A 
ATOM     14  C   UNL     1       6.361   5.387  14.400  0.00  0.00    +0.000 A 
ATOM     15  C   UNL     1       5.576   6.090  15.316  0.00  0.00    +0.000 A 
ATOM     16  C   UNL     1       4.863   5.406  16.312  0.00  0.00    +0.000 A 
ATOM     17  C   UNL     1       4.035   6.156  17.279  0.00  0.00    +0.000 C 
ATOM     18  O   UNL     1       4.014   7.374  17.161  0.00  0.00    +0.000 OA
ENDROOT
BRANCH   3  19
ATOM     19  O   UNL     1       0.994   6.010  21.177  0.00  0.00    +0.000 OA
ATOM     20  H   UNL     1       1.528   6.457  21.847  0.00  0.00    +0.000 HD
ENDBRANCH   3  19
BRANCH   8  21
ATOM     21  O   UNL     1       2.753   1.926  19.444  0.00  0.00    +0.000 OA
ATOM     22  H   UNL     1       1.859   1.543  19.292  0.00  0.00    +0.000 HD
ENDBRANCH   8  21
TORSDOF 2
ENDMDL
MODEL 4
REMARK VINA RESULT:      -6.6      1.775      3.315
REMARK  Name = 
REMARK  3 active torsions:
REMARK  status: ('A' for Active; 'I' for Inactive)
REMARK    1  A    between atoms: C_1  and  C_2
REMARK    2  A    between atoms: C_3  and  O_4
REMARK    3  A    between atoms: C_9  and  O_10
REMARK                            x       y       z     vdW  Elec       q    Type
REMARK                         _______ _______ _______ _____ _____    ______ ____
ROOT
ATOM      1  C   UNL     1       4.101   1.359  18.534  0.00  0.00    +0.000 C 
ATOM      2  C   UNL     1       3.897   2.843  18.367  0.00  0.00    +0.000 A 
ATOM      3  C   UNL     1       4.491   3.622  17.368  0.00  0.00    +0.000 A 
ATOM      4  C   UNL     1       4.252   5.018  17.277  0.00  0.00    +0.000 A 
ATOM      5 BR   UNL     1       5.142   5.948  15.855  0.00  0.00    +0.000 Br
ATOM      6  C   UNL     1       3.397   5.657  18.202  0.00  0.00    +0.000 A 
ATOM      7  C   UNL     1       2.800   4.879  19.205  0.00  0.00    +0.000 A 
ATOM      8  C   UNL     1       3.052   3.493  19.278  0.00  0.00    +0.000 A 
ATOM      9  C   UNL     1       1.898   5.491  20.205  0.00  0.00    +0.000 C 
ATOM     10  O   UNL     1       1.385   4.791  21.075  0.00  0.00    +0.000 OA
ATOM     11  C   UNL     1       1.612   6.925  20.163  0.00  0.00    +0.000 A 
ATOM     12  C   UNL     1       0.755   7.492  21.118  0.00  0.00    +0.000 A 
ATOM     13  C   UNL     1       0.478   8.856  21.084  0.00  0.00    +0.000 A 
ATOM     14  C   UNL     1       1.054   9.656  20.098  0.00  0.00    +0.000 A 
ATOM     15  C   UNL     1       1.907   9.090  19.150  0.00  0.00    +0.000 A 
ATOM     16  C   UNL     1       2.190   7.716  19.180  0.00  0.00    +0.000 A 
ATOM     17  C   UNL     1       3.093   7.122  18.172  0.00  0.00    +0.000 C 
ATOM     18  O   UNL     1       3.561   7.882  17.335  0.00  0.00    +0.000 OA
ENDROOT
BRANCH   3  19
ATOM     19  O   UNL     1       5.331   3.068  16.435  0.00  0.00    +0.000 OA
ATOM     20  H   UNL     1       4.946   3.077  15.548  0.00  0.00    +0.000 HD
ENDBRANCH   3  19
BRANCH   8  21
ATOM     21  O   UNL     1       2.483   2.701  20.249  0.00  0.00    +0.000 OA
ATOM     22  H   UNL     1       1.937   2.004  19.818  0.00  0.00    +0.000 HD
ENDBRANCH   8  21
TORSDOF 2
ENDMDL
MODEL 5
REMARK VINA RESULT:      -6.5      1.729      5.353
REMARK  Name = 
REMARK  3 active torsions:
REMARK  status: ('A' for Active; 'I' for Inactive)
REMARK    1  A    between atoms: C_1  and  C_2
REMARK    2  A    between atoms: C_3  and  O_4
REMARK    3  A    between atoms: C_9  and  O_10
REMARK                            x       y       z     vdW  Elec       q    Type
REMARK                         _______ _______ _______ _____ _____    ______ ____
ROOT
ATOM      1  C   UNL     1       1.010   6.802  21.097  0.00  0.00    +0.000 C 
ATOM      2  C   UNL     1       1.736   5.853  20.178  0.00  0.00    +0.000 A 
ATOM      3  C   UNL     1       1.624   4.459  20.221  0.00  0.00    +0.000 A 
ATOM      4  C   UNL     1       2.343   3.631  19.320  0.00  0.00    +0.000 A 
ATOM      5 BR   UNL     1       2.086   1.739  19.508  0.00  0.00    +0.000 Br
ATOM      6  C   UNL     1       3.195   4.203  18.349  0.00  0.00    +0.000 A 
ATOM      7  C   UNL     1       3.309   5.600  18.304  0.00  0.00    +0.000 A 
ATOM      8  C   UNL     1       2.586   6.405  19.209  0.00  0.00    +0.000 A 
ATOM      9  C   UNL     1       4.187   6.258  17.312  0.00  0.00    +0.000 C 
ATOM     10  O   UNL     1       4.273   7.484  17.289  0.00  0.00    +0.000 OA
ATOM     11  C   UNL     1       4.954   5.457  16.357  0.00  0.00    +0.000 A 
ATOM     12  C   UNL     1       5.783   6.095  15.423  0.00  0.00    +0.000 A 
ATOM     13  C   UNL     1       6.515   5.341  14.510  0.00  0.00    +0.000 A 
ATOM     14  C   UNL     1       6.421   3.950  14.528  0.00  0.00    +0.000 A 
ATOM     15  C   UNL     1       5.596   3.317  15.460  0.00  0.00    +0.000 A 
ATOM     16  C   UNL     1       4.857   4.074  16.382  0.00  0.00    +0.000 A 
ATOM     17  C   UNL     1       3.984   3.398  17.364  0.00  0.00    +0.000 C 
ATOM     18  O   UNL     1       3.947   2.176  17.322  0.00  0.00    +0.000 OA
ENDROOT
BRANCH   3  19
ATOM     19  O   UNL     1       0.814   3.835  21.137  0.00  0.00    +0.000 OA
ATOM     20  H   UNL     1       0.277   3.140  20.733  0.00  0.00    +0.000 HD
ENDBRANCH   3  19
BRANCH   8  21
ATOM     21  O   UNL     1       2.675   7.777  19.192  0.00  0.00    +0.000 OA
ATOM     22  H   UNL     1       3.092   8.085  20.029  0.00  0.00    +0.000 HD
ENDBRANCH   8  21
TORSDOF 2
ENDMDL
MODEL 6
REMARK VINA RESULT:      -6.4      0.978      1.077
REMARK  Name = 
REMARK  3 active torsions:
REMARK  status: ('A' for Active; 'I' for Inactive)
REMARK    1  A    between atoms: C_1  and  C_2
REMARK    2  A    between atoms: C_3  and  O_4
REMARK    3  A    between atoms: C_9  and  O_10
REMARK                            x       y       z     vdW  Elec       q    Type
REMARK                         _______ _______ _______ _____ _____    ______ ____
ROOT
ATOM      1  C   UNL     1       5.894   5.204  14.974  0.00  0.00    +0.000 C 
ATOM      2  C   UNL     1       5.088   5.271  16.245  0.00  0.00    +0.000 A 
ATOM      3  C   UNL     1       4.977   4.230  17.175  0.00  0.00    +0.000 A 
ATOM      4  C   UNL     1       4.194   4.368  18.351  0.00  0.00    +0.000 A 
ATOM      5 BR   UNL     1       4.138   2.851  19.524  0.00  0.00    +0.000 Br
ATOM      6  C   UNL     1       3.505   5.574  18.612  0.00  0.00    +0.000 A 
ATOM      7  C   UNL     1       3.614   6.618  17.683  0.00  0.00    +0.000 A 
ATOM      8  C   UNL     1       4.397   6.460  16.520  0.00  0.00    +0.000 A 
ATOM      9  C   UNL     1       2.914   7.903  17.899  0.00  0.00    +0.000 C 
ATOM     10  O   UNL     1       3.023   8.806  17.072  0.00  0.00    +0.000 OA
ATOM     11  C   UNL     1       2.093   8.105  19.092  0.00  0.00    +0.000 A 
ATOM     12  C   UNL     1       1.434   9.329  19.283  0.00  0.00    +0.000 A 
ATOM     13  C   UNL     1       0.651   9.530  20.417  0.00  0.00    +0.000 A 
ATOM     14  C   UNL     1       0.524   8.511  21.361  0.00  0.00    +0.000 A 
ATOM     15  C   UNL     1       1.179   7.294  21.167  0.00  0.00    +0.000 A 
ATOM     16  C   UNL     1       1.969   7.088  20.027  0.00  0.00    +0.000 A 
ATOM     17  C   UNL     1       2.663   5.797  19.828  0.00  0.00    +0.000 C 
ATOM     18  O   UNL     1       2.510   4.949  20.697  0.00  0.00    +0.000 OA
ENDROOT
BRANCH   3  19
ATOM     19  O   UNL     1       5.620   3.032  16.986  0.00  0.00    +0.000 OA
ATOM     20  H   UNL     1       5.698   2.806  16.050  0.00  0.00    +0.000 HD
ENDBRANCH   3  19
BRANCH   8  21
ATOM     21  O   UNL     1       4.525   7.464  15.588  0.00  0.00    +0.000 OA
ATOM     22  H   UNL     1       5.253   7.236  14.965  0.00  0.00    +0.000 HD
ENDBRANCH   8  21
TORSDOF 2
ENDMDL
MODEL 7
REMARK VINA RESULT:      -6.3      3.197      6.601
REMARK  Name = 
REMARK  3 active torsions:
REMARK  status: ('A' for Active; 'I' for Inactive)
REMARK    1  A    between atoms: C_1  and  C_2
REMARK    2  A    between atoms: C_3  and  O_4
REMARK    3  A    between atoms: C_9  and  O_10
REMARK                            x       y       z     vdW  Elec       q    Type
REMARK                         _______ _______ _______ _____ _____    ______ ____
ROOT
ATOM      1  C   UNL     1      -0.327  14.096  19.478  0.00  0.00    +0.000 C 
ATOM      2  C   UNL     1      -0.016  12.684  19.904  0.00  0.00    +0.000 A 
ATOM      3  C   UNL     1      -0.417  12.110  21.116  0.00  0.00    +0.000 A 
ATOM      4  C   UNL     1      -0.083  10.771  21.446  0.00  0.00    +0.000 A 
ATOM      5 BR   UNL     1      -0.701  10.130  23.146  0.00  0.00    +0.000 Br
ATOM      6  C   UNL     1       0.667   9.979  20.548  0.00  0.00    +0.000 A 
ATOM      7  C   UNL     1       1.069  10.552  19.333  0.00  0.00    +0.000 A 
ATOM      8  C   UNL     1       0.728  11.885  19.024  0.00  0.00    +0.000 A 
ATOM      9  C   UNL     1       1.859   9.775  18.352  0.00  0.00    +0.000 C 
ATOM     10  O   UNL     1       2.202  10.296  17.293  0.00  0.00    +0.000 OA
ATOM     11  C   UNL     1       2.234   8.390  18.637  0.00  0.00    +0.000 A 
ATOM     12  C   UNL     1       2.983   7.666  17.698  0.00  0.00    +0.000 A 
ATOM     13  C   UNL     1       3.343   6.347  17.960  0.00  0.00    +0.000 A 
ATOM     14  C   UNL     1       2.956   5.748  19.158  0.00  0.00    +0.000 A 
ATOM     15  C   UNL     1       2.211   6.472  20.092  0.00  0.00    +0.000 A 
ATOM     16  C   UNL     1       1.847   7.801  19.831  0.00  0.00    +0.000 A 
ATOM     17  C   UNL     1       1.056   8.561  20.822  0.00  0.00    +0.000 C 
ATOM     18  O   UNL     1       0.749   7.973  21.851  0.00  0.00    +0.000 OA
ENDROOT
BRANCH   3  19
ATOM     19  O   UNL     1      -1.148  12.820  22.035  0.00  0.00    +0.000 OA
ATOM     20  H   UNL     1      -1.851  13.336  21.619  0.00  0.00    +0.000 HD
ENDBRANCH   3  19
BRANCH   8  21
ATOM     21  O   UNL     1       1.107  12.477  17.841  0.00  0.00    +0.000 OA
ATOM     22  H   UNL     1       0.789  11.928  17.088  0.00  0.00    +0.000 HD
ENDBRANCH   8  21
TORSDOF 2
ENDMDL
MODEL 8
REMARK VINA RESULT:      -6.2      2.888      4.680
REMARK  Name = 
REMARK  3 active torsions:
REMARK  status: ('A' for Active; 'I' for Inactive)
REMARK    1  A    between atoms: C_1  and  C_2
REMARK    2  A    between atoms: C_3  and  O_4
REMARK    3  A    between atoms: C_9  and  O_10
REMARK                            x       y       z     vdW  Elec       q    Type
REMARK                         _______ _______ _______ _____ _____    ______ ____
ROOT
ATOM      1  C   UNL     1       6.298   4.728  14.440  0.00  0.00    +0.000 C 
ATOM      2  C   UNL     1       5.403   5.014  15.618  0.00  0.00    +0.000 A 
ATOM      3  C   UNL     1       4.911   6.279  15.958  0.00  0.00    +0.000 A 
ATOM      4  C   UNL     1       4.072   6.469  17.086  0.00  0.00    +0.000 A 
ATOM      5 BR   UNL     1       3.483   8.264  17.423  0.00  0.00    +0.000 Br
ATOM      6  C   UNL     1       3.709   5.372  17.899  0.00  0.00    +0.000 A 
ATOM      7  C   UNL     1       4.200   4.102  17.561  0.00  0.00    +0.000 A 
ATOM      8  C   UNL     1       5.033   3.935  16.435  0.00  0.00    +0.000 A 
ATOM      9  C   UNL     1       3.858   2.915  18.374  0.00  0.00    +0.000 C 
ATOM     10  O   UNL     1       4.298   1.811  18.060  0.00  0.00    +0.000 OA
ATOM     11  C   UNL     1       2.997   3.047  19.549  0.00  0.00    +0.000 A 
ATOM     12  C   UNL     1       2.681   1.912  20.310  0.00  0.00    +0.000 A 
ATOM     13  C   UNL     1       1.862   2.029  21.430  0.00  0.00    +0.000 A 
ATOM     14  C   UNL     1       1.356   3.277  21.791  0.00  0.00    +0.000 A 
ATOM     15  C   UNL     1       1.672   4.405  21.032  0.00  0.00    +0.000 A 
ATOM     16  C   UNL     1       2.498   4.292  19.903  0.00  0.00    +0.000 A 
ATOM     17  C   UNL     1       2.828   5.489  19.102  0.00  0.00    +0.000 C 
ATOM     18  O   UNL     1       2.348   6.552  19.474  0.00  0.00    +0.000 OA
ENDROOT
BRANCH   3  19
ATOM     19  O   UNL     1       5.222   7.390  15.213  0.00  0.00    +0.000 OA
ATOM     20  H   UNL     1       4.931   8.206  15.641  0.00  0.00    +0.000 HD
ENDBRANCH   3  19
BRANCH   8  21
ATOM     21  O   UNL     1       5.532   2.705  16.076  0.00  0.00    +0.000 OA
ATOM     22  H   UNL     1       4.787   2.121  15.802  0.00  0.00    +0.000 HD
ENDBRANCH   8  21
TORSDOF 2
ENDMDL
MODEL 9
REMARK VINA RESULT:      -6.2      2.556      5.805
REMARK  Name = 
REMARK  3 active torsions:
REMARK  status: ('A' for Active; 'I' for Inactive)
REMARK    1  A    between atoms: C_1  and  C_2
REMARK    2  A    between atoms: C_3  and  O_4
REMARK    3  A    between atoms: C_9  and  O_10
REMARK                            x       y       z     vdW  Elec       q    Type
REMARK                         _______ _______ _______ _____ _____    ______ ____
ROOT
ATOM      1  C   UNL     1       0.974  12.910  18.594  0.00  0.00    +0.000 C 
ATOM      2  C   UNL     1       1.034  11.532  19.201  0.00  0.00    +0.000 A 
ATOM      3  C   UNL     1       0.484  11.182  20.439  0.00  0.00    +0.000 A 
ATOM      4  C   UNL     1       0.584   9.860  20.946  0.00  0.00    +0.000 A 
ATOM      5 BR   UNL     1      -0.218   9.538  22.660  0.00  0.00    +0.000 Br
ATOM      6  C   UNL     1       1.246   8.858  20.202  0.00  0.00    +0.000 A 
ATOM      7  C   UNL     1       1.798   9.206  18.961  0.00  0.00    +0.000 A 
ATOM      8  C   UNL     1       1.689  10.526  18.476  0.00  0.00    +0.000 A 
ATOM      9  C   UNL     1       2.507   8.203  18.137  0.00  0.00    +0.000 C 
ATOM     10  O   UNL     1       2.983   8.528  17.052  0.00  0.00    +0.000 OA
ATOM     11  C   UNL     1       2.642   6.824  18.606  0.00  0.00    +0.000 A 
ATOM     12  C   UNL     1       3.316   5.883  17.814  0.00  0.00    +0.000 A 
ATOM     13  C   UNL     1       3.449   4.568  18.253  0.00  0.00    +0.000 A 
ATOM     14  C   UNL     1       2.909   4.190  19.482  0.00  0.00    +0.000 A 
ATOM     15  C   UNL     1       2.239   5.129  20.269  0.00  0.00    +0.000 A 
ATOM     16  C   UNL     1       2.103   6.455  19.830  0.00  0.00    +0.000 A 
ATOM     17  C   UNL     1       1.391   7.443  20.667  0.00  0.00    +0.000 C 
ATOM     18  O   UNL     1       0.940   7.043  21.731  0.00  0.00    +0.000 OA
ENDROOT
BRANCH   3  19
ATOM     19  O   UNL     1      -0.174  12.103  21.215  0.00  0.00    +0.000 OA
ATOM     20  H   UNL     1      -1.135  12.018  21.144  0.00  0.00    +0.000 HD
ENDBRANCH   3  19
BRANCH   8  21
ATOM     21  O   UNL     1       2.219  10.901  17.263  0.00  0.00    +0.000 OA
ATOM     22  H   UNL     1       1.947  10.250  16.576  0.00  0.00    +0.000 HD
ENDBRANCH   8  21
TORSDOF 2
ENDMDL
