MODEL 1
REMARK VINA RESULT:      -7.9      0.000      0.000
REMARK  Name = 
REMARK  11 active torsions:
REMARK  status: ('A' for Active; 'I' for Inactive)
REMARK    1  A    between atoms: CD1_1  and  CG1_2
REMARK    2  A    between atoms: CG1_2  and  CB_3
REMARK    3  A    between atoms: CB_3  and  CG2_4
REMARK    4  A    between atoms: CB_3  and  CA_5
REMARK    5  A    between atoms: CA_5  and  N_6
REMARK    6  A    between atoms: CA_5  and  C_28
REMARK    7  A    between atoms: C_7  and  C_9
REMARK    8  A    between atoms: C_14  and  C_16
REMARK    9  A    between atoms: C_20  and  C_21
REMARK   10  A    between atoms: C_21  and  C_22
REMARK   11  A    between atoms: C_28  and  OXT_30
REMARK                            x       y       z     vdW  Elec       q    Type
REMARK                         _______ _______ _______ _____ _____    ______ ____
ROOT
ATOM      1  C   UNK A   0       0.359   9.787  19.780  0.00  0.00    +0.000 C 
ATOM      2  C   UNK A   0       0.308   9.827  21.320  0.00  0.00    +0.000 C 
ATOM      3  C   UNK A   0       0.591   8.407  21.745  0.00  0.00    +0.000 C 
ATOM      4  C   UNK A   0       1.550   7.893  20.688  0.00  0.00    +0.000 C 
ATOM      5  N   UNK A   0       1.427   8.797  19.537  0.00  0.00    +0.000 N 
ATOM      6  C   UNK A   0       1.983   8.584  18.278  0.00  0.00    +0.000 C 
ATOM      7  O   UNK A   0       1.957   9.444  17.399  0.00  0.00    +0.000 OA
ENDROOT
BRANCH   6   8
ATOM      8  C   UNK A   0       2.685   7.300  17.980  0.00  0.00    +0.000 A 
ATOM      9  C   UNK A   0       4.021   7.297  17.568  0.00  0.00    +0.000 A 
ATOM     10  C   UNK A   0       4.667   6.080  17.307  0.00  0.00    +0.000 A 
ATOM     11  C   UNK A   0       3.995   4.869  17.493  0.00  0.00    +0.000 A 
ATOM     12  C   UNK A   0       2.653   4.862  17.890  0.00  0.00    +0.000 A 
ATOM     13  C   UNK A   0       1.993   6.085  18.051  0.00  0.00    +0.000 A 
BRANCH  12  14
ATOM     14  C   UNK A   0       1.931   3.577  18.230  0.00  0.00    +0.000 C 
BRANCH  14  15
ATOM     15  C   UNK A   0       1.988   3.221  19.683  0.00  0.00    +0.000 A 
ATOM     16  C   UNK A   0       3.062   2.947  20.505  0.00  0.00    +0.000 A 
ATOM     17  N   UNK A   0       2.648   2.672  21.781  0.00  0.00    +0.000 NA
ATOM     18  C   UNK A   0       1.342   2.784  21.756  0.00  0.00    +0.000 A 
ATOM     19  N   UNK A   0       0.893   3.113  20.509  0.00  0.00    +0.000 N 
ATOM     20  H   UNK A   0      -0.073   3.244  20.246  0.00  0.00    +0.000 HD
ENDBRANCH  14  15
ENDBRANCH  12  14
ENDBRANCH   6   8
BRANCH   1  22
ATOM     21  N   ILE A   1       1.480  12.012  19.559  0.00  0.00    +0.000 N 
ATOM     22  C   UNK A   0       0.348  11.277  19.358  0.00  0.00    +0.000 C 
ATOM     23  O   UNK A   0      -0.668  11.795  18.885  0.00  0.00    +0.000 OA
ATOM     24  H   ILE A   1       2.360  11.489  19.499  0.00  0.00    +0.000 HD
BRANCH  21  25
ATOM     25  CA  ILE A   1       1.511  13.433  19.225  0.00  0.00    +0.000 C 
BRANCH  25  26
ATOM     26  CB  ILE A   1       1.889  14.264  20.470  0.00  0.00    +0.000 C 
ATOM     27  CG2 ILE A   1       0.789  14.237  21.537  0.00  0.00    +0.000 C 
BRANCH  26  29
ATOM     28  CD1 ILE A   1       3.997  14.881  21.865  0.00  0.00    +0.000 C 
ATOM     29  CG1 ILE A   1       3.248  13.818  21.068  0.00  0.00    +0.000 C 
ENDBRANCH  26  29
ENDBRANCH  25  26
BRANCH  25  30
ATOM     30  C   ILE A   1       2.500  13.648  18.067  0.00  0.00    +0.000 C 
ATOM     31  O   ILE A   1       2.997  14.724  17.772  0.00  0.00    +0.000 OA
BRANCH  30  32
ATOM     32  OXT ILE A   1       2.791  12.514  17.377  0.00  0.00    +0.000 OA
ATOM     33  HXT ILE A   1       2.005  12.008  17.092  0.00  0.00    +0.000 HD
ENDBRANCH  30  32
ENDBRANCH  25  30
ENDBRANCH  21  25
ENDBRANCH   1  22
TORSDOF 9
ENDMDL
MODEL 2
REMARK VINA RESULT:      -7.9      3.469      7.957
REMARK  Name = 
REMARK  11 active torsions:
REMARK  status: ('A' for Active; 'I' for Inactive)
REMARK    1  A    between atoms: CD1_1  and  CG1_2
REMARK    2  A    between atoms: CG1_2  and  CB_3
REMARK    3  A    between atoms: CB_3  and  CG2_4
REMARK    4  A    between atoms: CB_3  and  CA_5
REMARK    5  A    between atoms: CA_5  and  N_6
REMARK    6  A    between atoms: CA_5  and  C_28
REMARK    7  A    between atoms: C_7  and  C_9
REMARK    8  A    between atoms: C_14  and  C_16
REMARK    9  A    between atoms: C_20  and  C_21
REMARK   10  A    between atoms: C_21  and  C_22
REMARK   11  A    between atoms: C_28  and  OXT_30
REMARK                            x       y       z     vdW  Elec       q    Type
REMARK                         _______ _______ _______ _____ _____    ______ ____
ROOT
ATOM      1  C   UNK A   0       3.290   4.516  19.856  0.00  0.00    +0.000 C 
ATOM      2  C   UNK A   0       2.458   3.219  19.930  0.00  0.00    +0.000 C 
ATOM      3  C   UNK A   0       1.289   3.570  20.817  0.00  0.00    +0.000 C 
ATOM      4  C   UNK A   0       1.026   5.032  20.514  0.00  0.00    +0.000 C 
ATOM      5  N   UNK A   0       2.239   5.552  19.872  0.00  0.00    +0.000 N 
ATOM      6  C   UNK A   0       2.502   6.894  19.604  0.00  0.00    +0.000 C 
ATOM      7  O   UNK A   0       3.475   7.248  18.942  0.00  0.00    +0.000 OA
ENDROOT
BRANCH   6   8
ATOM      8  C   UNK A   0       1.557   7.948  20.079  0.00  0.00    +0.000 A 
ATOM      9  C   UNK A   0       1.120   7.967  21.408  0.00  0.00    +0.000 A 
ATOM     10  C   UNK A   0       0.245   8.973  21.839  0.00  0.00    +0.000 A 
ATOM     11  C   UNK A   0      -0.163   9.980  20.960  0.00  0.00    +0.000 A 
ATOM     12  C   UNK A   0       0.256   9.962  19.625  0.00  0.00    +0.000 A 
ATOM     13  C   UNK A   0       1.050   8.897  19.184  0.00  0.00    +0.000 A 
BRANCH  12  14
ATOM     14  C   UNK A   0      -0.053  11.100  18.678  0.00  0.00    +0.000 C 
BRANCH  14  15
ATOM     15  C   UNK A   0      -1.362  10.951  17.966  0.00  0.00    +0.000 A 
ATOM     16  C   UNK A   0      -2.566  11.601  18.142  0.00  0.00    +0.000 A 
ATOM     17  N   UNK A   0      -3.506  11.146  17.254  0.00  0.00    +0.000 NA
ATOM     18  C   UNK A   0      -2.894  10.238  16.533  0.00  0.00    +0.000 A 
ATOM     19  N   UNK A   0      -1.595  10.081  16.925  0.00  0.00    +0.000 N 
ATOM     20  H   UNK A   0      -0.932   9.433  16.525  0.00  0.00    +0.000 HD
ENDBRANCH  14  15
ENDBRANCH  12  14
ENDBRANCH   6   8
BRANCH   1  22
ATOM     21  N   ILE A   1       5.405   5.070  18.643  0.00  0.00    +0.000 N 
ATOM     22  C   UNK A   0       4.324   4.244  18.736  0.00  0.00    +0.000 C 
ATOM     23  O   UNK A   0       4.156   3.326  17.927  0.00  0.00    +0.000 OA
ATOM     24  H   ILE A   1       5.733   5.468  19.531  0.00  0.00    +0.000 HD
BRANCH  21  25
ATOM     25  CA  ILE A   1       6.387   4.892  17.577  0.00  0.00    +0.000 C 
BRANCH  25  26
ATOM     26  CB  ILE A   1       6.409   6.134  16.661  0.00  0.00    +0.000 C 
ATOM     27  CG2 ILE A   1       5.219   6.161  15.697  0.00  0.00    +0.000 C 
BRANCH  26  29
ATOM     28  CD1 ILE A   1       7.863   8.106  17.537  0.00  0.00    +0.000 C 
ATOM     29  CG1 ILE A   1       6.488   7.450  17.477  0.00  0.00    +0.000 C 
ENDBRANCH  26  29
ENDBRANCH  25  26
BRANCH  25  30
ATOM     30  C   ILE A   1       7.762   4.617  18.211  0.00  0.00    +0.000 C 
ATOM     31  O   ILE A   1       8.658   3.987  17.672  0.00  0.00    +0.000 OA
BRANCH  30  32
ATOM     32  OXT ILE A   1       7.909   5.151  19.452  0.00  0.00    +0.000 OA
ATOM     33  HXT ILE A   1       7.454   6.007  19.574  0.00  0.00    +0.000 HD
ENDBRANCH  30  32
ENDBRANCH  25  30
ENDBRANCH  21  25
ENDBRANCH   1  22
TORSDOF 9
ENDMDL
MODEL 3
REMARK VINA RESULT:      -7.7      3.397      8.317
REMARK  Name = 
REMARK  11 active torsions:
REMARK  status: ('A' for Active; 'I' for Inactive)
REMARK    1  A    between atoms: CD1_1  and  CG1_2
REMARK    2  A    between atoms: CG1_2  and  CB_3
REMARK    3  A    between atoms: CB_3  and  CG2_4
REMARK    4  A    between atoms: CB_3  and  CA_5
REMARK    5  A    between atoms: CA_5  and  N_6
REMARK    6  A    between atoms: CA_5  and  C_28
REMARK    7  A    between atoms: C_7  and  C_9
REMARK    8  A    between atoms: C_14  and  C_16
REMARK    9  A    between atoms: C_20  and  C_21
REMARK   10  A    between atoms: C_21  and  C_22
REMARK   11  A    between atoms: C_28  and  OXT_30
REMARK                            x       y       z     vdW  Elec       q    Type
REMARK                         _______ _______ _______ _____ _____    ______ ____
ROOT
ATOM      1  C   UNK A   0       3.103   4.199  19.738  0.00  0.00    +0.000 C 
ATOM      2  C   UNK A   0       2.158   2.983  19.830  0.00  0.00    +0.000 C 
ATOM      3  C   UNK A   0       1.064   3.424  20.771  0.00  0.00    +0.000 C 
ATOM      4  C   UNK A   0       0.924   4.910  20.498  0.00  0.00    +0.000 C 
ATOM      5  N   UNK A   0       2.153   5.327  19.812  0.00  0.00    +0.000 N 
ATOM      6  C   UNK A   0       2.527   6.643  19.549  0.00  0.00    +0.000 C 
ATOM      7  O   UNK A   0       3.501   6.917  18.851  0.00  0.00    +0.000 OA
ENDROOT
BRANCH   6   8
ATOM      8  C   UNK A   0       1.704   7.771  20.077  0.00  0.00    +0.000 A 
ATOM      9  C   UNK A   0       1.342   7.818  21.427  0.00  0.00    +0.000 A 
ATOM     10  C   UNK A   0       0.581   8.893  21.908  0.00  0.00    +0.000 A 
ATOM     11  C   UNK A   0       0.216   9.937  21.055  0.00  0.00    +0.000 A 
ATOM     12  C   UNK A   0       0.560   9.893  19.699  0.00  0.00    +0.000 A 
ATOM     13  C   UNK A   0       1.234   8.767  19.214  0.00  0.00    +0.000 A 
BRANCH  12  14
ATOM     14  C   UNK A   0       0.301  11.060  18.774  0.00  0.00    +0.000 C 
BRANCH  14  15
ATOM     15  C   UNK A   0      -1.081  11.074  18.195  0.00  0.00    +0.000 A 
ATOM     16  C   UNK A   0      -2.215  11.760  18.579  0.00  0.00    +0.000 A 
ATOM     17  N   UNK A   0      -3.268  11.473  17.751  0.00  0.00    +0.000 NA
ATOM     18  C   UNK A   0      -2.795  10.633  16.863  0.00  0.00    +0.000 A 
ATOM     19  N   UNK A   0      -1.476  10.358  17.088  0.00  0.00    +0.000 N 
ATOM     20  H   UNK A   0      -0.902   9.733  16.542  0.00  0.00    +0.000 HD
ENDBRANCH  14  15
ENDBRANCH  12  14
ENDBRANCH   6   8
BRANCH   1  22
ATOM     21  N   ILE A   1       5.115   4.684  18.336  0.00  0.00    +0.000 N 
ATOM     22  C   UNK A   0       4.060   3.852  18.572  0.00  0.00    +0.000 C 
ATOM     23  O   UNK A   0       3.854   2.869  17.853  0.00  0.00    +0.000 OA
ATOM     24  H   ILE A   1       5.496   5.157  19.162  0.00  0.00    +0.000 HD
BRANCH  21  25
ATOM     25  CA  ILE A   1       6.022   4.433  17.219  0.00  0.00    +0.000 C 
BRANCH  25  26
ATOM     26  CB  ILE A   1       5.742   5.428  16.072  0.00  0.00    +0.000 C 
ATOM     27  CG2 ILE A   1       6.010   6.878  16.489  0.00  0.00    +0.000 C 
BRANCH  26  29
ATOM     28  CD1 ILE A   1       6.054   3.828  14.044  0.00  0.00    +0.000 C 
ATOM     29  CG1 ILE A   1       6.537   5.067  14.790  0.00  0.00    +0.000 C 
ENDBRANCH  26  29
ENDBRANCH  25  26
BRANCH  25  30
ATOM     30  C   ILE A   1       7.471   4.532  17.727  0.00  0.00    +0.000 C 
ATOM     31  O   ILE A   1       8.450   4.154  17.102  0.00  0.00    +0.000 OA
BRANCH  30  32
ATOM     32  OXT ILE A   1       7.583   5.092  18.959  0.00  0.00    +0.000 OA
ATOM     33  HXT ILE A   1       6.729   5.342  19.363  0.00  0.00    +0.000 HD
ENDBRANCH  30  32
ENDBRANCH  25  30
ENDBRANCH  21  25
ENDBRANCH   1  22
TORSDOF 9
ENDMDL
MODEL 4
REMARK VINA RESULT:      -7.5      3.120      8.477
REMARK  Name = 
REMARK  11 active torsions:
REMARK  status: ('A' for Active; 'I' for Inactive)
REMARK    1  A    between atoms: CD1_1  and  CG1_2
REMARK    2  A    between atoms: CG1_2  and  CB_3
REMARK    3  A    between atoms: CB_3  and  CG2_4
REMARK    4  A    between atoms: CB_3  and  CA_5
REMARK    5  A    between atoms: CA_5  and  N_6
REMARK    6  A    between atoms: CA_5  and  C_28
REMARK    7  A    between atoms: C_7  and  C_9
REMARK    8  A    between atoms: C_14  and  C_16
REMARK    9  A    between atoms: C_20  and  C_21
REMARK   10  A    between atoms: C_21  and  C_22
REMARK   11  A    between atoms: C_28  and  OXT_30
REMARK                            x       y       z     vdW  Elec       q    Type
REMARK                         _______ _______ _______ _____ _____    ______ ____
ROOT
ATOM      1  C   UNK A   0       3.120   4.066  19.661  0.00  0.00    +0.000 C 
ATOM      2  C   UNK A   0       2.148   2.882  19.834  0.00  0.00    +0.000 C 
ATOM      3  C   UNK A   0       1.114   3.381  20.814  0.00  0.00    +0.000 C 
ATOM      4  C   UNK A   0       1.003   4.862  20.505  0.00  0.00    +0.000 C 
ATOM      5  N   UNK A   0       2.207   5.223  19.748  0.00  0.00    +0.000 N 
ATOM      6  C   UNK A   0       2.604   6.521  19.430  0.00  0.00    +0.000 C 
ATOM      7  O   UNK A   0       3.550   6.747  18.677  0.00  0.00    +0.000 OA
ENDROOT
BRANCH   6   8
ATOM      8  C   UNK A   0       1.841   7.686  19.965  0.00  0.00    +0.000 A 
ATOM      9  C   UNK A   0       1.535   7.774  21.327  0.00  0.00    +0.000 A 
ATOM     10  C   UNK A   0       0.830   8.883  21.813  0.00  0.00    +0.000 A 
ATOM     11  C   UNK A   0       0.465   9.921  20.952  0.00  0.00    +0.000 A 
ATOM     12  C   UNK A   0       0.752   9.837  19.585  0.00  0.00    +0.000 A 
ATOM     13  C   UNK A   0       1.369   8.679  19.098  0.00  0.00    +0.000 A 
BRANCH  12  14
ATOM     14  C   UNK A   0       0.494  10.993  18.644  0.00  0.00    +0.000 C 
BRANCH  14  15
ATOM     15  C   UNK A   0       1.515  12.084  18.738  0.00  0.00    +0.000 A 
ATOM     16  C   UNK A   0       1.813  12.958  19.763  0.00  0.00    +0.000 A 
ATOM     17  N   UNK A   0       2.837  13.798  19.413  0.00  0.00    +0.000 NA
ATOM     18  C   UNK A   0       3.177  13.445  18.196  0.00  0.00    +0.000 A 
ATOM     19  N   UNK A   0       2.406  12.414  17.742  0.00  0.00    +0.000 N 
ATOM     20  H   UNK A   0       2.476  11.981  16.832  0.00  0.00    +0.000 HD
ENDBRANCH  14  15
ENDBRANCH  12  14
ENDBRANCH   6   8
BRANCH   1  22
ATOM     21  N   ILE A   1       4.945   4.549  18.021  0.00  0.00    +0.000 N 
ATOM     22  C   UNK A   0       4.008   3.660  18.460  0.00  0.00    +0.000 C 
ATOM     23  O   UNK A   0       3.849   2.575  17.892  0.00  0.00    +0.000 OA
ATOM     24  H   ILE A   1       5.341   5.162  18.742  0.00  0.00    +0.000 HD
BRANCH  21  25
ATOM     25  CA  ILE A   1       5.777   4.239  16.862  0.00  0.00    +0.000 C 
BRANCH  25  26
ATOM     26  CB  ILE A   1       5.349   5.100  15.654  0.00  0.00    +0.000 C 
ATOM     27  CG2 ILE A   1       5.285   6.590  16.001  0.00  0.00    +0.000 C 
BRANCH  26  29
ATOM     28  CD1 ILE A   1       5.810   3.752  13.476  0.00  0.00    +0.000 C 
ATOM     29  CG1 ILE A   1       6.261   4.859  14.423  0.00  0.00    +0.000 C 
ENDBRANCH  26  29
ENDBRANCH  25  26
BRANCH  25  30
ATOM     30  C   ILE A   1       7.252   4.466  17.237  0.00  0.00    +0.000 C 
ATOM     31  O   ILE A   1       8.182   4.414  16.447  0.00  0.00    +0.000 OA
BRANCH  30  32
ATOM     32  OXT ILE A   1       7.447   4.742  18.553  0.00  0.00    +0.000 OA
ATOM     33  HXT ILE A   1       7.726   5.662  18.730  0.00  0.00    +0.000 HD
ENDBRANCH  30  32
ENDBRANCH  25  30
ENDBRANCH  21  25
ENDBRANCH   1  22
TORSDOF 9
ENDMDL
MODEL 5
REMARK VINA RESULT:      -7.4      0.944      1.339
REMARK  Name = 
REMARK  11 active torsions:
REMARK  status: ('A' for Active; 'I' for Inactive)
REMARK    1  A    between atoms: CD1_1  and  CG1_2
REMARK    2  A    between atoms: CG1_2  and  CB_3
REMARK    3  A    between atoms: CB_3  and  CG2_4
REMARK    4  A    between atoms: CB_3  and  CA_5
REMARK    5  A    between atoms: CA_5  and  N_6
REMARK    6  A    between atoms: CA_5  and  C_28
REMARK    7  A    between atoms: C_7  and  C_9
REMARK    8  A    between atoms: C_14  and  C_16
REMARK    9  A    between atoms: C_20  and  C_21
REMARK   10  A    between atoms: C_21  and  C_22
REMARK   11  A    between atoms: C_28  and  OXT_30
REMARK                            x       y       z     vdW  Elec       q    Type
REMARK                         _______ _______ _______ _____ _____    ______ ____
ROOT
ATOM      1  C   UNK A   0       0.354   9.795  19.675  0.00  0.00    +0.000 C 
ATOM      2  C   UNK A   0       0.407   9.992  21.203  0.00  0.00    +0.000 C 
ATOM      3  C   UNK A   0       0.782   8.635  21.747  0.00  0.00    +0.000 C 
ATOM      4  C   UNK A   0       1.688   8.052  20.679  0.00  0.00    +0.000 C 
ATOM      5  N   UNK A   0       1.446   8.826  19.456  0.00  0.00    +0.000 N 
ATOM      6  C   UNK A   0       1.925   8.506  18.187  0.00  0.00    +0.000 C 
ATOM      7  O   UNK A   0       1.799   9.269  17.231  0.00  0.00    +0.000 OA
ENDROOT
BRANCH   6   8
ATOM      8  C   UNK A   0       2.661   7.226  17.969  0.00  0.00    +0.000 A 
ATOM      9  C   UNK A   0       4.020   7.233  17.637  0.00  0.00    +0.000 A 
ATOM     10  C   UNK A   0       4.697   6.020  17.450  0.00  0.00    +0.000 A 
ATOM     11  C   UNK A   0       4.034   4.804  17.632  0.00  0.00    +0.000 A 
ATOM     12  C   UNK A   0       2.670   4.786  17.949  0.00  0.00    +0.000 A 
ATOM     13  C   UNK A   0       1.985   6.003  18.035  0.00  0.00    +0.000 A 
BRANCH  12  14
ATOM     14  C   UNK A   0       1.948   3.500  18.283  0.00  0.00    +0.000 C 
BRANCH  14  15
ATOM     15  C   UNK A   0       1.996   3.143  19.737  0.00  0.00    +0.000 A 
ATOM     16  C   UNK A   0       3.063   2.848  20.560  0.00  0.00    +0.000 A 
ATOM     17  N   UNK A   0       2.641   2.582  21.837  0.00  0.00    +0.000 NA
ATOM     18  C   UNK A   0       1.337   2.720  21.809  0.00  0.00    +0.000 A 
ATOM     19  N   UNK A   0       0.897   3.057  20.561  0.00  0.00    +0.000 N 
ATOM     20  H   UNK A   0      -0.065   3.207  20.295  0.00  0.00    +0.000 HD
ENDBRANCH  14  15
ENDBRANCH  12  14
ENDBRANCH   6   8
BRANCH   1  22
ATOM     21  N   ILE A   1       1.049  12.197  19.643  0.00  0.00    +0.000 N 
ATOM     22  C   UNK A   0       0.247  11.232  19.108  0.00  0.00    +0.000 C 
ATOM     23  O   UNK A   0      -0.567  11.505  18.220  0.00  0.00    +0.000 OA
ATOM     24  H   ILE A   1       1.957  11.871  19.991  0.00  0.00    +0.000 HD
BRANCH  21  25
ATOM     25  CA  ILE A   1       0.956  13.579  19.181  0.00  0.00    +0.000 C 
BRANCH  25  26
ATOM     26  CB  ILE A   1       0.491  14.495  20.333  0.00  0.00    +0.000 C 
ATOM     27  CG2 ILE A   1      -0.922  15.041  20.101  0.00  0.00    +0.000 C 
BRANCH  26  29
ATOM     28  CD1 ILE A   1      -0.733  13.569  22.434  0.00  0.00    +0.000 C 
ATOM     29  CG1 ILE A   1       0.590  13.786  21.708  0.00  0.00    +0.000 C 
ENDBRANCH  26  29
ENDBRANCH  25  26
BRANCH  25  30
ATOM     30  C   ILE A   1       2.324  14.007  18.621  0.00  0.00    +0.000 C 
ATOM     31  O   ILE A   1       3.156  13.237  18.167  0.00  0.00    +0.000 OA
BRANCH  30  32
ATOM     32  OXT ILE A   1       2.540  15.347  18.665  0.00  0.00    +0.000 OA
ATOM     33  HXT ILE A   1       2.856  15.672  19.531  0.00  0.00    +0.000 HD
ENDBRANCH  30  32
ENDBRANCH  25  30
ENDBRANCH  21  25
ENDBRANCH   1  22
TORSDOF 9
ENDMDL
MODEL 6
REMARK VINA RESULT:      -7.4      3.112      8.078
REMARK  Name = 
REMARK  11 active torsions:
REMARK  status: ('A' for Active; 'I' for Inactive)
REMARK    1  A    between atoms: CD1_1  and  CG1_2
REMARK    2  A    between atoms: CG1_2  and  CB_3
REMARK    3  A    between atoms: CB_3  and  CG2_4
REMARK    4  A    between atoms: CB_3  and  CA_5
REMARK    5  A    between atoms: CA_5  and  N_6
REMARK    6  A    between atoms: CA_5  and  C_28
REMARK    7  A    between atoms: C_7  and  C_9
REMARK    8  A    between atoms: C_14  and  C_16
REMARK    9  A    between atoms: C_20  and  C_21
REMARK   10  A    between atoms: C_21  and  C_22
REMARK   11  A    between atoms: C_28  and  OXT_30
REMARK                            x       y       z     vdW  Elec       q    Type
REMARK                         _______ _______ _______ _____ _____    ______ ____
ROOT
ATOM      1  C   UNK A   0       3.244   4.532  19.835  0.00  0.00    +0.000 C 
ATOM      2  C   UNK A   0       2.398   3.244  19.887  0.00  0.00    +0.000 C 
ATOM      3  C   UNK A   0       1.219   3.600  20.759  0.00  0.00    +0.000 C 
ATOM      4  C   UNK A   0       0.975   5.067  20.463  0.00  0.00    +0.000 C 
ATOM      5  N   UNK A   0       2.203   5.579  19.843  0.00  0.00    +0.000 N 
ATOM      6  C   UNK A   0       2.483   6.920  19.588  0.00  0.00    +0.000 C 
ATOM      7  O   UNK A   0       3.470   7.269  18.943  0.00  0.00    +0.000 OA
ENDROOT
BRANCH   6   8
ATOM      8  C   UNK A   0       1.543   7.980  20.056  0.00  0.00    +0.000 A 
ATOM      9  C   UNK A   0       1.065   7.979  21.371  0.00  0.00    +0.000 A 
ATOM     10  C   UNK A   0       0.193   8.991  21.796  0.00  0.00    +0.000 A 
ATOM     11  C   UNK A   0      -0.170  10.022  20.927  0.00  0.00    +0.000 A 
ATOM     12  C   UNK A   0       0.290  10.025  19.605  0.00  0.00    +0.000 A 
ATOM     13  C   UNK A   0       1.079   8.956  19.167  0.00  0.00    +0.000 A 
BRANCH  12  14
ATOM     14  C   UNK A   0       0.029  11.188  18.674  0.00  0.00    +0.000 C 
BRANCH  14  15
ATOM     15  C   UNK A   0       1.033  12.293  18.796  0.00  0.00    +0.000 A 
ATOM     16  C   UNK A   0       2.332  12.388  18.344  0.00  0.00    +0.000 A 
ATOM     17  N   UNK A   0       2.884  13.596  18.680  0.00  0.00    +0.000 NA
ATOM     18  C   UNK A   0       1.940  14.245  19.320  0.00  0.00    +0.000 A 
ATOM     19  N   UNK A   0       0.801  13.499  19.418  0.00  0.00    +0.000 N 
ATOM     20  H   UNK A   0      -0.053  13.783  19.875  0.00  0.00    +0.000 HD
ENDBRANCH  14  15
ENDBRANCH  12  14
ENDBRANCH   6   8
BRANCH   1  22
ATOM     21  N   ILE A   1       5.329   5.133  18.592  0.00  0.00    +0.000 N 
ATOM     22  C   UNK A   0       4.292   4.258  18.729  0.00  0.00    +0.000 C 
ATOM     23  O   UNK A   0       4.173   3.292  17.968  0.00  0.00    +0.000 OA
ATOM     24  H   ILE A   1       5.634   5.592  19.457  0.00  0.00    +0.000 HD
BRANCH  21  25
ATOM     25  CA  ILE A   1       6.320   4.952  17.535  0.00  0.00    +0.000 C 
BRANCH  25  26
ATOM     26  CB  ILE A   1       6.369   6.202  16.631  0.00  0.00    +0.000 C 
ATOM     27  CG2 ILE A   1       5.183   6.261  15.663  0.00  0.00    +0.000 C 
BRANCH  26  29
ATOM     28  CD1 ILE A   1       7.858   8.131  17.543  0.00  0.00    +0.000 C 
ATOM     29  CG1 ILE A   1       6.469   7.508  17.462  0.00  0.00    +0.000 C 
ENDBRANCH  26  29
ENDBRANCH  25  26
BRANCH  25  30
ATOM     30  C   ILE A   1       7.683   4.653  18.181  0.00  0.00    +0.000 C 
ATOM     31  O   ILE A   1       8.018   5.026  19.294  0.00  0.00    +0.000 OA
BRANCH  30  32
ATOM     32  OXT ILE A   1       8.512   3.914  17.397  0.00  0.00    +0.000 OA
ATOM     33  HXT ILE A   1       8.227   2.987  17.279  0.00  0.00    +0.000 HD
ENDBRANCH  30  32
ENDBRANCH  25  30
ENDBRANCH  21  25
ENDBRANCH   1  22
TORSDOF 9
ENDMDL
MODEL 7
REMARK VINA RESULT:      -7.4      0.722      1.268
REMARK  Name = 
REMARK  11 active torsions:
REMARK  status: ('A' for Active; 'I' for Inactive)
REMARK    1  A    between atoms: CD1_1  and  CG1_2
REMARK    2  A    between atoms: CG1_2  and  CB_3
REMARK    3  A    between atoms: CB_3  and  CG2_4
REMARK    4  A    between atoms: CB_3  and  CA_5
REMARK    5  A    between atoms: CA_5  and  N_6
REMARK    6  A    between atoms: CA_5  and  C_28
REMARK    7  A    between atoms: C_7  and  C_9
REMARK    8  A    between atoms: C_14  and  C_16
REMARK    9  A    between atoms: C_20  and  C_21
REMARK   10  A    between atoms: C_21  and  C_22
REMARK   11  A    between atoms: C_28  and  OXT_30
REMARK                            x       y       z     vdW  Elec       q    Type
REMARK                         _______ _______ _______ _____ _____    ______ ____
ROOT
ATOM      1  C   UNK A   0       0.329   9.807  19.748  0.00  0.00    +0.000 C 
ATOM      2  C   UNK A   0       0.229   9.809  21.286  0.00  0.00    +0.000 C 
ATOM      3  C   UNK A   0       0.489   8.377  21.685  0.00  0.00    +0.000 C 
ATOM      4  C   UNK A   0       1.476   7.882  20.646  0.00  0.00    +0.000 C 
ATOM      5  N   UNK A   0       1.397   8.814  19.515  0.00  0.00    +0.000 N 
ATOM      6  C   UNK A   0       1.992   8.628  18.269  0.00  0.00    +0.000 C 
ATOM      7  O   UNK A   0       2.000   9.509  17.411  0.00  0.00    +0.000 OA
ENDROOT
BRANCH   6   8
ATOM      8  C   UNK A   0       2.693   7.346  17.962  0.00  0.00    +0.000 A 
ATOM      9  C   UNK A   0       4.033   7.345  17.560  0.00  0.00    +0.000 A 
ATOM     10  C   UNK A   0       4.678   6.130  17.290  0.00  0.00    +0.000 A 
ATOM     11  C   UNK A   0       4.003   4.918  17.457  0.00  0.00    +0.000 A 
ATOM     12  C   UNK A   0       2.657   4.909  17.843  0.00  0.00    +0.000 A 
ATOM     13  C   UNK A   0       1.999   6.132  18.014  0.00  0.00    +0.000 A 
BRANCH  12  14
ATOM     14  C   UNK A   0       1.930   3.622  18.163  0.00  0.00    +0.000 C 
BRANCH  14  15
ATOM     15  C   UNK A   0       1.997   3.236  19.608  0.00  0.00    +0.000 A 
ATOM     16  C   UNK A   0       1.018   3.198  20.580  0.00  0.00    +0.000 A 
ATOM     17  N   UNK A   0       1.530   2.774  21.778  0.00  0.00    +0.000 NA
ATOM     18  C   UNK A   0       2.801   2.542  21.552  0.00  0.00    +0.000 A 
ATOM     19  N   UNK A   0       3.134   2.808  20.255  0.00  0.00    +0.000 N 
ATOM     20  H   UNK A   0       4.054   2.714  19.851  0.00  0.00    +0.000 HD
ENDBRANCH  14  15
ENDBRANCH  12  14
ENDBRANCH   6   8
BRANCH   1  22
ATOM     21  N   ILE A   1       1.490  12.014  19.568  0.00  0.00    +0.000 N 
ATOM     22  C   UNK A   0       0.342  11.306  19.363  0.00  0.00    +0.000 C 
ATOM     23  O   UNK A   0      -0.670  11.855  18.914  0.00  0.00    +0.000 OA
ATOM     24  H   ILE A   1       2.359  11.476  19.485  0.00  0.00    +0.000 HD
BRANCH  21  25
ATOM     25  CA  ILE A   1       1.545  13.443  19.269  0.00  0.00    +0.000 C 
BRANCH  25  26
ATOM     26  CB  ILE A   1       1.988  14.232  20.519  0.00  0.00    +0.000 C 
ATOM     27  CG2 ILE A   1       3.505  14.176  20.729  0.00  0.00    +0.000 C 
BRANCH  26  29
ATOM     28  CD1 ILE A   1       0.123  15.914  19.840  0.00  0.00    +0.000 C 
ATOM     29  CG1 ILE A   1       1.490  15.700  20.480  0.00  0.00    +0.000 C 
ENDBRANCH  26  29
ENDBRANCH  25  26
BRANCH  25  30
ATOM     30  C   ILE A   1       2.497  13.663  18.081  0.00  0.00    +0.000 C 
ATOM     31  O   ILE A   1       2.880  14.756  17.696  0.00  0.00    +0.000 OA
BRANCH  30  32
ATOM     32  OXT ILE A   1       2.895  12.513  17.476  0.00  0.00    +0.000 OA
ATOM     33  HXT ILE A   1       3.865  12.418  17.401  0.00  0.00    +0.000 HD
ENDBRANCH  30  32
ENDBRANCH  25  30
ENDBRANCH  21  25
ENDBRANCH   1  22
TORSDOF 9
ENDMDL
MODEL 8
REMARK VINA RESULT:      -7.4      3.414      8.385
REMARK  Name = 
REMARK  11 active torsions:
REMARK  status: ('A' for Active; 'I' for Inactive)
REMARK    1  A    between atoms: CD1_1  and  CG1_2
REMARK    2  A    between atoms: CG1_2  and  CB_3
REMARK    3  A    between atoms: CB_3  and  CG2_4
REMARK    4  A    between atoms: CB_3  and  CA_5
REMARK    5  A    between atoms: CA_5  and  N_6
REMARK    6  A    between atoms: CA_5  and  C_28
REMARK    7  A    between atoms: C_7  and  C_9
REMARK    8  A    between atoms: C_14  and  C_16
REMARK    9  A    between atoms: C_20  and  C_21
REMARK   10  A    between atoms: C_21  and  C_22
REMARK   11  A    between atoms: C_28  and  OXT_30
REMARK                            x       y       z     vdW  Elec       q    Type
REMARK                         _______ _______ _______ _____ _____    ______ ____
ROOT
ATOM      1  C   UNK A   0       3.318   4.391  19.972  0.00  0.00    +0.000 C 
ATOM      2  C   UNK A   0       2.387   3.164  20.034  0.00  0.00    +0.000 C 
ATOM      3  C   UNK A   0       1.110   3.687  20.645  0.00  0.00    +0.000 C 
ATOM      4  C   UNK A   0       1.020   5.113  20.136  0.00  0.00    +0.000 C 
ATOM      5  N   UNK A   0       2.365   5.480  19.677  0.00  0.00    +0.000 N 
ATOM      6  C   UNK A   0       2.775   6.761  19.313  0.00  0.00    +0.000 C 
ATOM      7  O   UNK A   0       3.875   6.974  18.808  0.00  0.00    +0.000 OA
ENDROOT
BRANCH   6   8
ATOM      8  C   UNK A   0       1.847   7.917  19.484  0.00  0.00    +0.000 A 
ATOM      9  C   UNK A   0       1.418   8.657  18.377  0.00  0.00    +0.000 A 
ATOM     10  C   UNK A   0       0.535   9.730  18.557  0.00  0.00    +0.000 A 
ATOM     11  C   UNK A   0       0.051  10.043  19.830  0.00  0.00    +0.000 A 
ATOM     12  C   UNK A   0       0.486   9.319  20.946  0.00  0.00    +0.000 A 
ATOM     13  C   UNK A   0       1.443   8.314  20.764  0.00  0.00    +0.000 A 
BRANCH  12  14
ATOM     14  C   UNK A   0      -0.111   9.537  22.318  0.00  0.00    +0.000 C 
BRANCH  14  15
ATOM     15  C   UNK A   0      -0.665  10.914  22.521  0.00  0.00    +0.000 A 
ATOM     16  C   UNK A   0      -0.238  12.139  22.051  0.00  0.00    +0.000 A 
ATOM     17  N   UNK A   0      -1.058  13.146  22.486  0.00  0.00    +0.000 NA
ATOM     18  C   UNK A   0      -1.984  12.558  23.205  0.00  0.00    +0.000 A 
ATOM     19  N   UNK A   0      -1.790  11.207  23.259  0.00  0.00    +0.000 N 
ATOM     20  H   UNK A   0      -2.367  10.547  23.759  0.00  0.00    +0.000 HD
ENDBRANCH  14  15
ENDBRANCH  12  14
ENDBRANCH   6   8
BRANCH   1  22
ATOM     21  N   ILE A   1       4.688   4.517  17.884  0.00  0.00    +0.000 N 
ATOM     22  C   UNK A   0       4.509   3.925  19.101  0.00  0.00    +0.000 C 
ATOM     23  O   UNK A   0       5.256   3.018  19.480  0.00  0.00    +0.000 OA
ATOM     24  H   ILE A   1       4.385   5.495  17.822  0.00  0.00    +0.000 HD
BRANCH  21  25
ATOM     25  CA  ILE A   1       5.766   4.083  16.999  0.00  0.00    +0.000 C 
BRANCH  25  26
ATOM     26  CB  ILE A   1       5.431   4.444  15.536  0.00  0.00    +0.000 C 
ATOM     27  CG2 ILE A   1       5.254   5.953  15.341  0.00  0.00    +0.000 C 
BRANCH  26  29
ATOM     28  CD1 ILE A   1       6.010   3.702  13.110  0.00  0.00    +0.000 C 
ATOM     29  CG1 ILE A   1       6.484   3.880  14.548  0.00  0.00    +0.000 C 
ENDBRANCH  26  29
ENDBRANCH  25  26
BRANCH  25  30
ATOM     30  C   ILE A   1       7.081   4.731  17.466  0.00  0.00    +0.000 C 
ATOM     31  O   ILE A   1       8.183   4.219  17.351  0.00  0.00    +0.000 OA
BRANCH  30  32
ATOM     32  OXT ILE A   1       6.918   5.957  18.030  0.00  0.00    +0.000 OA
ATOM     33  HXT ILE A   1       7.716   6.298  18.479  0.00  0.00    +0.000 HD
ENDBRANCH  30  32
ENDBRANCH  25  30
ENDBRANCH  21  25
ENDBRANCH   1  22
TORSDOF 9
ENDMDL
MODEL 9
REMARK VINA RESULT:      -7.3      3.156      8.573
REMARK  Name = 
REMARK  11 active torsions:
REMARK  status: ('A' for Active; 'I' for Inactive)
REMARK    1  A    between atoms: CD1_1  and  CG1_2
REMARK    2  A    between atoms: CG1_2  and  CB_3
REMARK    3  A    between atoms: CB_3  and  CG2_4
REMARK    4  A    between atoms: CB_3  and  CA_5
REMARK    5  A    between atoms: CA_5  and  N_6
REMARK    6  A    between atoms: CA_5  and  C_28
REMARK    7  A    between atoms: C_7  and  C_9
REMARK    8  A    between atoms: C_14  and  C_16
REMARK    9  A    between atoms: C_20  and  C_21
REMARK   10  A    between atoms: C_21  and  C_22
REMARK   11  A    between atoms: C_28  and  OXT_30
REMARK                            x       y       z     vdW  Elec       q    Type
REMARK                         _______ _______ _______ _____ _____    ______ ____
ROOT
ATOM      1  C   UNK A   0       3.374   4.073  19.972  0.00  0.00    +0.000 C 
ATOM      2  C   UNK A   0       2.465   2.837  19.821  0.00  0.00    +0.000 C 
ATOM      3  C   UNK A   0       1.163   3.243  20.467  0.00  0.00    +0.000 C 
ATOM      4  C   UNK A   0       1.060   4.729  20.177  0.00  0.00    +0.000 C 
ATOM      5  N   UNK A   0       2.409   5.179  19.816  0.00  0.00    +0.000 N 
ATOM      6  C   UNK A   0       2.805   6.507  19.662  0.00  0.00    +0.000 C 
ATOM      7  O   UNK A   0       3.914   6.810  19.227  0.00  0.00    +0.000 OA
ENDROOT
BRANCH   6   8
ATOM      8  C   UNK A   0       1.852   7.610  19.978  0.00  0.00    +0.000 A 
ATOM      9  C   UNK A   0       1.216   7.669  21.223  0.00  0.00    +0.000 A 
ATOM     10  C   UNK A   0       0.335   8.721  21.507  0.00  0.00    +0.000 A 
ATOM     11  C   UNK A   0       0.117   9.733  20.569  0.00  0.00    +0.000 A 
ATOM     12  C   UNK A   0       0.736   9.677  19.314  0.00  0.00    +0.000 A 
ATOM     13  C   UNK A   0       1.535   8.569  19.009  0.00  0.00    +0.000 A 
BRANCH  12  14
ATOM     14  C   UNK A   0       0.632  10.815  18.324  0.00  0.00    +0.000 C 
BRANCH  14  15
ATOM     15  C   UNK A   0       0.876  12.163  18.929  0.00  0.00    +0.000 A 
ATOM     16  C   UNK A   0       0.052  13.263  19.047  0.00  0.00    +0.000 A 
ATOM     17  N   UNK A   0       0.693  14.293  19.683  0.00  0.00    +0.000 NA
ATOM     18  C   UNK A   0       1.890  13.838  19.964  0.00  0.00    +0.000 A 
ATOM     19  N   UNK A   0       2.051  12.554  19.528  0.00  0.00    +0.000 N 
ATOM     20  H   UNK A   0       2.890  11.999  19.623  0.00  0.00    +0.000 HD
ENDBRANCH  14  15
ENDBRANCH  12  14
ENDBRANCH   6   8
BRANCH   1  22
ATOM     21  N   ILE A   1       4.740   4.463  17.914  0.00  0.00    +0.000 N 
ATOM     22  C   UNK A   0       4.597   3.761  19.075  0.00  0.00    +0.000 C 
ATOM     23  O   UNK A   0       5.401   2.876  19.384  0.00  0.00    +0.000 OA
ATOM     24  H   ILE A   1       4.372   5.420  17.930  0.00  0.00    +0.000 HD
BRANCH  21  25
ATOM     25  CA  ILE A   1       5.847   4.177  17.005  0.00  0.00    +0.000 C 
BRANCH  25  26
ATOM     26  CB  ILE A   1       5.503   4.659  15.579  0.00  0.00    +0.000 C 
ATOM     27  CG2 ILE A   1       5.280   6.174  15.521  0.00  0.00    +0.000 C 
BRANCH  26  29
ATOM     28  CD1 ILE A   1       6.036   3.700  13.220  0.00  0.00    +0.000 C 
ATOM     29  CG1 ILE A   1       6.574   4.219  14.549  0.00  0.00    +0.000 C 
ENDBRANCH  26  29
ENDBRANCH  25  26
BRANCH  25  30
ATOM     30  C   ILE A   1       7.120   4.848  17.549  0.00  0.00    +0.000 C 
ATOM     31  O   ILE A   1       7.182   6.007  17.928  0.00  0.00    +0.000 OA
BRANCH  30  32
ATOM     32  OXT ILE A   1       8.201   4.027  17.582  0.00  0.00    +0.000 OA
ATOM     33  HXT ILE A   1       8.610   3.872  16.708  0.00  0.00    +0.000 HD
ENDBRANCH  30  32
ENDBRANCH  25  30
ENDBRANCH  21  25
ENDBRANCH   1  22
TORSDOF 9
ENDMDL
