MODEL 1
REMARK VINA RESULT:      -7.3      0.000      0.000
REMARK  Name = 
REMARK  1 active torsions:
REMARK  status: ('A' for Active; 'I' for Inactive)
REMARK    1  A    between atoms: C_7  and  C_8
REMARK                            x       y       z     vdW  Elec       q    Type
REMARK                         _______ _______ _______ _____ _____    ______ ____
ROOT
ATOM      1  C   UNL     1       4.191   4.707  18.634  0.00  0.00    +0.000 A 
ATOM      2  N   UNL     1       4.358   5.617  17.687  0.00  0.00    +0.000 NA
ATOM      3  C   UNL     1       5.625   6.120  17.865  0.00  0.00    +0.000 A 
ATOM      4  C   UNL     1       6.291   7.145  17.179  0.00  0.00    +0.000 A 
ATOM      5  C   UNL     1       7.595   7.477  17.572  0.00  0.00    +0.000 A 
ATOM      6  C   UNL     1       8.223   6.799  18.620  0.00  0.00    +0.000 A 
ATOM      7  C   UNL     1       7.574   5.772  19.314  0.00  0.00    +0.000 A 
ATOM      8  C   UNL     1       6.275   5.470  18.904  0.00  0.00    +0.000 A 
ATOM      9  N   UNL     1       5.355   4.565  19.356  0.00  0.00    +0.000 N 
ATOM     10  H   UNL     1       5.478   3.933  20.133  0.00  0.00    +0.000 HD
ENDROOT
BRANCH   1  17
ATOM     11 CL   UNL     1       1.931   5.839  20.583  0.00  0.00    +0.000 Cl
ATOM     12  C   UNL     1       1.928   4.330  19.727  0.00  0.00    +0.000 A 
ATOM     13  C   UNL     1       0.797   3.521  19.904  0.00  0.00    +0.000 A 
ATOM     14  C   UNL     1       0.694   2.299  19.244  0.00  0.00    +0.000 A 
ATOM     15  C   UNL     1       1.717   1.882  18.400  0.00  0.00    +0.000 A 
ATOM     16  C   UNL     1       2.844   2.688  18.215  0.00  0.00    +0.000 A 
ATOM     17  C   UNL     1       2.975   3.921  18.880  0.00  0.00    +0.000 A 
ENDBRANCH   1  17
TORSDOF 1
ENDMDL
MODEL 2
REMARK VINA RESULT:      -7.2      1.372      1.820
REMARK  Name = 
REMARK  1 active torsions:
REMARK  status: ('A' for Active; 'I' for Inactive)
REMARK    1  A    between atoms: C_7  and  C_8
REMARK                            x       y       z     vdW  Elec       q    Type
REMARK                         _______ _______ _______ _____ _____    ______ ____
ROOT
ATOM      1  C   UNL     1       4.184   4.784  18.836  0.00  0.00    +0.000 A 
ATOM      2  N   UNL     1       4.320   5.658  17.851  0.00  0.00    +0.000 NA
ATOM      3  C   UNL     1       5.604   6.141  17.948  0.00  0.00    +0.000 A 
ATOM      4  C   UNL     1       6.253   7.128  17.194  0.00  0.00    +0.000 A 
ATOM      5  C   UNL     1       7.582   7.446  17.510  0.00  0.00    +0.000 A 
ATOM      6  C   UNL     1       8.249   6.790  18.548  0.00  0.00    +0.000 A 
ATOM      7  C   UNL     1       7.617   5.801  19.309  0.00  0.00    +0.000 A 
ATOM      8  C   UNL     1       6.293   5.513  18.975  0.00  0.00    +0.000 A 
ATOM      9  N   UNL     1       5.380   4.642  19.503  0.00  0.00    +0.000 N 
ATOM     10  H   UNL     1       5.530   4.035  20.295  0.00  0.00    +0.000 HD
ENDROOT
BRANCH   1  17
ATOM     11 CL   UNL     1       3.771   1.834  17.689  0.00  0.00    +0.000 Cl
ATOM     12  C   UNL     1       2.691   2.731  18.707  0.00  0.00    +0.000 A 
ATOM     13  C   UNL     1       1.505   2.080  19.076  0.00  0.00    +0.000 A 
ATOM     14  C   UNL     1       0.583   2.713  19.907  0.00  0.00    +0.000 A 
ATOM     15  C   UNL     1       0.843   3.996  20.376  0.00  0.00    +0.000 A 
ATOM     16  C   UNL     1       2.027   4.645  20.017  0.00  0.00    +0.000 A 
ATOM     17  C   UNL     1       2.967   4.032  19.170  0.00  0.00    +0.000 A 
ENDBRANCH   1  17
TORSDOF 1
ENDMDL
MODEL 3
REMARK VINA RESULT:      -7.2      1.577      5.910
REMARK  Name = 
REMARK  1 active torsions:
REMARK  status: ('A' for Active; 'I' for Inactive)
REMARK    1  A    between atoms: C_7  and  C_8
REMARK                            x       y       z     vdW  Elec       q    Type
REMARK                         _______ _______ _______ _____ _____    ______ ____
ROOT
ATOM      1  C   UNL     1       4.448   4.901  18.637  0.00  0.00    +0.000 A 
ATOM      2  N   UNL     1       4.007   3.915  17.872  0.00  0.00    +0.000 NA
ATOM      3  C   UNL     1       2.837   3.482  18.449  0.00  0.00    +0.000 A 
ATOM      4  C   UNL     1       1.991   2.426  18.085  0.00  0.00    +0.000 A 
ATOM      5  C   UNL     1       0.848   2.185  18.862  0.00  0.00    +0.000 A 
ATOM      6  C   UNL     1       0.554   2.981  19.971  0.00  0.00    +0.000 A 
ATOM      7  C   UNL     1       1.387   4.040  20.348  0.00  0.00    +0.000 A 
ATOM      8  C   UNL     1       2.519   4.250  19.560  0.00  0.00    +0.000 A 
ATOM      9  N   UNL     1       3.541   5.155  19.640  0.00  0.00    +0.000 N 
ATOM     10  H   UNL     1       3.652   5.860  20.354  0.00  0.00    +0.000 HD
ENDROOT
BRANCH   1  17
ATOM     11 CL   UNL     1       4.709   6.966  16.217  0.00  0.00    +0.000 Cl
ATOM     12  C   UNL     1       5.908   6.582  17.410  0.00  0.00    +0.000 A 
ATOM     13  C   UNL     1       7.127   7.266  17.304  0.00  0.00    +0.000 A 
ATOM     14  C   UNL     1       8.145   7.038  18.228  0.00  0.00    +0.000 A 
ATOM     15  C   UNL     1       7.948   6.132  19.263  0.00  0.00    +0.000 A 
ATOM     16  C   UNL     1       6.732   5.453  19.376  0.00  0.00    +0.000 A 
ATOM     17  C   UNL     1       5.694   5.656  18.450  0.00  0.00    +0.000 A 
ENDBRANCH   1  17
TORSDOF 1
ENDMDL
MODEL 4
REMARK VINA RESULT:      -7.2      2.630      5.547
REMARK  Name = 
REMARK  1 active torsions:
REMARK  status: ('A' for Active; 'I' for Inactive)
REMARK    1  A    between atoms: C_7  and  C_8
REMARK                            x       y       z     vdW  Elec       q    Type
REMARK                         _______ _______ _______ _____ _____    ______ ____
ROOT
ATOM      1  C   UNL     1       4.459   4.101  17.864  0.00  0.00    +0.000 A 
ATOM      2  N   UNL     1       3.281   4.673  18.055  0.00  0.00    +0.000 NA
ATOM      3  C   UNL     1       2.761   4.100  19.192  0.00  0.00    +0.000 A 
ATOM      4  C   UNL     1       1.519   4.294  19.810  0.00  0.00    +0.000 A 
ATOM      5  C   UNL     1       1.228   3.564  20.971  0.00  0.00    +0.000 A 
ATOM      6  C   UNL     1       2.156   2.667  21.507  0.00  0.00    +0.000 A 
ATOM      7  C   UNL     1       3.402   2.463  20.904  0.00  0.00    +0.000 A 
ATOM      8  C   UNL     1       3.659   3.198  19.745  0.00  0.00    +0.000 A 
ATOM      9  N   UNL     1       4.733   3.238  18.901  0.00  0.00    +0.000 N 
ATOM     10  H   UNL     1       5.570   2.681  18.981  0.00  0.00    +0.000 HD
ENDROOT
BRANCH   1  17
ATOM     11 CL   UNL     1       7.379   5.256  18.437  0.00  0.00    +0.000 Cl
ATOM     12  C   UNL     1       6.681   4.870  16.897  0.00  0.00    +0.000 A 
ATOM     13  C   UNL     1       7.497   5.081  15.777  0.00  0.00    +0.000 A 
ATOM     14  C   UNL     1       7.030   4.783  14.499  0.00  0.00    +0.000 A 
ATOM     15  C   UNL     1       5.749   4.270  14.334  0.00  0.00    +0.000 A 
ATOM     16  C   UNL     1       4.934   4.052  15.448  0.00  0.00    +0.000 A 
ATOM     17  C   UNL     1       5.379   4.356  16.747  0.00  0.00    +0.000 A 
ENDBRANCH   1  17
TORSDOF 1
ENDMDL
MODEL 5
REMARK VINA RESULT:      -7.2      2.455      2.843
REMARK  Name = 
REMARK  1 active torsions:
REMARK  status: ('A' for Active; 'I' for Inactive)
REMARK    1  A    between atoms: C_7  and  C_8
REMARK                            x       y       z     vdW  Elec       q    Type
REMARK                         _______ _______ _______ _____ _____    ______ ____
ROOT
ATOM      1  C   UNL     1       4.078   3.840  18.206  0.00  0.00    +0.000 A 
ATOM      2  N   UNL     1       3.789   3.795  16.915  0.00  0.00    +0.000 NA
ATOM      3  C   UNL     1       4.942   4.150  16.256  0.00  0.00    +0.000 A 
ATOM      4  C   UNL     1       5.179   4.321  14.885  0.00  0.00    +0.000 A 
ATOM      5  C   UNL     1       6.463   4.705  14.471  0.00  0.00    +0.000 A 
ATOM      6  C   UNL     1       7.487   4.908  15.400  0.00  0.00    +0.000 A 
ATOM      7  C   UNL     1       7.268   4.740  16.771  0.00  0.00    +0.000 A 
ATOM      8  C   UNL     1       5.978   4.365  17.153  0.00  0.00    +0.000 A 
ATOM      9  N   UNL     1       5.411   4.137  18.376  0.00  0.00    +0.000 N 
ATOM     10  H   UNL     1       5.872   4.231  19.269  0.00  0.00    +0.000 HD
ENDROOT
BRANCH   1  17
ATOM     11 CL   UNL     1       4.873   1.762  20.494  0.00  0.00    +0.000 Cl
ATOM     12  C   UNL     1       3.406   2.678  20.364  0.00  0.00    +0.000 A 
ATOM     13  C   UNL     1       2.467   2.490  21.387  0.00  0.00    +0.000 A 
ATOM     14  C   UNL     1       1.265   3.195  21.380  0.00  0.00    +0.000 A 
ATOM     15  C   UNL     1       0.999   4.094  20.353  0.00  0.00    +0.000 A 
ATOM     16  C   UNL     1       1.935   4.289  19.334  0.00  0.00    +0.000 A 
ATOM     17  C   UNL     1       3.150   3.580  19.314  0.00  0.00    +0.000 A 
ENDBRANCH   1  17
TORSDOF 1
ENDMDL
MODEL 6
REMARK VINA RESULT:      -7.2      0.157      1.459
REMARK  Name = 
REMARK  1 active torsions:
REMARK  status: ('A' for Active; 'I' for Inactive)
REMARK    1  A    between atoms: C_7  and  C_8
REMARK                            x       y       z     vdW  Elec       q    Type
REMARK                         _______ _______ _______ _____ _____    ______ ____
ROOT
ATOM      1  C   UNL     1       4.239   4.659  18.710  0.00  0.00    +0.000 A 
ATOM      2  N   UNL     1       5.333   4.568  19.450  0.00  0.00    +0.000 NA
ATOM      3  C   UNL     1       6.215   5.490  18.938  0.00  0.00    +0.000 A 
ATOM      4  C   UNL     1       7.538   5.771  19.306  0.00  0.00    +0.000 A 
ATOM      5  C   UNL     1       8.231   6.768  18.604  0.00  0.00    +0.000 A 
ATOM      6  C   UNL     1       7.617   7.472  17.565  0.00  0.00    +0.000 A 
ATOM      7  C   UNL     1       6.297   7.207  17.187  0.00  0.00    +0.000 A 
ATOM      8  C   UNL     1       5.636   6.204  17.899  0.00  0.00    +0.000 A 
ATOM      9  N   UNL     1       4.380   5.676  17.793  0.00  0.00    +0.000 N 
ATOM     10  H   UNL     1       3.682   5.940  17.113  0.00  0.00    +0.000 HD
ENDROOT
BRANCH   1  17
ATOM     11 CL   UNL     1       1.888   5.607  20.649  0.00  0.00    +0.000 Cl
ATOM     12  C   UNL     1       1.941   4.170  19.679  0.00  0.00    +0.000 A 
ATOM     13  C   UNL     1       0.817   3.336  19.749  0.00  0.00    +0.000 A 
ATOM     14  C   UNL     1       0.759   2.167  18.992  0.00  0.00    +0.000 A 
ATOM     15  C   UNL     1       1.820   1.830  18.159  0.00  0.00    +0.000 A 
ATOM     16  C   UNL     1       2.940   2.663  18.082  0.00  0.00    +0.000 A 
ATOM     17  C   UNL     1       3.027   3.841  18.846  0.00  0.00    +0.000 A 
ENDBRANCH   1  17
TORSDOF 1
ENDMDL
MODEL 7
REMARK VINA RESULT:      -7.2      1.549      5.937
REMARK  Name = 
REMARK  1 active torsions:
REMARK  status: ('A' for Active; 'I' for Inactive)
REMARK    1  A    between atoms: C_7  and  C_8
REMARK                            x       y       z     vdW  Elec       q    Type
REMARK                         _______ _______ _______ _____ _____    ______ ____
ROOT
ATOM      1  C   UNL     1       4.500   4.911  18.807  0.00  0.00    +0.000 A 
ATOM      2  N   UNL     1       3.615   5.147  19.763  0.00  0.00    +0.000 NA
ATOM      3  C   UNL     1       2.618   4.216  19.595  0.00  0.00    +0.000 A 
ATOM      4  C   UNL     1       1.414   4.051  20.293  0.00  0.00    +0.000 A 
ATOM      5  C   UNL     1       0.553   3.013  19.906  0.00  0.00    +0.000 A 
ATOM      6  C   UNL     1       0.888   2.157  18.854  0.00  0.00    +0.000 A 
ATOM      7  C   UNL     1       2.086   2.307  18.148  0.00  0.00    +0.000 A 
ATOM      8  C   UNL     1       2.918   3.353  18.551  0.00  0.00    +0.000 A 
ATOM      9  N   UNL     1       4.125   3.799  18.088  0.00  0.00    +0.000 N 
ATOM     10  H   UNL     1       4.636   3.419  17.305  0.00  0.00    +0.000 HD
ENDROOT
BRANCH   1  17
ATOM     11 CL   UNL     1       4.614   6.965  16.367  0.00  0.00    +0.000 Cl
ATOM     12  C   UNL     1       5.878   6.598  17.497  0.00  0.00    +0.000 A 
ATOM     13  C   UNL     1       7.083   7.291  17.323  0.00  0.00    +0.000 A 
ATOM     14  C   UNL     1       8.151   7.077  18.192  0.00  0.00    +0.000 A 
ATOM     15  C   UNL     1       8.017   6.174  19.241  0.00  0.00    +0.000 A 
ATOM     16  C   UNL     1       6.815   5.486  19.422  0.00  0.00    +0.000 A 
ATOM     17  C   UNL     1       5.727   5.676  18.550  0.00  0.00    +0.000 A 
ENDBRANCH   1  17
TORSDOF 1
ENDMDL
MODEL 8
REMARK VINA RESULT:      -7.2      2.429      3.072
REMARK  Name = 
REMARK  1 active torsions:
REMARK  status: ('A' for Active; 'I' for Inactive)
REMARK    1  A    between atoms: C_7  and  C_8
REMARK                            x       y       z     vdW  Elec       q    Type
REMARK                         _______ _______ _______ _____ _____    ______ ____
ROOT
ATOM      1  C   UNL     1       4.115   3.991  18.236  0.00  0.00    +0.000 A 
ATOM      2  N   UNL     1       5.327   4.496  18.403  0.00  0.00    +0.000 NA
ATOM      3  C   UNL     1       5.879   4.580  17.146  0.00  0.00    +0.000 A 
ATOM      4  C   UNL     1       7.160   4.989  16.751  0.00  0.00    +0.000 A 
ATOM      5  C   UNL     1       7.477   4.969  15.385  0.00  0.00    +0.000 A 
ATOM      6  C   UNL     1       6.538   4.559  14.436  0.00  0.00    +0.000 A 
ATOM      7  C   UNL     1       5.254   4.150  14.813  0.00  0.00    +0.000 A 
ATOM      8  C   UNL     1       4.971   4.173  16.179  0.00  0.00    +0.000 A 
ATOM      9  N   UNL     1       3.857   3.830  16.894  0.00  0.00    +0.000 N 
ATOM     10  H   UNL     1       2.999   3.459  16.512  0.00  0.00    +0.000 HD
ENDROOT
BRANCH   1  17
ATOM     11 CL   UNL     1       4.852   1.824  20.461  0.00  0.00    +0.000 Cl
ATOM     12  C   UNL     1       3.380   2.731  20.318  0.00  0.00    +0.000 A 
ATOM     13  C   UNL     1       2.408   2.490  21.299  0.00  0.00    +0.000 A 
ATOM     14  C   UNL     1       1.200   3.184  21.278  0.00  0.00    +0.000 A 
ATOM     15  C   UNL     1       0.960   4.124  20.282  0.00  0.00    +0.000 A 
ATOM     16  C   UNL     1       1.929   4.371  19.306  0.00  0.00    +0.000 A 
ATOM     17  C   UNL     1       3.151   3.675  19.299  0.00  0.00    +0.000 A 
ENDBRANCH   1  17
TORSDOF 1
ENDMDL
MODEL 9
REMARK VINA RESULT:      -7.1      2.283      2.540
REMARK  Name = 
REMARK  1 active torsions:
REMARK  status: ('A' for Active; 'I' for Inactive)
REMARK    1  A    between atoms: C_7  and  C_8
REMARK                            x       y       z     vdW  Elec       q    Type
REMARK                         _______ _______ _______ _____ _____    ______ ____
ROOT
ATOM      1  C   UNL     1       4.108   3.734  18.170  0.00  0.00    +0.000 A 
ATOM      2  N   UNL     1       3.909   3.660  16.863  0.00  0.00    +0.000 NA
ATOM      3  C   UNL     1       5.087   4.062  16.278  0.00  0.00    +0.000 A 
ATOM      4  C   UNL     1       5.408   4.227  14.924  0.00  0.00    +0.000 A 
ATOM      5  C   UNL     1       6.697   4.667  14.590  0.00  0.00    +0.000 A 
ATOM      6  C   UNL     1       7.645   4.929  15.583  0.00  0.00    +0.000 A 
ATOM      7  C   UNL     1       7.342   4.767  16.939  0.00  0.00    +0.000 A 
ATOM      8  C   UNL     1       6.049   4.336  17.239  0.00  0.00    +0.000 A 
ATOM      9  N   UNL     1       5.411   4.096  18.424  0.00  0.00    +0.000 N 
ATOM     10  H   UNL     1       5.806   4.221  19.345  0.00  0.00    +0.000 HD
ENDROOT
BRANCH   1  17
ATOM     11 CL   UNL     1       1.029   4.427  17.691  0.00  0.00    +0.000 Cl
ATOM     12  C   UNL     1       1.744   3.719  19.103  0.00  0.00    +0.000 A 
ATOM     13  C   UNL     1       0.865   3.405  20.150  0.00  0.00    +0.000 A 
ATOM     14  C   UNL     1       1.343   2.816  21.319  0.00  0.00    +0.000 A 
ATOM     15  C   UNL     1       2.698   2.533  21.445  0.00  0.00    +0.000 A 
ATOM     16  C   UNL     1       3.577   2.837  20.401  0.00  0.00    +0.000 A 
ATOM     17  C   UNL     1       3.120   3.443  19.217  0.00  0.00    +0.000 A 
ENDBRANCH   1  17
TORSDOF 1
ENDMDL
