MODEL 1
REMARK VINA RESULT:      -8.2      0.000      0.000
REMARK  Name = 
REMARK  6 active torsions:
REMARK  status: ('A' for Active; 'I' for Inactive)
REMARK    1  A    between atoms: C_6  and  N_7
REMARK    2  A    between atoms: N_7  and  C_8
REMARK    3  A    between atoms: C_8  and  C_9
REMARK    4  A    between atoms: C_9  and  O_10
REMARK    5  A    between atoms: O_10  and  C_11
REMARK    6  A    between atoms: C_14  and  C_15
REMARK                            x       y       z     vdW  Elec       q    Type
REMARK                         _______ _______ _______ _____ _____    ______ ____
ROOT
ATOM      1  C   UNL     1       2.771   4.147  19.910  0.00  0.00    +0.000 C 
ENDROOT
BRANCH   1   2
ATOM      2  C   UNL     1       1.895   5.302  20.338  0.00  0.00    +0.000 C 
BRANCH   2   3
ATOM      3  N   UNL     1       2.641   6.577  20.319  0.00  0.00    +0.000 N 
ATOM      4  H   UNL     1       3.558   6.591  20.753  0.00  0.00    +0.000 HD
BRANCH   3  10
ATOM      5 CL   UNL     1      -1.474  11.889  22.326  0.00  0.00    +0.000 Cl
ATOM      6  C   UNL     1      -0.444  10.681  21.581  0.00  0.00    +0.000 A 
ATOM      7  C   UNL     1      -0.026   9.578  22.319  0.00  0.00    +0.000 A 
ATOM      8  C   UNL     1       0.803   8.605  21.745  0.00  0.00    +0.000 A 
ATOM      9  C   UNL     1       1.235   8.708  20.399  0.00  0.00    +0.000 A 
ATOM     10  C   UNL     1       2.098   7.761  19.701  0.00  0.00    +0.000 A 
ATOM     11  C   UNL     1       2.419   8.024  18.370  0.00  0.00    +0.000 A 
ATOM     12  C   UNL     1       1.939   9.146  17.713  0.00  0.00    +0.000 A 
ATOM     13  N   UNL     1       1.141  10.022  18.366  0.00  0.00    +0.000 NA
ATOM     14  C   UNL     1       0.783   9.843  19.658  0.00  0.00    +0.000 A 
ATOM     15  C   UNL     1      -0.046  10.810  20.255  0.00  0.00    +0.000 A 
ENDBRANCH   3  10
ENDBRANCH   2   3
ENDBRANCH   1   2
BRANCH   1  16
ATOM     16  O   UNL     1       4.038   4.622  19.609  0.00  0.00    +0.000 OA
BRANCH  16  17
ATOM     17  C   UNL     1       4.561   4.654  18.356  0.00  0.00    +0.000 A 
ATOM     18  C   UNL     1       5.585   5.559  18.018  0.00  0.00    +0.000 A 
ATOM     19  C   UNL     1       6.184   5.522  16.779  0.00  0.00    +0.000 A 
ATOM     20  C   UNL     1       5.745   4.618  15.815  0.00  0.00    +0.000 A 
ATOM     21  C   UNL     1       4.676   3.752  16.106  0.00  0.00    +0.000 A 
ATOM     22  C   UNL     1       4.099   3.755  17.377  0.00  0.00    +0.000 A 
BRANCH  20  23
ATOM     23  C   UNL     1       6.394   4.566  14.501  0.00  0.00    +0.000 C 
ATOM     24  N   UNL     1       6.029   3.656  13.636  0.00  0.00    +0.000 NA
ATOM     25  C   UNL     1       6.586   3.555  12.299  0.00  0.00    +0.000 C 
ATOM     26  C   UNL     1       7.336   4.831  11.885  0.00  0.00    +0.000 C 
ATOM     27  C   UNL     1       8.251   5.254  13.021  0.00  0.00    +0.000 C 
ATOM     28  N   UNL     1       7.431   5.479  14.185  0.00  0.00    +0.000 N 
ATOM     29  H   UNL     1       7.847   6.006  14.972  0.00  0.00    +0.000 HD
ENDBRANCH  20  23
ENDBRANCH  16  17
ENDBRANCH   1  16
TORSDOF 6
ENDMDL
MODEL 2
REMARK VINA RESULT:      -8.2      0.555      1.047
REMARK  Name = 
REMARK  6 active torsions:
REMARK  status: ('A' for Active; 'I' for Inactive)
REMARK    1  A    between atoms: C_6  and  N_7
REMARK    2  A    between atoms: N_7  and  C_8
REMARK    3  A    between atoms: C_8  and  C_9
REMARK    4  A    between atoms: C_9  and  O_10
REMARK    5  A    between atoms: O_10  and  C_11
REMARK    6  A    between atoms: C_14  and  C_15
REMARK                            x       y       z     vdW  Elec       q    Type
REMARK                         _______ _______ _______ _____ _____    ______ ____
ROOT
ATOM      1  C   UNL     1       2.289   4.578  19.476  0.00  0.00    +0.000 C 
ENDROOT
BRANCH   1   2
ATOM      2  C   UNL     1       1.563   5.402  20.514  0.00  0.00    +0.000 C 
BRANCH   2   3
ATOM      3  N   UNL     1       2.214   6.715  20.708  0.00  0.00    +0.000 N 
ATOM      4  H   UNL     1       3.067   6.739  21.255  0.00  0.00    +0.000 HD
BRANCH   3  10
ATOM      5 CL   UNL     1      -1.557  12.153  23.030  0.00  0.00    +0.000 Cl
ATOM      6  C   UNL     1      -0.627  10.915  22.207  0.00  0.00    +0.000 A 
ATOM      7  C   UNL     1      -0.193   9.794  22.909  0.00  0.00    +0.000 A 
ATOM      8  C   UNL     1       0.557   8.796  22.272  0.00  0.00    +0.000 A 
ATOM      9  C   UNL     1       0.892   8.892  20.898  0.00  0.00    +0.000 A 
ATOM     10  C   UNL     1       1.668   7.921  20.135  0.00  0.00    +0.000 A 
ATOM     11  C   UNL     1       1.899   8.180  18.785  0.00  0.00    +0.000 A 
ATOM     12  C   UNL     1       1.411   9.321  18.168  0.00  0.00    +0.000 A 
ATOM     13  N   UNL     1       0.694  10.220  18.881  0.00  0.00    +0.000 NA
ATOM     14  C   UNL     1       0.426  10.047  20.196  0.00  0.00    +0.000 A 
ATOM     15  C   UNL     1      -0.323  11.038  20.855  0.00  0.00    +0.000 A 
ENDBRANCH   3  10
ENDBRANCH   2   3
ENDBRANCH   1   2
BRANCH   1  16
ATOM     16  O   UNL     1       3.572   5.075  19.313  0.00  0.00    +0.000 OA
BRANCH  16  17
ATOM     17  C   UNL     1       4.299   4.946  18.173  0.00  0.00    +0.000 A 
ATOM     18  C   UNL     1       4.331   3.729  17.465  0.00  0.00    +0.000 A 
ATOM     19  C   UNL     1       4.985   3.627  16.258  0.00  0.00    +0.000 A 
ATOM     20  C   UNL     1       5.675   4.721  15.741  0.00  0.00    +0.000 A 
ATOM     21  C   UNL     1       5.716   5.926  16.465  0.00  0.00    +0.000 A 
ATOM     22  C   UNL     1       5.015   6.045  17.665  0.00  0.00    +0.000 A 
BRANCH  20  23
ATOM     23  C   UNL     1       6.357   4.619  14.447  0.00  0.00    +0.000 C 
ATOM     24  N   UNL     1       5.979   3.708  13.587  0.00  0.00    +0.000 NA
ATOM     25  C   UNL     1       6.567   3.560  12.268  0.00  0.00    +0.000 C 
ATOM     26  C   UNL     1       7.379   4.797  11.854  0.00  0.00    +0.000 C 
ATOM     27  C   UNL     1       8.281   5.203  13.007  0.00  0.00    +0.000 C 
ATOM     28  N   UNL     1       7.439   5.482  14.143  0.00  0.00    +0.000 N 
ATOM     29  H   UNL     1       7.855   6.007  14.932  0.00  0.00    +0.000 HD
ENDBRANCH  20  23
ENDBRANCH  16  17
ENDBRANCH   1  16
TORSDOF 6
ENDMDL
MODEL 3
REMARK VINA RESULT:      -7.9      3.504      8.817
REMARK  Name = 
REMARK  6 active torsions:
REMARK  status: ('A' for Active; 'I' for Inactive)
REMARK    1  A    between atoms: C_6  and  N_7
REMARK    2  A    between atoms: N_7  and  C_8
REMARK    3  A    between atoms: C_8  and  C_9
REMARK    4  A    between atoms: C_9  and  O_10
REMARK    5  A    between atoms: O_10  and  C_11
REMARK    6  A    between atoms: C_14  and  C_15
REMARK                            x       y       z     vdW  Elec       q    Type
REMARK                         _______ _______ _______ _____ _____    ______ ____
ROOT
ATOM      1  C   UNL     1       3.482   5.071  18.760  0.00  0.00    +0.000 C 
ENDROOT
BRANCH   1   2
ATOM      2  C   UNL     1       4.088   3.833  19.379  0.00  0.00    +0.000 C 
BRANCH   2   3
ATOM      3  N   UNL     1       5.389   3.507  18.760  0.00  0.00    +0.000 N 
ATOM      4  H   UNL     1       5.737   2.561  18.868  0.00  0.00    +0.000 HD
BRANCH   3  10
ATOM      5 CL   UNL     1       7.070   4.569  12.034  0.00  0.00    +0.000 Cl
ATOM      6  C   UNL     1       6.796   4.528  13.765  0.00  0.00    +0.000 A 
ATOM      7  C   UNL     1       6.061   3.485  14.325  0.00  0.00    +0.000 A 
ATOM      8  C   UNL     1       5.825   3.437  15.705  0.00  0.00    +0.000 A 
ATOM      9  C   UNL     1       6.328   4.438  16.573  0.00  0.00    +0.000 A 
ATOM     10  C   UNL     1       6.141   4.490  18.019  0.00  0.00    +0.000 A 
ATOM     11  C   UNL     1       6.714   5.554  18.716  0.00  0.00    +0.000 A 
ATOM     12  C   UNL     1       7.444   6.539  18.070  0.00  0.00    +0.000 A 
ATOM     13  N   UNL     1       7.612   6.486  16.729  0.00  0.00    +0.000 NA
ATOM     14  C   UNL     1       7.088   5.491  15.978  0.00  0.00    +0.000 A 
ATOM     15  C   UNL     1       7.311   5.522  14.589  0.00  0.00    +0.000 A 
ENDBRANCH   3  10
ENDBRANCH   2   3
ENDBRANCH   1   2
BRANCH   1  16
ATOM     16  O   UNL     1       3.079   5.935  19.766  0.00  0.00    +0.000 OA
BRANCH  16  17
ATOM     17  C   UNL     1       2.398   7.090  19.550  0.00  0.00    +0.000 A 
ATOM     18  C   UNL     1       1.657   7.701  20.580  0.00  0.00    +0.000 A 
ATOM     19  C   UNL     1       1.051   8.923  20.389  0.00  0.00    +0.000 A 
ATOM     20  C   UNL     1       1.117   9.552  19.148  0.00  0.00    +0.000 A 
ATOM     21  C   UNL     1       1.793   8.927  18.084  0.00  0.00    +0.000 A 
ATOM     22  C   UNL     1       2.447   7.712  18.288  0.00  0.00    +0.000 A 
BRANCH  20  23
ATOM     23  C   UNL     1       0.487  10.860  18.949  0.00  0.00    +0.000 C 
ATOM     24  N   UNL     1       0.912  11.893  19.632  0.00  0.00    +0.000 NA
ATOM     25  C   UNL     1       0.376  13.232  19.472  0.00  0.00    +0.000 C 
ATOM     26  C   UNL     1      -0.438  13.380  18.177  0.00  0.00    +0.000 C 
ATOM     27  C   UNL     1      -1.389  12.201  18.056  0.00  0.00    +0.000 C 
ATOM     28  N   UNL     1      -0.595  10.998  18.045  0.00  0.00    +0.000 N 
ATOM     29  H   UNL     1      -1.049  10.126  17.722  0.00  0.00    +0.000 HD
ENDBRANCH  20  23
ENDBRANCH  16  17
ENDBRANCH   1  16
TORSDOF 6
ENDMDL
MODEL 4
REMARK VINA RESULT:      -7.8      0.858      1.003
REMARK  Name = 
REMARK  6 active torsions:
REMARK  status: ('A' for Active; 'I' for Inactive)
REMARK    1  A    between atoms: C_6  and  N_7
REMARK    2  A    between atoms: N_7  and  C_8
REMARK    3  A    between atoms: C_8  and  C_9
REMARK    4  A    between atoms: C_9  and  O_10
REMARK    5  A    between atoms: O_10  and  C_11
REMARK    6  A    between atoms: C_14  and  C_15
REMARK                            x       y       z     vdW  Elec       q    Type
REMARK                         _______ _______ _______ _____ _____    ______ ____
ROOT
ATOM      1  C   UNL     1       2.957   5.255  20.060  0.00  0.00    +0.000 C 
ENDROOT
BRANCH   1   2
ATOM      2  C   UNL     1       2.245   6.420  19.412  0.00  0.00    +0.000 C 
BRANCH   2   3
ATOM      3  N   UNL     1       2.023   7.516  20.377  0.00  0.00    +0.000 N 
ATOM      4  H   UNL     1       2.363   7.384  21.323  0.00  0.00    +0.000 HD
BRANCH   3  10
ATOM      5 CL   UNL     1      -2.158  12.186  23.523  0.00  0.00    +0.000 Cl
ATOM      6  C   UNL     1      -1.143  11.172  22.515  0.00  0.00    +0.000 A 
ATOM      7  C   UNL     1      -0.591  10.006  23.039  0.00  0.00    +0.000 A 
ATOM      8  C   UNL     1       0.228   9.186  22.252  0.00  0.00    +0.000 A 
ATOM      9  C   UNL     1       0.515   9.510  20.902  0.00  0.00    +0.000 A 
ATOM     10  C   UNL     1       1.355   8.736  19.995  0.00  0.00    +0.000 A 
ATOM     11  C   UNL     1       1.524   9.207  18.694  0.00  0.00    +0.000 A 
ATOM     12  C   UNL     1       0.919  10.376  18.258  0.00  0.00    +0.000 A 
ATOM     13  N   UNL     1       0.143  11.091  19.105  0.00  0.00    +0.000 NA
ATOM     14  C   UNL     1      -0.071  10.705  20.384  0.00  0.00    +0.000 A 
ATOM     15  C   UNL     1      -0.889  11.517  21.191  0.00  0.00    +0.000 A 
ENDBRANCH   3  10
ENDBRANCH   2   3
ENDBRANCH   1   2
BRANCH   1  16
ATOM     16  O   UNL     1       4.297   5.285  19.709  0.00  0.00    +0.000 OA
BRANCH  16  17
ATOM     17  C   UNL     1       4.752   5.175  18.434  0.00  0.00    +0.000 A 
ATOM     18  C   UNL     1       5.664   6.108  17.904  0.00  0.00    +0.000 A 
ATOM     19  C   UNL     1       6.203   5.939  16.648  0.00  0.00    +0.000 A 
ATOM     20  C   UNL     1       5.810   4.864  15.856  0.00  0.00    +0.000 A 
ATOM     21  C   UNL     1       4.847   3.958  16.337  0.00  0.00    +0.000 A 
ATOM     22  C   UNL     1       4.335   4.100  17.627  0.00  0.00    +0.000 A 
BRANCH  20  23
ATOM     23  C   UNL     1       6.396   4.674  14.525  0.00  0.00    +0.000 C 
ATOM     24  N   UNL     1       5.937   3.729  13.746  0.00  0.00    +0.000 NA
ATOM     25  C   UNL     1       6.427   3.493  12.400  0.00  0.00    +0.000 C 
ATOM     26  C   UNL     1       7.236   4.684  11.862  0.00  0.00    +0.000 C 
ATOM     27  C   UNL     1       8.225   5.128  12.925  0.00  0.00    +0.000 C 
ATOM     28  N   UNL     1       7.472   5.491  14.100  0.00  0.00    +0.000 N 
ATOM     29  H   UNL     1       7.955   6.046  14.828  0.00  0.00    +0.000 HD
ENDBRANCH  20  23
ENDBRANCH  16  17
ENDBRANCH   1  16
TORSDOF 6
ENDMDL
MODEL 5
REMARK VINA RESULT:      -7.8      6.405      8.154
REMARK  Name = 
REMARK  6 active torsions:
REMARK  status: ('A' for Active; 'I' for Inactive)
REMARK    1  A    between atoms: C_6  and  N_7
REMARK    2  A    between atoms: N_7  and  C_8
REMARK    3  A    between atoms: C_8  and  C_9
REMARK    4  A    between atoms: C_9  and  O_10
REMARK    5  A    between atoms: O_10  and  C_11
REMARK    6  A    between atoms: C_14  and  C_15
REMARK                            x       y       z     vdW  Elec       q    Type
REMARK                         _______ _______ _______ _____ _____    ______ ____
ROOT
ATOM      1  C   UNL     1       8.230   7.953  17.901  0.00  0.00    +0.000 C 
ENDROOT
BRANCH   1   2
ATOM      2  C   UNL     1       8.210   9.463  17.944  0.00  0.00    +0.000 C 
BRANCH   2   3
ATOM      3  N   UNL     1       9.055   9.979  19.041  0.00  0.00    +0.000 N 
ATOM      4  H   UNL     1       9.106   9.430  19.892  0.00  0.00    +0.000 HD
BRANCH   3  10
ATOM      5 CL   UNL     1      10.088  15.683  22.988  0.00  0.00    +0.000 Cl
ATOM      6  C   UNL     1       9.986  14.382  21.818  0.00  0.00    +0.000 A 
ATOM      7  C   UNL     1       9.205  13.263  22.093  0.00  0.00    +0.000 A 
ATOM      8  C   UNL     1       9.116  12.208  21.175  0.00  0.00    +0.000 A 
ATOM      9  C   UNL     1       9.807  12.250  19.938  0.00  0.00    +0.000 A 
ATOM     10  C   UNL     1       9.791  11.213  18.912  0.00  0.00    +0.000 A 
ATOM     11  C   UNL     1      10.533  11.427  17.751  0.00  0.00    +0.000 A 
ATOM     12  C   UNL     1      11.269  12.586  17.560  0.00  0.00    +0.000 A 
ATOM     13  N   UNL     1      11.283  13.542  18.517  0.00  0.00    +0.000 NA
ATOM     14  C   UNL     1      10.593  13.414  19.673  0.00  0.00    +0.000 A 
ATOM     15  C   UNL     1      10.672  14.459  20.610  0.00  0.00    +0.000 A 
ENDBRANCH   3  10
ENDBRANCH   2   3
ENDBRANCH   1   2
BRANCH   1  16
ATOM     16  O   UNL     1       7.168   7.503  17.134  0.00  0.00    +0.000 OA
BRANCH  16  17
ATOM     17  C   UNL     1       6.133   6.771  17.624  0.00  0.00    +0.000 A 
ATOM     18  C   UNL     1       4.817   6.974  17.164  0.00  0.00    +0.000 A 
ATOM     19  C   UNL     1       3.786   6.165  17.586  0.00  0.00    +0.000 A 
ATOM     20  C   UNL     1       4.020   5.160  18.521  0.00  0.00    +0.000 A 
ATOM     21  C   UNL     1       5.313   4.985  19.047  0.00  0.00    +0.000 A 
ATOM     22  C   UNL     1       6.369   5.772  18.587  0.00  0.00    +0.000 A 
BRANCH  20  23
ATOM     23  C   UNL     1       2.926   4.287  18.957  0.00  0.00    +0.000 C 
ATOM     24  N   UNL     1       2.692   3.174  18.312  0.00  0.00    +0.000 NA
ATOM     25  C   UNL     1       1.659   2.229  18.696  0.00  0.00    +0.000 C 
ATOM     26  C   UNL     1       1.150   2.475  20.125  0.00  0.00    +0.000 C 
ATOM     27  C   UNL     1       0.877   3.959  20.301  0.00  0.00    +0.000 C 
ATOM     28  N   UNL     1       2.109   4.664  20.052  0.00  0.00    +0.000 N 
ATOM     29  H   UNL     1       2.172   5.648  20.366  0.00  0.00    +0.000 HD
ENDBRANCH  20  23
ENDBRANCH  16  17
ENDBRANCH   1  16
TORSDOF 6
ENDMDL
MODEL 6
REMARK VINA RESULT:      -7.7      4.464     10.060
REMARK  Name = 
REMARK  6 active torsions:
REMARK  status: ('A' for Active; 'I' for Inactive)
REMARK    1  A    between atoms: C_6  and  N_7
REMARK    2  A    between atoms: N_7  and  C_8
REMARK    3  A    between atoms: C_8  and  C_9
REMARK    4  A    between atoms: C_9  and  O_10
REMARK    5  A    between atoms: O_10  and  C_11
REMARK    6  A    between atoms: C_14  and  C_15
REMARK                            x       y       z     vdW  Elec       q    Type
REMARK                         _______ _______ _______ _____ _____    ______ ____
ROOT
ATOM      1  C   UNL     1       1.423   8.906  18.564  0.00  0.00    +0.000 C 
ENDROOT
BRANCH   1   2
ATOM      2  C   UNL     1       1.343   8.395  19.983  0.00  0.00    +0.000 C 
BRANCH   2   3
ATOM      3  N   UNL     1       2.416   7.418  20.263  0.00  0.00    +0.000 N 
ATOM      4  H   UNL     1       3.179   7.718  20.859  0.00  0.00    +0.000 HD
BRANCH   3  10
ATOM      5 CL   UNL     1       5.662   4.001  15.069  0.00  0.00    +0.000 Cl
ATOM      6  C   UNL     1       4.717   4.622  16.409  0.00  0.00    +0.000 A 
ATOM      7  C   UNL     1       4.854   5.953  16.794  0.00  0.00    +0.000 A 
ATOM      8  C   UNL     1       4.114   6.468  17.867  0.00  0.00    +0.000 A 
ATOM      9  C   UNL     1       3.200   5.657  18.586  0.00  0.00    +0.000 A 
ATOM     10  C   UNL     1       2.384   6.084  19.718  0.00  0.00    +0.000 A 
ATOM     11  C   UNL     1       1.535   5.145  20.304  0.00  0.00    +0.000 A 
ATOM     12  C   UNL     1       1.456   3.842  19.838  0.00  0.00    +0.000 A 
ATOM     13  N   UNL     1       2.218   3.452  18.790  0.00  0.00    +0.000 NA
ATOM     14  C   UNL     1       3.069   4.298  18.165  0.00  0.00    +0.000 A 
ATOM     15  C   UNL     1       3.824   3.800  17.088  0.00  0.00    +0.000 A 
ENDBRANCH   3  10
ENDBRANCH   2   3
ENDBRANCH   1   2
BRANCH   1  16
ATOM     16  O   UNL     1       1.012  10.228  18.530  0.00  0.00    +0.000 OA
BRANCH  16  17
ATOM     17  C   UNL     1      -0.289  10.620  18.498  0.00  0.00    +0.000 A 
ATOM     18  C   UNL     1      -1.226   9.964  17.677  0.00  0.00    +0.000 A 
ATOM     19  C   UNL     1      -2.562  10.295  17.720  0.00  0.00    +0.000 A 
ATOM     20  C   UNL     1      -3.001  11.328  18.544  0.00  0.00    +0.000 A 
ATOM     21  C   UNL     1      -2.072  12.044  19.320  0.00  0.00    +0.000 A 
ATOM     22  C   UNL     1      -0.725  11.680  19.314  0.00  0.00    +0.000 A 
BRANCH  20  23
ATOM     23  C   UNL     1      -4.426  11.669  18.604  0.00  0.00    +0.000 C 
ATOM     24  N   UNL     1      -5.314  10.812  18.171  0.00  0.00    +0.000 NA
ATOM     25  C   UNL     1      -6.746  11.047  18.228  0.00  0.00    +0.000 C 
ATOM     26  C   UNL     1      -7.107  12.196  19.182  0.00  0.00    +0.000 C 
ATOM     27  C   UNL     1      -6.191  13.375  18.901  0.00  0.00    +0.000 C 
ATOM     28  N   UNL     1      -4.834  12.932  19.100  0.00  0.00    +0.000 N 
ATOM     29  H   UNL     1      -4.101  13.657  19.196  0.00  0.00    +0.000 HD
ENDBRANCH  20  23
ENDBRANCH  16  17
ENDBRANCH   1  16
TORSDOF 6
ENDMDL
MODEL 7
REMARK VINA RESULT:      -7.7      3.446      8.619
REMARK  Name = 
REMARK  6 active torsions:
REMARK  status: ('A' for Active; 'I' for Inactive)
REMARK    1  A    between atoms: C_6  and  N_7
REMARK    2  A    between atoms: N_7  and  C_8
REMARK    3  A    between atoms: C_8  and  C_9
REMARK    4  A    between atoms: C_9  and  O_10
REMARK    5  A    between atoms: O_10  and  C_11
REMARK    6  A    between atoms: C_14  and  C_15
REMARK                            x       y       z     vdW  Elec       q    Type
REMARK                         _______ _______ _______ _____ _____    ______ ____
ROOT
ATOM      1  C   UNL     1       2.838   4.470  18.839  0.00  0.00    +0.000 C 
ENDROOT
BRANCH   1   2
ATOM      2  C   UNL     1       3.995   3.499  18.793  0.00  0.00    +0.000 C 
BRANCH   2   3
ATOM      3  N   UNL     1       5.258   4.153  19.196  0.00  0.00    +0.000 N 
ATOM      4  H   UNL     1       5.555   4.046  20.160  0.00  0.00    +0.000 HD
BRANCH   3  10
ATOM      5 CL   UNL     1       6.559   3.881  12.310  0.00  0.00    +0.000 Cl
ATOM      6  C   UNL     1       6.405   4.160  14.034  0.00  0.00    +0.000 A 
ATOM      7  C   UNL     1       5.611   3.314  14.804  0.00  0.00    +0.000 A 
ATOM      8  C   UNL     1       5.468   3.524  16.182  0.00  0.00    +0.000 A 
ATOM      9  C   UNL     1       6.129   4.594  16.835  0.00  0.00    +0.000 A 
ATOM     10  C   UNL     1       6.050   4.909  18.258  0.00  0.00    +0.000 A 
ATOM     11  C   UNL     1       6.775   6.003  18.728  0.00  0.00    +0.000 A 
ATOM     12  C   UNL     1       7.553   6.780  17.884  0.00  0.00    +0.000 A 
ATOM     13  N   UNL     1       7.619   6.484  16.565  0.00  0.00    +0.000 NA
ATOM     14  C   UNL     1       6.947   5.442  16.027  0.00  0.00    +0.000 A 
ATOM     15  C   UNL     1       7.074   5.215  14.644  0.00  0.00    +0.000 A 
ENDBRANCH   3  10
ENDBRANCH   2   3
ENDBRANCH   1   2
BRANCH   1  16
ATOM     16  O   UNL     1       3.217   5.601  19.544  0.00  0.00    +0.000 OA
BRANCH  16  17
ATOM     17  C   UNL     1       2.615   6.813  19.420  0.00  0.00    +0.000 A 
ATOM     18  C   UNL     1       2.642   7.516  18.200  0.00  0.00    +0.000 A 
ATOM     19  C   UNL     1       1.948   8.695  18.045  0.00  0.00    +0.000 A 
ATOM     20  C   UNL     1       1.246   9.241  19.117  0.00  0.00    +0.000 A 
ATOM     21  C   UNL     1       1.262   8.591  20.365  0.00  0.00    +0.000 A 
ATOM     22  C   UNL     1       1.927   7.373  20.511  0.00  0.00    +0.000 A 
BRANCH  20  23
ATOM     23  C   UNL     1       0.492  10.486  18.948  0.00  0.00    +0.000 C 
ATOM     24  N   UNL     1       0.734  11.501  19.737  0.00  0.00    +0.000 NA
ATOM     25  C   UNL     1       0.067  12.784  19.619  0.00  0.00    +0.000 C 
ATOM     26  C   UNL     1      -0.641  12.946  18.264  0.00  0.00    +0.000 C 
ATOM     27  C   UNL     1      -1.438  11.686  17.972  0.00  0.00    +0.000 C 
ATOM     28  N   UNL     1      -0.515  10.579  17.955  0.00  0.00    +0.000 N 
ATOM     29  H   UNL     1      -0.837   9.691  17.531  0.00  0.00    +0.000 HD
ENDBRANCH  20  23
ENDBRANCH  16  17
ENDBRANCH   1  16
TORSDOF 6
ENDMDL
MODEL 8
REMARK VINA RESULT:      -7.7      2.820      7.834
REMARK  Name = 
REMARK  6 active torsions:
REMARK  status: ('A' for Active; 'I' for Inactive)
REMARK    1  A    between atoms: C_6  and  N_7
REMARK    2  A    between atoms: N_7  and  C_8
REMARK    3  A    between atoms: C_8  and  C_9
REMARK    4  A    between atoms: C_9  and  O_10
REMARK    5  A    between atoms: O_10  and  C_11
REMARK    6  A    between atoms: C_14  and  C_15
REMARK                            x       y       z     vdW  Elec       q    Type
REMARK                         _______ _______ _______ _____ _____    ______ ____
ROOT
ATOM      1  C   UNL     1       2.413   3.168  18.883  0.00  0.00    +0.000 C 
ENDROOT
BRANCH   1   2
ATOM      2  C   UNL     1       3.130   2.588  17.686  0.00  0.00    +0.000 C 
BRANCH   2   3
ATOM      3  N   UNL     1       4.580   2.866  17.745  0.00  0.00    +0.000 N 
ATOM      4  H   UNL     1       5.138   2.317  18.390  0.00  0.00    +0.000 HD
BRANCH   3  10
ATOM      5 CL   UNL     1       8.821   8.361  18.745  0.00  0.00    +0.000 Cl
ATOM      6  C   UNL     1       7.764   7.059  18.233  0.00  0.00    +0.000 A 
ATOM      7  C   UNL     1       7.238   6.183  19.178  0.00  0.00    +0.000 A 
ATOM      8  C   UNL     1       6.397   5.131  18.789  0.00  0.00    +0.000 A 
ATOM      9  C   UNL     1       6.050   4.931  17.429  0.00  0.00    +0.000 A 
ATOM     10  C   UNL     1       5.191   3.872  16.912  0.00  0.00    +0.000 A 
ATOM     11  C   UNL     1       4.956   3.831  15.538  0.00  0.00    +0.000 A 
ATOM     12  C   UNL     1       5.515   4.761  14.675  0.00  0.00    +0.000 A 
ATOM     13  N   UNL     1       6.314   5.739  15.161  0.00  0.00    +0.000 NA
ATOM     14  C   UNL     1       6.594   5.850  16.480  0.00  0.00    +0.000 A 
ATOM     15  C   UNL     1       7.439   6.897  16.891  0.00  0.00    +0.000 A 
ENDBRANCH   3  10
ENDBRANCH   2   3
ENDBRANCH   1   2
BRANCH   1  16
ATOM     16  O   UNL     1       3.157   4.216  19.399  0.00  0.00    +0.000 OA
BRANCH  16  17
ATOM     17  C   UNL     1       2.693   5.487  19.529  0.00  0.00    +0.000 A 
ATOM     18  C   UNL     1       2.959   6.462  18.549  0.00  0.00    +0.000 A 
ATOM     19  C   UNL     1       2.405   7.720  18.631  0.00  0.00    +0.000 A 
ATOM     20  C   UNL     1       1.610   8.066  19.722  0.00  0.00    +0.000 A 
ATOM     21  C   UNL     1       1.389   7.130  20.749  0.00  0.00    +0.000 A 
ATOM     22  C   UNL     1       1.911   5.840  20.644  0.00  0.00    +0.000 A 
BRANCH  20  23
ATOM     23  C   UNL     1       1.006   9.399  19.802  0.00  0.00    +0.000 C 
ATOM     24  N   UNL     1       0.562   9.973  18.713  0.00  0.00    +0.000 NA
ATOM     25  C   UNL     1      -0.087  11.271  18.702  0.00  0.00    +0.000 C 
ATOM     26  C   UNL     1      -0.539  11.706  20.105  0.00  0.00    +0.000 C 
ATOM     27  C   UNL     1       0.600  11.474  21.083  0.00  0.00    +0.000 C 
ATOM     28  N   UNL     1       0.930  10.072  21.046  0.00  0.00    +0.000 N 
ATOM     29  H   UNL     1       1.505   9.693  21.819  0.00  0.00    +0.000 HD
ENDBRANCH  20  23
ENDBRANCH  16  17
ENDBRANCH   1  16
TORSDOF 6
ENDMDL
MODEL 9
REMARK VINA RESULT:      -7.6      3.442      8.833
REMARK  Name = 
REMARK  6 active torsions:
REMARK  status: ('A' for Active; 'I' for Inactive)
REMARK    1  A    between atoms: C_6  and  N_7
REMARK    2  A    between atoms: N_7  and  C_8
REMARK    3  A    between atoms: C_8  and  C_9
REMARK    4  A    between atoms: C_9  and  O_10
REMARK    5  A    between atoms: O_10  and  C_11
REMARK    6  A    between atoms: C_14  and  C_15
REMARK                            x       y       z     vdW  Elec       q    Type
REMARK                         _______ _______ _______ _____ _____    ______ ____
ROOT
ATOM      1  C   UNL     1       3.520   5.014  19.882  0.00  0.00    +0.000 C 
ENDROOT
BRANCH   1   2
ATOM      2  C   UNL     1       4.128   3.784  19.249  0.00  0.00    +0.000 C 
BRANCH   2   3
ATOM      3  N   UNL     1       5.602   3.878  19.204  0.00  0.00    +0.000 N 
ATOM      4  H   UNL     1       6.128   3.316  19.864  0.00  0.00    +0.000 HD
BRANCH   3  10
ATOM      5 CL   UNL     1       6.462   3.989  12.244  0.00  0.00    +0.000 Cl
ATOM      6  C   UNL     1       6.403   4.184  13.986  0.00  0.00    +0.000 A 
ATOM      7  C   UNL     1       5.722   3.251  14.763  0.00  0.00    +0.000 A 
ATOM      8  C   UNL     1       5.656   3.392  16.156  0.00  0.00    +0.000 A 
ATOM      9  C   UNL     1       6.283   4.479  16.816  0.00  0.00    +0.000 A 
ATOM     10  C   UNL     1       6.276   4.727  18.254  0.00  0.00    +0.000 A 
ATOM     11  C   UNL     1       6.953   5.850  18.728  0.00  0.00    +0.000 A 
ATOM     12  C   UNL     1       7.618   6.716  17.873  0.00  0.00    +0.000 A 
ATOM     13  N   UNL     1       7.618   6.481  16.541  0.00  0.00    +0.000 NA
ATOM     14  C   UNL     1       6.985   5.416  15.998  0.00  0.00    +0.000 A 
ATOM     15  C   UNL     1       7.036   5.258  14.601  0.00  0.00    +0.000 A 
ENDBRANCH   3  10
ENDBRANCH   2   3
ENDBRANCH   1   2
BRANCH   1  16
ATOM     16  O   UNL     1       2.733   5.668  18.949  0.00  0.00    +0.000 OA
BRANCH  16  17
ATOM     17  C   UNL     1       2.274   6.939  19.097  0.00  0.00    +0.000 A 
ATOM     18  C   UNL     1       2.292   7.848  18.022  0.00  0.00    +0.000 A 
ATOM     19  C   UNL     1       1.735   9.102  18.144  0.00  0.00    +0.000 A 
ATOM     20  C   UNL     1       1.189   9.511  19.358  0.00  0.00    +0.000 A 
ATOM     21  C   UNL     1       1.224   8.644  20.466  0.00  0.00    +0.000 A 
ATOM     22  C   UNL     1       1.745   7.357  20.332  0.00  0.00    +0.000 A 
BRANCH  20  23
ATOM     23  C   UNL     1       0.580  10.839  19.483  0.00  0.00    +0.000 C 
ATOM     24  N   UNL     1      -0.290  11.237  18.592  0.00  0.00    +0.000 NA
ATOM     25  C   UNL     1      -0.973  12.516  18.657  0.00  0.00    +0.000 C 
ATOM     26  C   UNL     1      -0.866  13.160  20.048  0.00  0.00    +0.000 C 
ATOM     27  C   UNL     1       0.578  13.086  20.515  0.00  0.00    +0.000 C 
ATOM     28  N   UNL     1       0.957  11.695  20.548  0.00  0.00    +0.000 N 
ATOM     29  H   UNL     1       1.811  11.442  21.073  0.00  0.00    +0.000 HD
ENDBRANCH  20  23
ENDBRANCH  16  17
ENDBRANCH   1  16
TORSDOF 6
ENDMDL
