MODEL 1
REMARK VINA RESULT:      -8.1      0.000      0.000
REMARK  Name = 
REMARK  10 active torsions:
REMARK  status: ('A' for Active; 'I' for Inactive)
REMARK    1  A    between atoms: C_1  and  C_2
REMARK    2  A    between atoms: C_4  and  C_5
REMARK    3  A    between atoms: C_5  and  C_7
REMARK    4  A    between atoms: C_7  and  S_8
REMARK    5  A    between atoms: S_8  and  C_9
REMARK    6  A    between atoms: C_12  and  C_13
REMARK    7  A    between atoms: N_20  and  C_21
REMARK    8  A    between atoms: C_22  and  C_23
REMARK    9  A    between atoms: N_24  and  C_25
REMARK   10  A    between atoms: C_25  and  C_26
REMARK                            x       y       z     vdW  Elec       q    Type
REMARK                         _______ _______ _______ _____ _____    ______ ____
ROOT
ATOM      1  C   UNL     1      -0.560  10.712  19.124  0.00  0.00    +0.000 C 
ATOM      2  O   UNL     1       0.362  11.504  18.926  0.00  0.00    +0.000 OA
ENDROOT
BRANCH   1   6
ATOM      3  C   UNL     1      -3.682  10.161  15.175  0.00  0.00    +0.000 C 
ATOM      4  C   UNL     1      -3.184  10.483  16.539  0.00  0.00    +0.000 A 
ATOM      5  C   UNL     1      -1.980  10.085  17.074  0.00  0.00    +0.000 A 
ATOM      6  C   UNL     1      -1.783  10.756  18.304  0.00  0.00    +0.000 A 
ATOM      7  C   UNL     1      -2.946  11.494  18.539  0.00  0.00    +0.000 A 
ATOM      8  C   UNL     1      -3.275  12.428  19.664  0.00  0.00    +0.000 C 
ATOM      9  N   UNL     1      -3.823  11.277  17.472  0.00  0.00    +0.000 N 
BRANCH   9  10
ATOM     10  C   UNL     1      -5.093  11.981  17.276  0.00  0.00    +0.000 C 
BRANCH  10  11
ATOM     11  C   UNL     1      -6.353  11.467  17.995  0.00  0.00    +0.000 C 
ATOM     12  C   UNL     1      -6.853  12.277  19.176  0.00  0.00    +0.000 C 
ATOM     13  C   UNL     1      -7.488  11.251  20.086  0.00  0.00    +0.000 C 
ATOM     14  C   UNL     1      -6.895   9.926  19.663  0.00  0.00    +0.000 C 
ATOM     15  O   UNL     1      -6.215  10.109  18.420  0.00  0.00    +0.000 OA
ENDBRANCH  10  11
ENDBRANCH   9  10
ENDBRANCH   1   6
BRANCH   1  16
ATOM     16  C   UNL     1      -0.493   9.627  20.216  0.00  0.00    +0.000 C 
BRANCH  16  17
ATOM     17  S   UNL     1       1.207   9.431  20.784  0.00  0.00    +0.000 S 
BRANCH  17  18
ATOM     18  C   UNL     1       1.699   7.866  20.246  0.00  0.00    +0.000 A 
ATOM     19  N   UNL     1       1.604   6.702  20.830  0.00  0.00    +0.000 NA
ATOM     20  N   UNL     1       2.213   5.772  20.011  0.00  0.00    +0.000 NA
ATOM     21  C   UNL     1       2.700   6.403  18.955  0.00  0.00    +0.000 A 
ATOM     22  N   UNL     1       2.310   7.719  19.031  0.00  0.00    +0.000 N 
ATOM     23  C   UNL     1       2.478   8.766  18.053  0.00  0.00    +0.000 C 
BRANCH  21  24
ATOM     24  C   UNL     1       3.523   5.801  17.886  0.00  0.00    +0.000 A 
ATOM     25  C   UNL     1       3.397   4.441  17.564  0.00  0.00    +0.000 A 
ATOM     26  C   UNL     1       4.185   3.866  16.555  0.00  0.00    +0.000 A 
ATOM     27  C   UNL     1       5.103   4.648  15.858  0.00  0.00    +0.000 A 
ATOM     28 CL   UNL     1       6.079   3.949  14.625  0.00  0.00    +0.000 Cl
ATOM     29  C   UNL     1       5.247   5.997  16.164  0.00  0.00    +0.000 A 
ATOM     30  C   UNL     1       4.475   6.561  17.184  0.00  0.00    +0.000 A 
ENDBRANCH  21  24
ENDBRANCH  17  18
ENDBRANCH  16  17
ENDBRANCH   1  16
TORSDOF 7
ENDMDL
MODEL 2
REMARK VINA RESULT:      -7.7      7.509     10.771
REMARK  Name = 
REMARK  10 active torsions:
REMARK  status: ('A' for Active; 'I' for Inactive)
REMARK    1  A    between atoms: C_1  and  C_2
REMARK    2  A    between atoms: C_4  and  C_5
REMARK    3  A    between atoms: C_5  and  C_7
REMARK    4  A    between atoms: C_7  and  S_8
REMARK    5  A    between atoms: S_8  and  C_9
REMARK    6  A    between atoms: C_12  and  C_13
REMARK    7  A    between atoms: N_20  and  C_21
REMARK    8  A    between atoms: C_22  and  C_23
REMARK    9  A    between atoms: N_24  and  C_25
REMARK   10  A    between atoms: C_25  and  C_26
REMARK                            x       y       z     vdW  Elec       q    Type
REMARK                         _______ _______ _______ _____ _____    ______ ____
ROOT
ATOM      1  C   UNL     1       9.091  10.222  19.019  0.00  0.00    +0.000 C 
ATOM      2  O   UNL     1       9.227   9.805  20.170  0.00  0.00    +0.000 OA
ENDROOT
BRANCH   1   6
ATOM      3  C   UNL     1      12.202  13.420  16.624  0.00  0.00    +0.000 C 
ATOM      4  C   UNL     1      11.111  12.908  17.494  0.00  0.00    +0.000 A 
ATOM      5  C   UNL     1      10.607  11.628  17.489  0.00  0.00    +0.000 A 
ATOM      6  C   UNL     1       9.730  11.478  18.590  0.00  0.00    +0.000 A 
ATOM      7  C   UNL     1       9.648  12.733  19.200  0.00  0.00    +0.000 A 
ATOM      8  C   UNL     1       8.905  13.150  20.433  0.00  0.00    +0.000 C 
ATOM      9  N   UNL     1      10.460  13.619  18.486  0.00  0.00    +0.000 N 
BRANCH   9  10
ATOM     10  C   UNL     1      10.753  14.996  18.889  0.00  0.00    +0.000 C 
BRANCH  10  11
ATOM     11  C   UNL     1       9.766  16.115  18.507  0.00  0.00    +0.000 C 
ATOM     12  C   UNL     1       9.298  17.031  19.621  0.00  0.00    +0.000 C 
ATOM     13  C   UNL     1       7.900  17.430  19.208  0.00  0.00    +0.000 C 
ATOM     14  C   UNL     1       7.465  16.375  18.215  0.00  0.00    +0.000 C 
ATOM     15  O   UNL     1       8.608  15.607  17.839  0.00  0.00    +0.000 OA
ENDBRANCH  10  11
ENDBRANCH   9  10
ENDBRANCH   1   6
BRANCH   1  16
ATOM     16  C   UNL     1       8.271   9.461  17.960  0.00  0.00    +0.000 C 
BRANCH  16  17
ATOM     17  S   UNL     1       8.276   7.696  18.328  0.00  0.00    +0.000 S 
BRANCH  17  18
ATOM     18  C   UNL     1       6.863   7.059  17.567  0.00  0.00    +0.000 A 
ATOM     19  N   UNL     1       6.275   7.403  16.453  0.00  0.00    +0.000 NA
ATOM     20  N   UNL     1       5.137   6.632  16.327  0.00  0.00    +0.000 NA
ATOM     21  C   UNL     1       5.038   5.855  17.394  0.00  0.00    +0.000 A 
ATOM     22  N   UNL     1       6.168   6.038  18.155  0.00  0.00    +0.000 N 
ATOM     23  C   UNL     1       6.586   5.321  19.335  0.00  0.00    +0.000 C 
BRANCH  21  24
ATOM     24  C   UNL     1       3.911   4.956  17.714  0.00  0.00    +0.000 A 
ATOM     25  C   UNL     1       2.837   5.403  18.498  0.00  0.00    +0.000 A 
ATOM     26  C   UNL     1       1.770   4.547  18.811  0.00  0.00    +0.000 A 
ATOM     27  C   UNL     1       1.768   3.236  18.337  0.00  0.00    +0.000 A 
ATOM     28 CL   UNL     1       0.468   2.178  18.722  0.00  0.00    +0.000 Cl
ATOM     29  C   UNL     1       2.824   2.772  17.562  0.00  0.00    +0.000 A 
ATOM     30  C   UNL     1       3.895   3.621  17.270  0.00  0.00    +0.000 A 
ENDBRANCH  21  24
ENDBRANCH  17  18
ENDBRANCH  16  17
ENDBRANCH   1  16
TORSDOF 7
ENDMDL
MODEL 3
REMARK VINA RESULT:      -7.6      5.134     10.788
REMARK  Name = 
REMARK  10 active torsions:
REMARK  status: ('A' for Active; 'I' for Inactive)
REMARK    1  A    between atoms: C_1  and  C_2
REMARK    2  A    between atoms: C_4  and  C_5
REMARK    3  A    between atoms: C_5  and  C_7
REMARK    4  A    between atoms: C_7  and  S_8
REMARK    5  A    between atoms: S_8  and  C_9
REMARK    6  A    between atoms: C_12  and  C_13
REMARK    7  A    between atoms: N_20  and  C_21
REMARK    8  A    between atoms: C_22  and  C_23
REMARK    9  A    between atoms: N_24  and  C_25
REMARK   10  A    between atoms: C_25  and  C_26
REMARK                            x       y       z     vdW  Elec       q    Type
REMARK                         _______ _______ _______ _____ _____    ______ ____
ROOT
ATOM      1  C   UNL     1       2.238   8.009  18.492  0.00  0.00    +0.000 C 
ATOM      2  O   UNL     1       2.182   8.695  17.470  0.00  0.00    +0.000 OA
ENDROOT
BRANCH   1   6
ATOM      3  C   UNL     1       3.159   3.147  19.565  0.00  0.00    +0.000 C 
ATOM      4  C   UNL     1       3.264   4.493  18.943  0.00  0.00    +0.000 A 
ATOM      5  C   UNL     1       2.322   5.494  19.017  0.00  0.00    +0.000 A 
ATOM      6  C   UNL     1       2.872   6.680  18.477  0.00  0.00    +0.000 A 
ATOM      7  C   UNL     1       4.137   6.340  17.989  0.00  0.00    +0.000 A 
ATOM      8  C   UNL     1       5.184   7.207  17.358  0.00  0.00    +0.000 C 
ATOM      9  N   UNL     1       4.347   4.979  18.234  0.00  0.00    +0.000 N 
BRANCH   9  10
ATOM     10  C   UNL     1       5.608   4.272  17.998  0.00  0.00    +0.000 C 
BRANCH  10  11
ATOM     11  C   UNL     1       5.984   3.871  16.560  0.00  0.00    +0.000 C 
ATOM     12  C   UNL     1       7.208   4.535  15.957  0.00  0.00    +0.000 C 
ATOM     13  C   UNL     1       6.901   4.604  14.479  0.00  0.00    +0.000 C 
ATOM     14  C   UNL     1       5.398   4.470  14.381  0.00  0.00    +0.000 C 
ATOM     15  O   UNL     1       4.896   4.047  15.649  0.00  0.00    +0.000 OA
ENDBRANCH  10  11
ENDBRANCH   9  10
ENDBRANCH   1   6
BRANCH   1  16
ATOM     16  C   UNL     1       1.671   8.495  19.840  0.00  0.00    +0.000 C 
BRANCH  16  17
ATOM     17  S   UNL     1       0.409   9.752  19.560  0.00  0.00    +0.000 S 
BRANCH  17  18
ATOM     18  C   UNL     1      -0.014  10.342  21.126  0.00  0.00    +0.000 A 
ATOM     19  N   UNL     1       0.138   9.798  22.304  0.00  0.00    +0.000 NA
ATOM     20  N   UNL     1      -0.433  10.645  23.232  0.00  0.00    +0.000 NA
ATOM     21  C   UNL     1      -0.956  11.677  22.590  0.00  0.00    +0.000 A 
ATOM     22  N   UNL     1      -0.626  11.557  21.260  0.00  0.00    +0.000 N 
ATOM     23  C   UNL     1      -0.849  12.498  20.189  0.00  0.00    +0.000 C 
BRANCH  21  24
ATOM     24  C   UNL     1      -1.758  12.760  23.192  0.00  0.00    +0.000 A 
ATOM     25  C   UNL     1      -3.138  12.604  23.395  0.00  0.00    +0.000 A 
ATOM     26  C   UNL     1      -3.903  13.636  23.958  0.00  0.00    +0.000 A 
ATOM     27  C   UNL     1      -3.292  14.833  24.328  0.00  0.00    +0.000 A 
ATOM     28 CL   UNL     1      -4.225  16.107  25.012  0.00  0.00    +0.000 Cl
ATOM     29  C   UNL     1      -1.928  15.010  24.132  0.00  0.00    +0.000 A 
ATOM     30  C   UNL     1      -1.173  13.988  23.551  0.00  0.00    +0.000 A 
ENDBRANCH  21  24
ENDBRANCH  17  18
ENDBRANCH  16  17
ENDBRANCH   1  16
TORSDOF 7
ENDMDL
MODEL 4
REMARK VINA RESULT:      -7.4      5.123     10.577
REMARK  Name = 
REMARK  10 active torsions:
REMARK  status: ('A' for Active; 'I' for Inactive)
REMARK    1  A    between atoms: C_1  and  C_2
REMARK    2  A    between atoms: C_4  and  C_5
REMARK    3  A    between atoms: C_5  and  C_7
REMARK    4  A    between atoms: C_7  and  S_8
REMARK    5  A    between atoms: S_8  and  C_9
REMARK    6  A    between atoms: C_12  and  C_13
REMARK    7  A    between atoms: N_20  and  C_21
REMARK    8  A    between atoms: C_22  and  C_23
REMARK    9  A    between atoms: N_24  and  C_25
REMARK   10  A    between atoms: C_25  and  C_26
REMARK                            x       y       z     vdW  Elec       q    Type
REMARK                         _______ _______ _______ _____ _____    ______ ____
ROOT
ATOM      1  C   UNL     1       3.242   4.446  19.368  0.00  0.00    +0.000 C 
ATOM      2  O   UNL     1       3.012   3.506  20.130  0.00  0.00    +0.000 OA
ENDROOT
BRANCH   1   6
ATOM      3  C   UNL     1       7.768   6.522  18.450  0.00  0.00    +0.000 C 
ATOM      4  C   UNL     1       6.625   5.572  18.417  0.00  0.00    +0.000 A 
ATOM      5  C   UNL     1       5.556   5.563  19.283  0.00  0.00    +0.000 A 
ATOM      6  C   UNL     1       4.588   4.650  18.804  0.00  0.00    +0.000 A 
ATOM      7  C   UNL     1       5.145   4.041  17.677  0.00  0.00    +0.000 A 
ATOM      8  C   UNL     1       4.551   3.031  16.743  0.00  0.00    +0.000 C 
ATOM      9  N   UNL     1       6.421   4.578  17.478  0.00  0.00    +0.000 N 
BRANCH   9  10
ATOM     10  C   UNL     1       7.274   4.301  16.320  0.00  0.00    +0.000 C 
BRANCH  10  11
ATOM     11  C   UNL     1       6.841   4.809  14.932  0.00  0.00    +0.000 C 
ATOM     12  C   UNL     1       6.296   3.780  13.960  0.00  0.00    +0.000 C 
ATOM     13  C   UNL     1       6.692   4.309  12.601  0.00  0.00    +0.000 C 
ATOM     14  C   UNL     1       7.826   5.273  12.867  0.00  0.00    +0.000 C 
ATOM     15  O   UNL     1       7.886   5.528  14.271  0.00  0.00    +0.000 OA
ENDBRANCH  10  11
ENDBRANCH   9  10
ENDBRANCH   1   6
BRANCH   1  16
ATOM     16  C   UNL     1       2.150   5.448  18.946  0.00  0.00    +0.000 C 
BRANCH  16  17
ATOM     17  S   UNL     1       2.101   6.830  20.103  0.00  0.00    +0.000 S 
BRANCH  17  18
ATOM     18  C   UNL     1       1.907   8.243  19.131  0.00  0.00    +0.000 A 
ATOM     19  N   UNL     1       2.313   8.496  17.916  0.00  0.00    +0.000 NA
ATOM     20  N   UNL     1       1.966   9.799  17.622  0.00  0.00    +0.000 NA
ATOM     21  C   UNL     1       1.384  10.326  18.687  0.00  0.00    +0.000 A 
ATOM     22  N   UNL     1       1.251   9.334  19.630  0.00  0.00    +0.000 N 
ATOM     23  C   UNL     1       0.560   9.382  20.895  0.00  0.00    +0.000 C 
BRANCH  21  24
ATOM     24  C   UNL     1       0.960  11.733  18.839  0.00  0.00    +0.000 A 
ATOM     25  C   UNL     1      -0.243  12.184  18.275  0.00  0.00    +0.000 A 
ATOM     26  C   UNL     1      -0.643  13.522  18.411  0.00  0.00    +0.000 A 
ATOM     27  C   UNL     1       0.157  14.419  19.117  0.00  0.00    +0.000 A 
ATOM     28 CL   UNL     1      -0.322  16.063  19.281  0.00  0.00    +0.000 Cl
ATOM     29  C   UNL     1       1.354  13.994  19.680  0.00  0.00    +0.000 A 
ATOM     30  C   UNL     1       1.760  12.665  19.524  0.00  0.00    +0.000 A 
ENDBRANCH  21  24
ENDBRANCH  17  18
ENDBRANCH  16  17
ENDBRANCH   1  16
TORSDOF 7
ENDMDL
MODEL 5
REMARK VINA RESULT:      -7.3      5.071     10.203
REMARK  Name = 
REMARK  10 active torsions:
REMARK  status: ('A' for Active; 'I' for Inactive)
REMARK    1  A    between atoms: C_1  and  C_2
REMARK    2  A    between atoms: C_4  and  C_5
REMARK    3  A    between atoms: C_5  and  C_7
REMARK    4  A    between atoms: C_7  and  S_8
REMARK    5  A    between atoms: S_8  and  C_9
REMARK    6  A    between atoms: C_12  and  C_13
REMARK    7  A    between atoms: N_20  and  C_21
REMARK    8  A    between atoms: C_22  and  C_23
REMARK    9  A    between atoms: N_24  and  C_25
REMARK   10  A    between atoms: C_25  and  C_26
REMARK                            x       y       z     vdW  Elec       q    Type
REMARK                         _______ _______ _______ _____ _____    ______ ____
ROOT
ATOM      1  C   UNL     1       2.532   8.228  18.014  0.00  0.00    +0.000 C 
ATOM      2  O   UNL     1       2.413   9.009  17.069  0.00  0.00    +0.000 OA
ENDROOT
BRANCH   1   6
ATOM      3  C   UNL     1       6.512   5.234  17.098  0.00  0.00    +0.000 C 
ATOM      4  C   UNL     1       5.154   5.681  17.504  0.00  0.00    +0.000 A 
ATOM      5  C   UNL     1       4.762   6.982  17.725  0.00  0.00    +0.000 A 
ATOM      6  C   UNL     1       3.358   7.014  17.893  0.00  0.00    +0.000 A 
ATOM      7  C   UNL     1       2.928   5.685  17.863  0.00  0.00    +0.000 A 
ATOM      8  C   UNL     1       1.540   5.126  17.944  0.00  0.00    +0.000 C 
ATOM      9  N   UNL     1       4.048   4.869  17.676  0.00  0.00    +0.000 N 
BRANCH   9  10
ATOM     10  C   UNL     1       4.001   3.422  17.451  0.00  0.00    +0.000 C 
BRANCH  10  11
ATOM     11  C   UNL     1       3.583   2.497  18.609  0.00  0.00    +0.000 C 
ATOM     12  C   UNL     1       2.124   2.085  18.671  0.00  0.00    +0.000 C 
ATOM     13  C   UNL     1       1.850   1.913  20.146  0.00  0.00    +0.000 C 
ATOM     14  C   UNL     1       2.940   2.695  20.845  0.00  0.00    +0.000 C 
ATOM     15  O   UNL     1       3.941   3.035  19.885  0.00  0.00    +0.000 OA
ENDBRANCH  10  11
ENDBRANCH   9  10
ENDBRANCH   1   6
BRANCH   1  16
ATOM     16  C   UNL     1       1.849   8.472  19.373  0.00  0.00    +0.000 C 
BRANCH  16  17
ATOM     17  S   UNL     1       0.523   9.680  19.188  0.00  0.00    +0.000 S 
BRANCH  17  18
ATOM     18  C   UNL     1       0.190  10.253  20.782  0.00  0.00    +0.000 A 
ATOM     19  N   UNL     1       0.456   9.720  21.945  0.00  0.00    +0.000 NA
ATOM     20  N   UNL     1      -0.084  10.541  22.914  0.00  0.00    +0.000 NA
ATOM     21  C   UNL     1      -0.703  11.544  22.313  0.00  0.00    +0.000 A 
ATOM     22  N   UNL     1      -0.468  11.438  20.963  0.00  0.00    +0.000 N 
ATOM     23  C   UNL     1      -0.815  12.363  19.912  0.00  0.00    +0.000 C 
BRANCH  21  24
ATOM     24  C   UNL     1      -1.509  12.589  22.975  0.00  0.00    +0.000 A 
ATOM     25  C   UNL     1      -0.941  13.828  23.311  0.00  0.00    +0.000 A 
ATOM     26  C   UNL     1      -1.704  14.819  23.949  0.00  0.00    +0.000 A 
ATOM     27  C   UNL     1      -3.042  14.579  24.252  0.00  0.00    +0.000 A 
ATOM     28 CL   UNL     1      -3.982  15.786  25.040  0.00  0.00    +0.000 Cl
ATOM     29  C   UNL     1      -3.623  13.358  23.931  0.00  0.00    +0.000 A 
ATOM     30  C   UNL     1      -2.855  12.366  23.316  0.00  0.00    +0.000 A 
ENDBRANCH  21  24
ENDBRANCH  17  18
ENDBRANCH  16  17
ENDBRANCH   1  16
TORSDOF 7
ENDMDL
MODEL 6
REMARK VINA RESULT:      -7.3      1.890      2.639
REMARK  Name = 
REMARK  10 active torsions:
REMARK  status: ('A' for Active; 'I' for Inactive)
REMARK    1  A    between atoms: C_1  and  C_2
REMARK    2  A    between atoms: C_4  and  C_5
REMARK    3  A    between atoms: C_5  and  C_7
REMARK    4  A    between atoms: C_7  and  S_8
REMARK    5  A    between atoms: S_8  and  C_9
REMARK    6  A    between atoms: C_12  and  C_13
REMARK    7  A    between atoms: N_20  and  C_21
REMARK    8  A    between atoms: C_22  and  C_23
REMARK    9  A    between atoms: N_24  and  C_25
REMARK   10  A    between atoms: C_25  and  C_26
REMARK                            x       y       z     vdW  Elec       q    Type
REMARK                         _______ _______ _______ _____ _____    ______ ____
ROOT
ATOM      1  C   UNL     1      -0.618  13.117  19.097  0.00  0.00    +0.000 C 
ATOM      2  O   UNL     1      -0.778  14.321  19.302  0.00  0.00    +0.000 OA
ENDROOT
BRANCH   1   6
ATOM      3  C   UNL     1      -3.504  10.392  15.952  0.00  0.00    +0.000 C 
ATOM      4  C   UNL     1      -3.001  11.040  17.192  0.00  0.00    +0.000 A 
ATOM      5  C   UNL     1      -1.750  11.586  17.369  0.00  0.00    +0.000 A 
ATOM      6  C   UNL     1      -1.726  12.281  18.601  0.00  0.00    +0.000 A 
ATOM      7  C   UNL     1      -2.966  12.058  19.204  0.00  0.00    +0.000 A 
ATOM      8  C   UNL     1      -3.513  12.588  20.494  0.00  0.00    +0.000 C 
ATOM      9  N   UNL     1      -3.725  11.249  18.352  0.00  0.00    +0.000 N 
BRANCH   9  10
ATOM     10  C   UNL     1      -5.133  10.904  18.560  0.00  0.00    +0.000 C 
BRANCH  10  11
ATOM     11  C   UNL     1      -6.219  11.925  18.173  0.00  0.00    +0.000 C 
ATOM     12  C   UNL     1      -6.000  12.713  16.895  0.00  0.00    +0.000 C 
ATOM     13  C   UNL     1      -6.674  14.039  17.159  0.00  0.00    +0.000 C 
ATOM     14  C   UNL     1      -6.778  14.137  18.665  0.00  0.00    +0.000 C 
ATOM     15  O   UNL     1      -6.483  12.857  19.224  0.00  0.00    +0.000 OA
ENDBRANCH  10  11
ENDBRANCH   9  10
ENDBRANCH   1   6
BRANCH   1  16
ATOM     16  C   UNL     1       0.734  12.416  19.327  0.00  0.00    +0.000 C 
BRANCH  16  17
ATOM     17  S   UNL     1       0.465  10.763  19.997  0.00  0.00    +0.000 S 
BRANCH  17  18
ATOM     18  C   UNL     1       1.339   9.694  18.960  0.00  0.00    +0.000 A 
ATOM     19  N   UNL     1       1.780   9.869  17.743  0.00  0.00    +0.000 NA
ATOM     20  N   UNL     1       2.353   8.683  17.332  0.00  0.00    +0.000 NA
ATOM     21  C   UNL     1       2.215   7.794  18.302  0.00  0.00    +0.000 A 
ATOM     22  N   UNL     1       1.656   8.433  19.384  0.00  0.00    +0.000 N 
ATOM     23  C   UNL     1       1.437   7.925  20.716  0.00  0.00    +0.000 C 
BRANCH  21  24
ATOM     24  C   UNL     1       2.588   6.367  18.234  0.00  0.00    +0.000 A 
ATOM     25  C   UNL     1       3.924   5.967  18.389  0.00  0.00    +0.000 A 
ATOM     26  C   UNL     1       4.281   4.611  18.315  0.00  0.00    +0.000 A 
ATOM     27  C   UNL     1       3.303   3.645  18.089  0.00  0.00    +0.000 A 
ATOM     28 CL   UNL     1       3.733   1.983  17.989  0.00  0.00    +0.000 Cl
ATOM     29  C   UNL     1       1.974   4.021  17.929  0.00  0.00    +0.000 A 
ATOM     30  C   UNL     1       1.625   5.373  17.982  0.00  0.00    +0.000 A 
ENDBRANCH  21  24
ENDBRANCH  17  18
ENDBRANCH  16  17
ENDBRANCH   1  16
TORSDOF 7
ENDMDL
MODEL 7
REMARK VINA RESULT:      -7.2      4.787     10.225
REMARK  Name = 
REMARK  10 active torsions:
REMARK  status: ('A' for Active; 'I' for Inactive)
REMARK    1  A    between atoms: C_1  and  C_2
REMARK    2  A    between atoms: C_4  and  C_5
REMARK    3  A    between atoms: C_5  and  C_7
REMARK    4  A    between atoms: C_7  and  S_8
REMARK    5  A    between atoms: S_8  and  C_9
REMARK    6  A    between atoms: C_12  and  C_13
REMARK    7  A    between atoms: N_20  and  C_21
REMARK    8  A    between atoms: C_22  and  C_23
REMARK    9  A    between atoms: N_24  and  C_25
REMARK   10  A    between atoms: C_25  and  C_26
REMARK                            x       y       z     vdW  Elec       q    Type
REMARK                         _______ _______ _______ _____ _____    ______ ____
ROOT
ATOM      1  C   UNL     1       1.911   9.238  18.200  0.00  0.00    +0.000 C 
ATOM      2  O   UNL     1       2.575   9.885  17.388  0.00  0.00    +0.000 OA
ENDROOT
BRANCH   1   6
ATOM      3  C   UNL     1       2.370   5.034  20.985  0.00  0.00    +0.000 C 
ATOM      4  C   UNL     1       2.519   6.002  19.867  0.00  0.00    +0.000 A 
ATOM      5  C   UNL     1       1.762   7.135  19.671  0.00  0.00    +0.000 A 
ATOM      6  C   UNL     1       2.338   7.894  18.626  0.00  0.00    +0.000 A 
ATOM      7  C   UNL     1       3.408   7.140  18.135  0.00  0.00    +0.000 A 
ATOM      8  C   UNL     1       4.400   7.472  17.063  0.00  0.00    +0.000 C 
ATOM      9  N   UNL     1       3.478   5.954  18.871  0.00  0.00    +0.000 N 
BRANCH   9  10
ATOM     10  C   UNL     1       4.548   4.959  18.756  0.00  0.00    +0.000 C 
BRANCH  10  11
ATOM     11  C   UNL     1       4.228   3.583  18.144  0.00  0.00    +0.000 C 
ATOM     12  C   UNL     1       2.982   3.483  17.285  0.00  0.00    +0.000 C 
ATOM     13  C   UNL     1       2.507   2.063  17.487  0.00  0.00    +0.000 C 
ATOM     14  C   UNL     1       3.154   1.609  18.776  0.00  0.00    +0.000 C 
ATOM     15  O   UNL     1       4.162   2.554  19.136  0.00  0.00    +0.000 OA
ENDBRANCH  10  11
ENDBRANCH   9  10
ENDBRANCH   1   6
BRANCH   1  16
ATOM     16  C   UNL     1       0.616   9.789  18.828  0.00  0.00    +0.000 C 
BRANCH  16  17
ATOM     17  S   UNL     1       0.881  11.477  19.403  0.00  0.00    +0.000 S 
BRANCH  17  18
ATOM     18  C   UNL     1       0.023  11.599  20.897  0.00  0.00    +0.000 A 
ATOM     19  N   UNL     1       0.343  11.182  22.092  0.00  0.00    +0.000 NA
ATOM     20  N   UNL     1      -0.718  11.461  22.930  0.00  0.00    +0.000 NA
ATOM     21  C   UNL     1      -1.682  12.013  22.212  0.00  0.00    +0.000 A 
ATOM     22  N   UNL     1      -1.206  12.197  20.936  0.00  0.00    +0.000 N 
ATOM     23  C   UNL     1      -1.832  12.882  19.831  0.00  0.00    +0.000 C 
BRANCH  21  24
ATOM     24  C   UNL     1      -3.033  12.363  22.695  0.00  0.00    +0.000 A 
ATOM     25  C   UNL     1      -3.333  12.342  24.065  0.00  0.00    +0.000 A 
ATOM     26  C   UNL     1      -4.619  12.665  24.525  0.00  0.00    +0.000 A 
ATOM     27  C   UNL     1      -5.615  13.017  23.615  0.00  0.00    +0.000 A 
ATOM     28 CL   UNL     1      -7.196  13.408  24.169  0.00  0.00    +0.000 Cl
ATOM     29  C   UNL     1      -5.340  13.041  22.253  0.00  0.00    +0.000 A 
ATOM     30  C   UNL     1      -4.064  12.697  21.798  0.00  0.00    +0.000 A 
ENDBRANCH  21  24
ENDBRANCH  17  18
ENDBRANCH  16  17
ENDBRANCH   1  16
TORSDOF 7
ENDMDL
MODEL 8
REMARK VINA RESULT:      -7.2      5.359     10.963
REMARK  Name = 
REMARK  10 active torsions:
REMARK  status: ('A' for Active; 'I' for Inactive)
REMARK    1  A    between atoms: C_1  and  C_2
REMARK    2  A    between atoms: C_4  and  C_5
REMARK    3  A    between atoms: C_5  and  C_7
REMARK    4  A    between atoms: C_7  and  S_8
REMARK    5  A    between atoms: S_8  and  C_9
REMARK    6  A    between atoms: C_12  and  C_13
REMARK    7  A    between atoms: N_20  and  C_21
REMARK    8  A    between atoms: C_22  and  C_23
REMARK    9  A    between atoms: N_24  and  C_25
REMARK   10  A    between atoms: C_25  and  C_26
REMARK                            x       y       z     vdW  Elec       q    Type
REMARK                         _______ _______ _______ _____ _____    ______ ____
ROOT
ATOM      1  C   UNL     1       2.563   5.856  19.464  0.00  0.00    +0.000 C 
ATOM      2  O   UNL     1       1.823   4.991  19.935  0.00  0.00    +0.000 OA
ENDROOT
BRANCH   1   6
ATOM      3  C   UNL     1       7.475   6.027  18.244  0.00  0.00    +0.000 C 
ATOM      4  C   UNL     1       6.065   5.564  18.337  0.00  0.00    +0.000 A 
ATOM      5  C   UNL     1       5.116   6.033  19.216  0.00  0.00    +0.000 A 
ATOM      6  C   UNL     1       3.857   5.496  18.859  0.00  0.00    +0.000 A 
ATOM      7  C   UNL     1       4.092   4.615  17.800  0.00  0.00    +0.000 A 
ATOM      8  C   UNL     1       3.121   3.805  16.996  0.00  0.00    +0.000 C 
ATOM      9  N   UNL     1       5.462   4.625  17.521  0.00  0.00    +0.000 N 
BRANCH   9  10
ATOM     10  C   UNL     1       6.090   3.940  16.388  0.00  0.00    +0.000 C 
BRANCH  10  11
ATOM     11  C   UNL     1       6.174   4.662  15.031  0.00  0.00    +0.000 C 
ATOM     12  C   UNL     1       5.798   3.860  13.799  0.00  0.00    +0.000 C 
ATOM     13  C   UNL     1       6.658   4.442  12.702  0.00  0.00    +0.000 C 
ATOM     14  C   UNL     1       7.791   5.143  13.417  0.00  0.00    +0.000 C 
ATOM     15  O   UNL     1       7.464   5.235  14.804  0.00  0.00    +0.000 OA
ENDBRANCH  10  11
ENDBRANCH   9  10
ENDBRANCH   1   6
BRANCH   1  16
ATOM     16  C   UNL     1       2.185   7.349  19.462  0.00  0.00    +0.000 C 
BRANCH  16  17
ATOM     17  S   UNL     1       1.633   7.848  21.104  0.00  0.00    +0.000 S 
BRANCH  17  18
ATOM     18  C   UNL     1       0.675   9.263  20.863  0.00  0.00    +0.000 A 
ATOM     19  N   UNL     1       0.397   9.919  19.768  0.00  0.00    +0.000 NA
ATOM     20  N   UNL     1      -0.351  11.024  20.122  0.00  0.00    +0.000 NA
ATOM     21  C   UNL     1      -0.481  11.036  21.438  0.00  0.00    +0.000 A 
ATOM     22  N   UNL     1       0.082   9.882  21.929  0.00  0.00    +0.000 N 
ATOM     23  C   UNL     1       0.068   9.376  23.280  0.00  0.00    +0.000 C 
BRANCH  21  24
ATOM     24  C   UNL     1      -1.113  12.103  22.240  0.00  0.00    +0.000 A 
ATOM     25  C   UNL     1      -2.387  11.920  22.800  0.00  0.00    +0.000 A 
ATOM     26  C   UNL     1      -2.993  12.937  23.554  0.00  0.00    +0.000 A 
ATOM     27  C   UNL     1      -2.326  14.144  23.758  0.00  0.00    +0.000 A 
ATOM     28 CL   UNL     1      -3.065  15.398  24.675  0.00  0.00    +0.000 Cl
ATOM     29  C   UNL     1      -1.066  14.346  23.209  0.00  0.00    +0.000 A 
ATOM     30  C   UNL     1      -0.475  13.340  22.440  0.00  0.00    +0.000 A 
ENDBRANCH  21  24
ENDBRANCH  17  18
ENDBRANCH  16  17
ENDBRANCH   1  16
TORSDOF 7
ENDMDL
MODEL 9
REMARK VINA RESULT:      -7.2      2.407      3.232
REMARK  Name = 
REMARK  10 active torsions:
REMARK  status: ('A' for Active; 'I' for Inactive)
REMARK    1  A    between atoms: C_1  and  C_2
REMARK    2  A    between atoms: C_4  and  C_5
REMARK    3  A    between atoms: C_5  and  C_7
REMARK    4  A    between atoms: C_7  and  S_8
REMARK    5  A    between atoms: S_8  and  C_9
REMARK    6  A    between atoms: C_12  and  C_13
REMARK    7  A    between atoms: N_20  and  C_21
REMARK    8  A    between atoms: C_22  and  C_23
REMARK    9  A    between atoms: N_24  and  C_25
REMARK   10  A    between atoms: C_25  and  C_26
REMARK                            x       y       z     vdW  Elec       q    Type
REMARK                         _______ _______ _______ _____ _____    ______ ____
ROOT
ATOM      1  C   UNL     1      -1.527  11.828  18.879  0.00  0.00    +0.000 C 
ATOM      2  O   UNL     1      -0.857  12.712  18.341  0.00  0.00    +0.000 OA
ENDROOT
BRANCH   1   6
ATOM      3  C   UNL     1      -6.485  11.721  17.856  0.00  0.00    +0.000 C 
ATOM      4  C   UNL     1      -5.205  11.905  18.590  0.00  0.00    +0.000 A 
ATOM      5  C   UNL     1      -3.974  11.429  18.200  0.00  0.00    +0.000 A 
ATOM      6  C   UNL     1      -2.983  11.979  19.045  0.00  0.00    +0.000 A 
ATOM      7  C   UNL     1      -3.661  12.724  20.014  0.00  0.00    +0.000 A 
ATOM      8  C   UNL     1      -3.118  13.560  21.132  0.00  0.00    +0.000 C 
ATOM      9  N   UNL     1      -5.032  12.628  19.755  0.00  0.00    +0.000 N 
BRANCH   9  10
ATOM     10  C   UNL     1      -6.072  13.380  20.462  0.00  0.00    +0.000 C 
BRANCH  10  11
ATOM     11  C   UNL     1      -6.169  13.264  21.994  0.00  0.00    +0.000 C 
ATOM     12  C   UNL     1      -7.288  12.404  22.551  0.00  0.00    +0.000 C 
ATOM     13  C   UNL     1      -7.630  13.052  23.872  0.00  0.00    +0.000 C 
ATOM     14  C   UNL     1      -7.093  14.462  23.772  0.00  0.00    +0.000 C 
ATOM     15  O   UNL     1      -6.241  14.544  22.629  0.00  0.00    +0.000 OA
ENDBRANCH  10  11
ENDBRANCH   9  10
ENDBRANCH   1   6
BRANCH   1  16
ATOM     16  C   UNL     1      -0.899  10.519  19.392  0.00  0.00    +0.000 C 
BRANCH  16  17
ATOM     17  S   UNL     1       0.863  10.757  19.696  0.00  0.00    +0.000 S 
BRANCH  17  18
ATOM     18  C   UNL     1       1.665   9.570  18.733  0.00  0.00    +0.000 A 
ATOM     19  N   UNL     1       2.132   9.643  17.515  0.00  0.00    +0.000 NA
ATOM     20  N   UNL     1       2.617   8.396  17.178  0.00  0.00    +0.000 NA
ATOM     21  C   UNL     1       2.400   7.575  18.193  0.00  0.00    +0.000 A 
ATOM     22  N   UNL     1       1.880   8.314  19.229  0.00  0.00    +0.000 N 
ATOM     23  C   UNL     1       1.607   7.898  20.584  0.00  0.00    +0.000 C 
BRANCH  21  24
ATOM     24  C   UNL     1       2.664   6.122  18.208  0.00  0.00    +0.000 A 
ATOM     25  C   UNL     1       1.642   5.205  17.921  0.00  0.00    +0.000 A 
ATOM     26  C   UNL     1       1.889   3.824  17.944  0.00  0.00    +0.000 A 
ATOM     27  C   UNL     1       3.162   3.350  18.251  0.00  0.00    +0.000 A 
ATOM     28 CL   UNL     1       3.472   1.657  18.290  0.00  0.00    +0.000 Cl
ATOM     29  C   UNL     1       4.188   4.241  18.543  0.00  0.00    +0.000 A 
ATOM     30  C   UNL     1       3.933   5.615  18.540  0.00  0.00    +0.000 A 
ENDBRANCH  21  24
ENDBRANCH  17  18
ENDBRANCH  16  17
ENDBRANCH   1  16
TORSDOF 7
ENDMDL
