MODEL 1
REMARK VINA RESULT:      -7.0      0.000      0.000
REMARK  Name = 
REMARK  9 active torsions:
REMARK  status: ('A' for Active; 'I' for Inactive)
REMARK    1  A    between atoms: C_1  and  C_2
REMARK    2  A    between atoms: C_2  and  O_3
REMARK    3  A    between atoms: C_2  and  C_4
REMARK    4  A    between atoms: C_4  and  C_5
REMARK    5  A    between atoms: C_5  and  N_6
REMARK    6  A    between atoms: N_6  and  S_7
REMARK    7  A    between atoms: S_7  and  C_10
REMARK    8  A    between atoms: C_12  and  S_13
REMARK    9  A    between atoms: S_13  and  C_14
REMARK                            x       y       z     vdW  Elec       q    Type
REMARK                         _______ _______ _______ _____ _____    ______ ____
ROOT
ATOM      1  S   UNL     1       7.314   5.382  16.816  0.00  0.00    +0.000 S 
ATOM      2  O   UNL     1       8.127   4.314  17.361  0.00  0.00    +0.000 OA
ATOM      3  O   UNL     1       7.721   6.759  16.927  0.00  0.00    +0.000 OA
ENDROOT
BRANCH   1   4
ATOM      4  C   UNL     1       5.656   5.123  17.400  0.00  0.00    +0.000 A 
ATOM      5  C   UNL     1       5.447   3.984  18.210  0.00  0.00    +0.000 A 
ATOM      6  C   UNL     1       4.172   3.712  18.715  0.00  0.00    +0.000 A 
ATOM      7  C   UNL     1       3.101   4.551  18.413  0.00  0.00    +0.000 A 
ATOM      8  C   UNL     1       3.316   5.679  17.617  0.00  0.00    +0.000 A 
ATOM      9  C   UNL     1       4.589   5.973  17.102  0.00  0.00    +0.000 A 
ATOM     10 CL   UNL     1       4.685   7.401  16.145  0.00  0.00    +0.000 Cl
BRANCH   6  11
ATOM     11  S   UNL     1       3.889   2.274  19.728  0.00  0.00    +0.000 S 
ATOM     12  C   UNL     1       2.691   2.836  20.910  0.00  0.00    +0.000 C 
ATOM     13  O   UNL     1       3.265   1.273  18.888  0.00  0.00    +0.000 OA
ATOM     14  O   UNL     1       5.127   1.991  20.428  0.00  0.00    +0.000 OA
ENDBRANCH   6  11
ENDBRANCH   1   4
BRANCH   1  15
ATOM     15  N   UNL     1       7.187   5.093  15.134  0.00  0.00    +0.000 NA
ATOM     16  H   UNL     1       6.720   5.919  14.741  0.00  0.00    +0.000 HD
BRANCH  15  17
ATOM     17  C   UNL     1       6.456   3.851  14.797  0.00  0.00    +0.000 C 
BRANCH  17  18
ATOM     18  C   UNL     1       5.393   4.118  13.740  0.00  0.00    +0.000 C 
BRANCH  18  20
ATOM     19  C   UNL     1       4.533   3.294  11.507  0.00  0.00    +0.000 C 
ATOM     20  C   UNL     1       5.694   3.290  12.487  0.00  0.00    +0.000 C 
BRANCH  20  21
ATOM     21  O   UNL     1       6.856   3.799  11.835  0.00  0.00    +0.000 OA
ATOM     22  H   UNL     1       6.698   3.788  10.873  0.00  0.00    +0.000 HD
ENDBRANCH  20  21
ENDBRANCH  18  20
ENDBRANCH  17  18
ENDBRANCH  15  17
ENDBRANCH   1  15
TORSDOF 7
ENDMDL
MODEL 2
REMARK VINA RESULT:      -7.0      2.004      2.326
REMARK  Name = 
REMARK  9 active torsions:
REMARK  status: ('A' for Active; 'I' for Inactive)
REMARK    1  A    between atoms: C_1  and  C_2
REMARK    2  A    between atoms: C_2  and  O_3
REMARK    3  A    between atoms: C_2  and  C_4
REMARK    4  A    between atoms: C_4  and  C_5
REMARK    5  A    between atoms: C_5  and  N_6
REMARK    6  A    between atoms: N_6  and  S_7
REMARK    7  A    between atoms: S_7  and  C_10
REMARK    8  A    between atoms: C_12  and  S_13
REMARK    9  A    between atoms: S_13  and  C_14
REMARK                            x       y       z     vdW  Elec       q    Type
REMARK                         _______ _______ _______ _____ _____    ______ ____
ROOT
ATOM      1  S   UNL     1       5.949   5.726  15.486  0.00  0.00    +0.000 S 
ATOM      2  O   UNL     1       7.394   5.658  15.580  0.00  0.00    +0.000 OA
ATOM      3  O   UNL     1       5.291   6.894  14.958  0.00  0.00    +0.000 OA
ENDROOT
BRANCH   1   4
ATOM      4  C   UNL     1       5.303   5.250  17.070  0.00  0.00    +0.000 A 
ATOM      5  C   UNL     1       4.052   4.593  17.066  0.00  0.00    +0.000 A 
ATOM      6  C   UNL     1       3.477   4.180  18.272  0.00  0.00    +0.000 A 
ATOM      7  C   UNL     1       4.125   4.425  19.481  0.00  0.00    +0.000 A 
ATOM      8  C   UNL     1       5.364   5.070  19.477  0.00  0.00    +0.000 A 
ATOM      9  C   UNL     1       5.961   5.490  18.279  0.00  0.00    +0.000 A 
ATOM     10 CL   UNL     1       7.490   6.264  18.448  0.00  0.00    +0.000 Cl
BRANCH   6  11
ATOM     11  S   UNL     1       1.896   3.359  18.285  0.00  0.00    +0.000 S 
ATOM     12  C   UNL     1       1.291   3.662  19.925  0.00  0.00    +0.000 C 
ATOM     13  O   UNL     1       1.041   4.061  17.348  0.00  0.00    +0.000 OA
ATOM     14  O   UNL     1       2.146   1.938  18.143  0.00  0.00    +0.000 OA
ENDBRANCH   6  11
ENDBRANCH   1   4
BRANCH   1  15
ATOM     15  N   UNL     1       5.463   4.443  14.462  0.00  0.00    +0.000 NA
ATOM     16  H   UNL     1       4.994   3.761  15.070  0.00  0.00    +0.000 HD
BRANCH  15  17
ATOM     17  C   UNL     1       6.580   3.821  13.717  0.00  0.00    +0.000 C 
BRANCH  17  18
ATOM     18  C   UNL     1       6.263   3.746  12.230  0.00  0.00    +0.000 C 
BRANCH  18  20
ATOM     19  C   UNL     1       4.101   3.182  11.042  0.00  0.00    +0.000 C 
ATOM     20  C   UNL     1       5.183   2.687  11.987  0.00  0.00    +0.000 C 
BRANCH  20  21
ATOM     21  O   UNL     1       5.772   1.507  11.443  0.00  0.00    +0.000 OA
ATOM     22  H   UNL     1       6.722   1.673  11.304  0.00  0.00    +0.000 HD
ENDBRANCH  20  21
ENDBRANCH  18  20
ENDBRANCH  17  18
ENDBRANCH  15  17
ENDBRANCH   1  15
TORSDOF 7
ENDMDL
MODEL 3
REMARK VINA RESULT:      -6.7      2.018      2.476
REMARK  Name = 
REMARK  9 active torsions:
REMARK  status: ('A' for Active; 'I' for Inactive)
REMARK    1  A    between atoms: C_1  and  C_2
REMARK    2  A    between atoms: C_2  and  O_3
REMARK    3  A    between atoms: C_2  and  C_4
REMARK    4  A    between atoms: C_4  and  C_5
REMARK    5  A    between atoms: C_5  and  N_6
REMARK    6  A    between atoms: N_6  and  S_7
REMARK    7  A    between atoms: S_7  and  C_10
REMARK    8  A    between atoms: C_12  and  S_13
REMARK    9  A    between atoms: S_13  and  C_14
REMARK                            x       y       z     vdW  Elec       q    Type
REMARK                         _______ _______ _______ _____ _____    ______ ____
ROOT
ATOM      1  S   UNL     1       6.059   6.431  16.165  0.00  0.00    +0.000 S 
ATOM      2  O   UNL     1       6.887   7.433  16.805  0.00  0.00    +0.000 OA
ATOM      3  O   UNL     1       5.050   6.800  15.204  0.00  0.00    +0.000 OA
ENDROOT
BRANCH   1   4
ATOM      4  C   UNL     1       5.411   5.392  17.452  0.00  0.00    +0.000 A 
ATOM      5  C   UNL     1       4.091   4.921  17.274  0.00  0.00    +0.000 A 
ATOM      6  C   UNL     1       3.509   4.093  18.239  0.00  0.00    +0.000 A 
ATOM      7  C   UNL     1       4.221   3.739  19.384  0.00  0.00    +0.000 A 
ATOM      8  C   UNL     1       5.527   4.203  19.550  0.00  0.00    +0.000 A 
ATOM      9  C   UNL     1       6.132   5.033  18.593  0.00  0.00    +0.000 A 
ATOM     10 CL   UNL     1       7.748   5.511  18.947  0.00  0.00    +0.000 Cl
BRANCH   6  11
ATOM     11  S   UNL     1       1.842   3.500  18.034  0.00  0.00    +0.000 S 
ATOM     12  C   UNL     1       1.169   3.600  19.673  0.00  0.00    +0.000 C 
ATOM     13  O   UNL     1       1.146   4.457  17.198  0.00  0.00    +0.000 OA
ATOM     14  O   UNL     1       1.924   2.103  17.656  0.00  0.00    +0.000 OA
ENDBRANCH   6  11
ENDBRANCH   1   4
BRANCH   1  15
ATOM     15  N   UNL     1       7.118   5.389  15.315  0.00  0.00    +0.000 NA
ATOM     16  H   UNL     1       7.594   5.977  14.621  0.00  0.00    +0.000 HD
BRANCH  15  17
ATOM     17  C   UNL     1       6.437   4.242  14.673  0.00  0.00    +0.000 C 
BRANCH  17  18
ATOM     18  C   UNL     1       6.724   4.210  13.178  0.00  0.00    +0.000 C 
BRANCH  18  20
ATOM     19  C   UNL     1       4.748   3.390  11.827  0.00  0.00    +0.000 C 
ATOM     20  C   UNL     1       6.028   3.001  12.546  0.00  0.00    +0.000 C 
BRANCH  20  21
ATOM     21  O   UNL     1       6.907   2.362  11.622  0.00  0.00    +0.000 OA
ATOM     22  H   UNL     1       7.641   2.972  11.424  0.00  0.00    +0.000 HD
ENDBRANCH  20  21
ENDBRANCH  18  20
ENDBRANCH  17  18
ENDBRANCH  15  17
ENDBRANCH   1  15
TORSDOF 7
ENDMDL
MODEL 4
REMARK VINA RESULT:      -6.7      1.434      1.733
REMARK  Name = 
REMARK  9 active torsions:
REMARK  status: ('A' for Active; 'I' for Inactive)
REMARK    1  A    between atoms: C_1  and  C_2
REMARK    2  A    between atoms: C_2  and  O_3
REMARK    3  A    between atoms: C_2  and  C_4
REMARK    4  A    between atoms: C_4  and  C_5
REMARK    5  A    between atoms: C_5  and  N_6
REMARK    6  A    between atoms: N_6  and  S_7
REMARK    7  A    between atoms: S_7  and  C_10
REMARK    8  A    between atoms: C_12  and  S_13
REMARK    9  A    between atoms: S_13  and  C_14
REMARK                            x       y       z     vdW  Elec       q    Type
REMARK                         _______ _______ _______ _____ _____    ______ ____
ROOT
ATOM      1  S   UNL     1       5.619   6.428  16.539  0.00  0.00    +0.000 S 
ATOM      2  O   UNL     1       6.580   7.222  17.278  0.00  0.00    +0.000 OA
ATOM      3  O   UNL     1       5.062   6.898  15.297  0.00  0.00    +0.000 OA
ENDROOT
BRANCH   1   4
ATOM      4  C   UNL     1       4.363   5.928  17.692  0.00  0.00    +0.000 A 
ATOM      5  C   UNL     1       4.477   4.621  18.216  0.00  0.00    +0.000 A 
ATOM      6  C   UNL     1       3.531   4.154  19.134  0.00  0.00    +0.000 A 
ATOM      7  C   UNL     1       2.468   4.965  19.525  0.00  0.00    +0.000 A 
ATOM      8  C   UNL     1       2.365   6.258  19.007  0.00  0.00    +0.000 A 
ATOM      9  C   UNL     1       3.304   6.749  18.087  0.00  0.00    +0.000 A 
ATOM     10 CL   UNL     1       3.037   8.364  17.550  0.00  0.00    +0.000 Cl
BRANCH   6  11
ATOM     11  S   UNL     1       3.655   2.505  19.797  0.00  0.00    +0.000 S 
ATOM     12  C   UNL     1       2.639   2.572  21.251  0.00  0.00    +0.000 C 
ATOM     13  O   UNL     1       3.026   1.611  18.845  0.00  0.00    +0.000 OA
ATOM     14  O   UNL     1       5.031   2.306  20.207  0.00  0.00    +0.000 OA
ENDBRANCH   6  11
ENDBRANCH   1   4
BRANCH   1  15
ATOM     15  N   UNL     1       6.399   4.956  16.146  0.00  0.00    +0.000 NA
ATOM     16  H   UNL     1       7.230   4.908  16.747  0.00  0.00    +0.000 HD
BRANCH  15  17
ATOM     17  C   UNL     1       6.762   4.839  14.716  0.00  0.00    +0.000 C 
BRANCH  17  18
ATOM     18  C   UNL     1       5.941   3.751  14.036  0.00  0.00    +0.000 C 
BRANCH  18  20
ATOM     19  C   UNL     1       7.399   4.663  12.180  0.00  0.00    +0.000 C 
ATOM     20  C   UNL     1       6.256   3.728  12.537  0.00  0.00    +0.000 C 
BRANCH  20  21
ATOM     21  O   UNL     1       6.593   2.403  12.131  0.00  0.00    +0.000 OA
ATOM     22  H   UNL     1       7.067   2.454  11.280  0.00  0.00    +0.000 HD
ENDBRANCH  20  21
ENDBRANCH  18  20
ENDBRANCH  17  18
ENDBRANCH  15  17
ENDBRANCH   1  15
TORSDOF 7
ENDMDL
MODEL 5
REMARK VINA RESULT:      -6.7      1.645      2.043
REMARK  Name = 
REMARK  9 active torsions:
REMARK  status: ('A' for Active; 'I' for Inactive)
REMARK    1  A    between atoms: C_1  and  C_2
REMARK    2  A    between atoms: C_2  and  O_3
REMARK    3  A    between atoms: C_2  and  C_4
REMARK    4  A    between atoms: C_4  and  C_5
REMARK    5  A    between atoms: C_5  and  N_6
REMARK    6  A    between atoms: N_6  and  S_7
REMARK    7  A    between atoms: S_7  and  C_10
REMARK    8  A    between atoms: C_12  and  S_13
REMARK    9  A    between atoms: S_13  and  C_14
REMARK                            x       y       z     vdW  Elec       q    Type
REMARK                         _______ _______ _______ _____ _____    ______ ____
ROOT
ATOM      1  S   UNL     1       5.633   6.540  16.582  0.00  0.00    +0.000 S 
ATOM      2  O   UNL     1       6.502   7.454  17.296  0.00  0.00    +0.000 OA
ATOM      3  O   UNL     1       5.079   6.889  15.299  0.00  0.00    +0.000 OA
ENDROOT
BRANCH   1   4
ATOM      4  C   UNL     1       4.386   6.007  17.729  0.00  0.00    +0.000 A 
ATOM      5  C   UNL     1       4.536   4.707  18.261  0.00  0.00    +0.000 A 
ATOM      6  C   UNL     1       3.600   4.214  19.175  0.00  0.00    +0.000 A 
ATOM      7  C   UNL     1       2.510   4.995  19.556  0.00  0.00    +0.000 A 
ATOM      8  C   UNL     1       2.371   6.281  19.032  0.00  0.00    +0.000 A 
ATOM      9  C   UNL     1       3.300   6.797  18.115  0.00  0.00    +0.000 A 
ATOM     10 CL   UNL     1       2.986   8.400  17.570  0.00  0.00    +0.000 Cl
BRANCH   6  11
ATOM     11  S   UNL     1       3.770   2.573  19.846  0.00  0.00    +0.000 S 
ATOM     12  C   UNL     1       3.353   1.526  18.475  0.00  0.00    +0.000 C 
ATOM     13  O   UNL     1       5.172   2.379  20.156  0.00  0.00    +0.000 OA
ATOM     14  O   UNL     1       2.754   2.417  20.868  0.00  0.00    +0.000 OA
ENDBRANCH   6  11
ENDBRANCH   1   4
BRANCH   1  15
ATOM     15  N   UNL     1       6.541   5.117  16.300  0.00  0.00    +0.000 NA
ATOM     16  H   UNL     1       7.378   5.196  16.890  0.00  0.00    +0.000 HD
BRANCH  15  17
ATOM     17  C   UNL     1       6.901   4.913  14.879  0.00  0.00    +0.000 C 
BRANCH  17  18
ATOM     18  C   UNL     1       6.214   3.676  14.319  0.00  0.00    +0.000 C 
BRANCH  18  20
ATOM     19  C   UNL     1       7.354   4.531  12.228  0.00  0.00    +0.000 C 
ATOM     20  C   UNL     1       6.174   3.756  12.790  0.00  0.00    +0.000 C 
BRANCH  20  21
ATOM     21  O   UNL     1       6.170   2.443  12.233  0.00  0.00    +0.000 OA
ATOM     22  H   UNL     1       6.971   1.978  12.537  0.00  0.00    +0.000 HD
ENDBRANCH  20  21
ENDBRANCH  18  20
ENDBRANCH  17  18
ENDBRANCH  15  17
ENDBRANCH   1  15
TORSDOF 7
ENDMDL
MODEL 6
REMARK VINA RESULT:      -6.6      1.956      2.310
REMARK  Name = 
REMARK  9 active torsions:
REMARK  status: ('A' for Active; 'I' for Inactive)
REMARK    1  A    between atoms: C_1  and  C_2
REMARK    2  A    between atoms: C_2  and  O_3
REMARK    3  A    between atoms: C_2  and  C_4
REMARK    4  A    between atoms: C_4  and  C_5
REMARK    5  A    between atoms: C_5  and  N_6
REMARK    6  A    between atoms: N_6  and  S_7
REMARK    7  A    between atoms: S_7  and  C_10
REMARK    8  A    between atoms: C_12  and  S_13
REMARK    9  A    between atoms: S_13  and  C_14
REMARK                            x       y       z     vdW  Elec       q    Type
REMARK                         _______ _______ _______ _____ _____    ______ ____
ROOT
ATOM      1  S   UNL     1       6.244   5.137  15.068  0.00  0.00    +0.000 S 
ATOM      2  O   UNL     1       7.681   5.319  15.058  0.00  0.00    +0.000 OA
ATOM      3  O   UNL     1       5.367   6.093  14.442  0.00  0.00    +0.000 OA
ENDROOT
BRANCH   1   4
ATOM      4  C   UNL     1       5.775   4.796  16.747  0.00  0.00    +0.000 A 
ATOM      5  C   UNL     1       4.797   3.793  16.935  0.00  0.00    +0.000 A 
ATOM      6  C   UNL     1       4.378   3.461  18.227  0.00  0.00    +0.000 A 
ATOM      7  C   UNL     1       4.909   4.124  19.332  0.00  0.00    +0.000 A 
ATOM      8  C   UNL     1       5.880   5.109  19.139  0.00  0.00    +0.000 A 
ATOM      9  C   UNL     1       6.318   5.457  17.852  0.00  0.00    +0.000 A 
ATOM     10 CL   UNL     1       7.522   6.686  17.789  0.00  0.00    +0.000 Cl
BRANCH   6  11
ATOM     11  S   UNL     1       3.138   2.207  18.479  0.00  0.00    +0.000 S 
ATOM     12  C   UNL     1       2.281   2.766  19.929  0.00  0.00    +0.000 C 
ATOM     13  O   UNL     1       2.225   2.274  17.357  0.00  0.00    +0.000 OA
ATOM     14  O   UNL     1       3.831   0.975  18.802  0.00  0.00    +0.000 OA
ENDBRANCH   6  11
ENDBRANCH   1   4
BRANCH   1  15
ATOM     15  N   UNL     1       5.931   3.658  14.266  0.00  0.00    +0.000 NA
ATOM     16  H   UNL     1       6.453   2.941  14.783  0.00  0.00    +0.000 HD
BRANCH  15  17
ATOM     17  C   UNL     1       6.306   3.667  12.834  0.00  0.00    +0.000 C 
BRANCH  17  18
ATOM     18  C   UNL     1       5.305   2.871  12.007  0.00  0.00    +0.000 C 
BRANCH  18  20
ATOM     19  C   UNL     1       7.545   2.148  11.079  0.00  0.00    +0.000 C 
ATOM     20  C   UNL     1       6.051   1.875  11.114  0.00  0.00    +0.000 C 
BRANCH  20  21
ATOM     21  O   UNL     1       5.832   0.545  11.580  0.00  0.00    +0.000 OA
ATOM     22  H   UNL     1       6.122   0.492  12.509  0.00  0.00    +0.000 HD
ENDBRANCH  20  21
ENDBRANCH  18  20
ENDBRANCH  17  18
ENDBRANCH  15  17
ENDBRANCH   1  15
TORSDOF 7
ENDMDL
MODEL 7
REMARK VINA RESULT:      -6.6      1.446      1.617
REMARK  Name = 
REMARK  9 active torsions:
REMARK  status: ('A' for Active; 'I' for Inactive)
REMARK    1  A    between atoms: C_1  and  C_2
REMARK    2  A    between atoms: C_2  and  O_3
REMARK    3  A    between atoms: C_2  and  C_4
REMARK    4  A    between atoms: C_4  and  C_5
REMARK    5  A    between atoms: C_5  and  N_6
REMARK    6  A    between atoms: N_6  and  S_7
REMARK    7  A    between atoms: S_7  and  C_10
REMARK    8  A    between atoms: C_12  and  S_13
REMARK    9  A    between atoms: S_13  and  C_14
REMARK                            x       y       z     vdW  Elec       q    Type
REMARK                         _______ _______ _______ _____ _____    ______ ____
ROOT
ATOM      1  S   UNL     1       7.044   5.492  17.897  0.00  0.00    +0.000 S 
ATOM      2  O   UNL     1       7.690   4.689  18.916  0.00  0.00    +0.000 OA
ATOM      3  O   UNL     1       7.481   6.836  17.619  0.00  0.00    +0.000 OA
ENDROOT
BRANCH   1   4
ATOM      4  C   UNL     1       5.296   5.403  18.197  0.00  0.00    +0.000 A 
ATOM      5  C   UNL     1       4.871   4.462  19.162  0.00  0.00    +0.000 A 
ATOM      6  C   UNL     1       3.511   4.335  19.460  0.00  0.00    +0.000 A 
ATOM      7  C   UNL     1       2.568   5.122  18.801  0.00  0.00    +0.000 A 
ATOM      8  C   UNL     1       2.996   6.054  17.852  0.00  0.00    +0.000 A 
ATOM      9  C   UNL     1       4.356   6.201  17.539  0.00  0.00    +0.000 A 
ATOM     10 CL   UNL     1       4.715   7.397  16.354  0.00  0.00    +0.000 Cl
BRANCH   6  11
ATOM     11  S   UNL     1       2.958   3.146  20.667  0.00  0.00    +0.000 S 
ATOM     12  C   UNL     1       1.798   2.154  19.762  0.00  0.00    +0.000 C 
ATOM     13  O   UNL     1       4.098   2.318  21.006  0.00  0.00    +0.000 OA
ATOM     14  O   UNL     1       2.238   3.875  21.692  0.00  0.00    +0.000 OA
ENDBRANCH   6  11
ENDBRANCH   1   4
BRANCH   1  15
ATOM     15  N   UNL     1       7.232   4.651  16.418  0.00  0.00    +0.000 NA
ATOM     16  H   UNL     1       7.541   5.352  15.734  0.00  0.00    +0.000 HD
BRANCH  15  17
ATOM     17  C   UNL     1       6.003   3.962  15.965  0.00  0.00    +0.000 C 
BRANCH  17  18
ATOM     18  C   UNL     1       5.650   4.365  14.540  0.00  0.00    +0.000 C 
BRANCH  18  20
ATOM     19  C   UNL     1       6.462   3.663  12.249  0.00  0.00    +0.000 C 
ATOM     20  C   UNL     1       6.863   4.153  13.630  0.00  0.00    +0.000 C 
BRANCH  20  21
ATOM     21  O   UNL     1       7.592   5.373  13.498  0.00  0.00    +0.000 OA
ATOM     22  H   UNL     1       8.193   5.455  14.261  0.00  0.00    +0.000 HD
ENDBRANCH  20  21
ENDBRANCH  18  20
ENDBRANCH  17  18
ENDBRANCH  15  17
ENDBRANCH   1  15
TORSDOF 7
ENDMDL
MODEL 8
REMARK VINA RESULT:      -6.5      3.315      4.951
REMARK  Name = 
REMARK  9 active torsions:
REMARK  status: ('A' for Active; 'I' for Inactive)
REMARK    1  A    between atoms: C_1  and  C_2
REMARK    2  A    between atoms: C_2  and  O_3
REMARK    3  A    between atoms: C_2  and  C_4
REMARK    4  A    between atoms: C_4  and  C_5
REMARK    5  A    between atoms: C_5  and  N_6
REMARK    6  A    between atoms: N_6  and  S_7
REMARK    7  A    between atoms: S_7  and  C_10
REMARK    8  A    between atoms: C_12  and  S_13
REMARK    9  A    between atoms: S_13  and  C_14
REMARK                            x       y       z     vdW  Elec       q    Type
REMARK                         _______ _______ _______ _____ _____    ______ ____
ROOT
ATOM      1  S   UNL     1       7.103   5.322  18.521  0.00  0.00    +0.000 S 
ATOM      2  O   UNL     1       8.049   4.568  17.722  0.00  0.00    +0.000 OA
ATOM      3  O   UNL     1       7.331   5.551  19.925  0.00  0.00    +0.000 OA
ENDROOT
BRANCH   1   4
ATOM      4  C   UNL     1       5.495   4.638  18.205  0.00  0.00    +0.000 A 
ATOM      5  C   UNL     1       4.662   4.445  19.331  0.00  0.00    +0.000 A 
ATOM      6  C   UNL     1       3.378   3.917  19.166  0.00  0.00    +0.000 A 
ATOM      7  C   UNL     1       2.918   3.566  17.898  0.00  0.00    +0.000 A 
ATOM      8  C   UNL     1       3.744   3.765  16.790  0.00  0.00    +0.000 A 
ATOM      9  C   UNL     1       5.035   4.297  16.931  0.00  0.00    +0.000 A 
ATOM     10 CL   UNL     1       5.920   4.483  15.466  0.00  0.00    +0.000 Cl
BRANCH   6  11
ATOM     11  S   UNL     1       2.320   3.658  20.576  0.00  0.00    +0.000 S 
ATOM     12  C   UNL     1       0.840   2.992  19.860  0.00  0.00    +0.000 C 
ATOM     13  O   UNL     1       2.935   2.629  21.390  0.00  0.00    +0.000 OA
ATOM     14  O   UNL     1       2.016   4.962  21.132  0.00  0.00    +0.000 OA
ENDBRANCH   6  11
ENDBRANCH   1   4
BRANCH   1  15
ATOM     15  N   UNL     1       7.009   6.883  17.827  0.00  0.00    +0.000 NA
ATOM     16  H   UNL     1       6.825   6.737  16.828  0.00  0.00    +0.000 HD
BRANCH  15  17
ATOM     17  C   UNL     1       8.225   7.701  18.035  0.00  0.00    +0.000 C 
BRANCH  17  18
ATOM     18  C   UNL     1       7.900   9.186  17.949  0.00  0.00    +0.000 C 
BRANCH  18  20
ATOM     19  C   UNL     1       9.002  11.464  17.996  0.00  0.00    +0.000 C 
ATOM     20  C   UNL     1       9.110  10.006  18.408  0.00  0.00    +0.000 C 
BRANCH  20  21
ATOM     21  O   UNL     1       9.239   9.930  19.826  0.00  0.00    +0.000 OA
ATOM     22  H   UNL     1       9.149   8.997  20.094  0.00  0.00    +0.000 HD
ENDBRANCH  20  21
ENDBRANCH  18  20
ENDBRANCH  17  18
ENDBRANCH  15  17
ENDBRANCH   1  15
TORSDOF 7
ENDMDL
MODEL 9
REMARK VINA RESULT:      -6.5      1.298      1.457
REMARK  Name = 
REMARK  9 active torsions:
REMARK  status: ('A' for Active; 'I' for Inactive)
REMARK    1  A    between atoms: C_1  and  C_2
REMARK    2  A    between atoms: C_2  and  O_3
REMARK    3  A    between atoms: C_2  and  C_4
REMARK    4  A    between atoms: C_4  and  C_5
REMARK    5  A    between atoms: C_5  and  N_6
REMARK    6  A    between atoms: N_6  and  S_7
REMARK    7  A    between atoms: S_7  and  C_10
REMARK    8  A    between atoms: C_12  and  S_13
REMARK    9  A    between atoms: S_13  and  C_14
REMARK                            x       y       z     vdW  Elec       q    Type
REMARK                         _______ _______ _______ _____ _____    ______ ____
ROOT
ATOM      1  S   UNL     1       6.856   4.987  17.187  0.00  0.00    +0.000 S 
ATOM      2  O   UNL     1       7.624   4.326  18.223  0.00  0.00    +0.000 OA
ATOM      3  O   UNL     1       7.326   6.202  16.571  0.00  0.00    +0.000 OA
ENDROOT
BRANCH   1   4
ATOM      4  C   UNL     1       5.193   5.142  17.792  0.00  0.00    +0.000 A 
ATOM      5  C   UNL     1       4.799   4.221  18.788  0.00  0.00    +0.000 A 
ATOM      6  C   UNL     1       3.507   4.280  19.321  0.00  0.00    +0.000 A 
ATOM      7  C   UNL     1       2.600   5.235  18.865  0.00  0.00    +0.000 A 
ATOM      8  C   UNL     1       2.999   6.147  17.885  0.00  0.00    +0.000 A 
ATOM      9  C   UNL     1       4.291   6.108  17.338  0.00  0.00    +0.000 A 
ATOM     10 CL   UNL     1       4.623   7.305  16.146  0.00  0.00    +0.000 Cl
BRANCH   6  11
ATOM     11  S   UNL     1       2.991   3.118  20.569  0.00  0.00    +0.000 S 
ATOM     12  C   UNL     1       1.594   2.314  19.827  0.00  0.00    +0.000 C 
ATOM     13  O   UNL     1       4.053   2.143  20.713  0.00  0.00    +0.000 OA
ATOM     14  O   UNL     1       2.528   3.886  21.708  0.00  0.00    +0.000 OA
ENDBRANCH   6  11
ENDBRANCH   1   4
BRANCH   1  15
ATOM     15  N   UNL     1       6.703   3.869  15.901  0.00  0.00    +0.000 NA
ATOM     16  H   UNL     1       7.569   3.318  15.902  0.00  0.00    +0.000 HD
BRANCH  15  17
ATOM     17  C   UNL     1       6.472   4.505  14.584  0.00  0.00    +0.000 C 
BRANCH  17  18
ATOM     18  C   UNL     1       5.427   3.736  13.788  0.00  0.00    +0.000 C 
BRANCH  18  20
ATOM     19  C   UNL     1       7.230   4.262  12.092  0.00  0.00    +0.000 C 
ATOM     20  C   UNL     1       5.909   3.555  12.345  0.00  0.00    +0.000 C 
BRANCH  20  21
ATOM     21  O   UNL     1       6.060   2.166  12.054  0.00  0.00    +0.000 OA
ATOM     22  H   UNL     1       6.786   2.064  11.411  0.00  0.00    +0.000 HD
ENDBRANCH  20  21
ENDBRANCH  18  20
ENDBRANCH  17  18
ENDBRANCH  15  17
ENDBRANCH   1  15
TORSDOF 7
ENDMDL
