MODEL 1
REMARK VINA RESULT:      -8.0      0.000      0.000
REMARK  Name = 
REMARK  3 active torsions:
REMARK  status: ('A' for Active; 'I' for Inactive)
REMARK    1  A    between atoms: C_1  and  C_2
REMARK    2  A    between atoms: C_8  and  N_9
REMARK    3  A    between atoms: C_10  and  C_12
REMARK                            x       y       z     vdW  Elec       q    Type
REMARK                         _______ _______ _______ _____ _____    ______ ____
ROOT
ATOM      1  C   UNL     1       2.234   7.759  19.218  0.00  0.00    +0.000 A 
ATOM      2  C   UNL     1       2.370   8.569  18.086  0.00  0.00    +0.000 A 
ATOM      3  C   UNL     1       1.744   9.815  18.036  0.00  0.00    +0.000 A 
ATOM      4  C   UNL     1       0.987  10.258  19.136  0.00  0.00    +0.000 A 
ATOM      5  N   UNL     1       0.305  11.447  19.195  0.00  0.00    +0.000 NA
ATOM      6  C   UNL     1      -0.275  11.610  20.361  0.00  0.00    +0.000 A 
ATOM      7  N   UNL     1      -0.964  12.702  20.754  0.00  0.00    +0.000 N 
ATOM      8  C   UNL     1      -0.839  13.987  20.220  0.00  0.00    +0.000 A 
ATOM      9  C   UNL     1      -0.413  14.251  18.919  0.00  0.00    +0.000 A 
ATOM     10  C   UNL     1      -0.226  15.564  18.498  0.00  0.00    +0.000 A 
ATOM     11  C   UNL     1      -0.497  16.597  19.382  0.00  0.00    +0.000 A 
ATOM     12  C   UNL     1      -0.967  16.262  20.640  0.00  0.00    +0.000 A 
ATOM     13  N   UNL     1      -1.147  14.992  21.071  0.00  0.00    +0.000 NA
ATOM     14  S   UNL     1      -0.070  10.277  21.441  0.00  0.00    +0.000 S 
ATOM     15  C   UNL     1       0.903   9.465  20.276  0.00  0.00    +0.000 A 
ATOM     16  C   UNL     1       1.538   8.214  20.351  0.00  0.00    +0.000 A 
ATOM     17  H   UNL     1      -1.253  12.775  21.722  0.00  0.00    +0.000 HD
ENDROOT
BRANCH   1  19
ATOM     18  N   UNL     1       2.186   5.504  18.341  0.00  0.00    +0.000 N 
ATOM     19  C   UNL     1       2.762   6.365  19.257  0.00  0.00    +0.000 C 
ATOM     20  O   UNL     1       3.630   6.082  20.073  0.00  0.00    +0.000 OA
ATOM     21  H   UNL     1       1.826   5.934  17.499  0.00  0.00    +0.000 HD
BRANCH  18  29
ATOM     22  C   UNL     1       4.487   4.786  16.557  0.00  0.00    +0.000 C 
ATOM     23  C   UNL     1       3.660   3.792  17.327  0.00  0.00    +0.000 A 
ATOM     24  C   UNL     1       4.051   2.440  17.295  0.00  0.00    +0.000 A 
ATOM     25  C   UNL     1       3.396   1.475  18.065  0.00  0.00    +0.000 A 
ATOM     26  C   UNL     1       2.343   1.846  18.893  0.00  0.00    +0.000 A 
ATOM     27  C   UNL     1       1.955   3.182  18.955  0.00  0.00    +0.000 A 
ATOM     28 CL   UNL     1       0.646   3.602  20.011  0.00  0.00    +0.000 Cl
ATOM     29  C   UNL     1       2.587   4.160  18.161  0.00  0.00    +0.000 A 
ENDBRANCH  18  29
ENDBRANCH   1  19
TORSDOF 2
ENDMDL
MODEL 2
REMARK VINA RESULT:      -8.0      1.841      2.094
REMARK  Name = 
REMARK  3 active torsions:
REMARK  status: ('A' for Active; 'I' for Inactive)
REMARK    1  A    between atoms: C_1  and  C_2
REMARK    2  A    between atoms: C_8  and  N_9
REMARK    3  A    between atoms: C_10  and  C_12
REMARK                            x       y       z     vdW  Elec       q    Type
REMARK                         _______ _______ _______ _____ _____    ______ ____
ROOT
ATOM      1  C   UNL     1       1.837   8.223  19.440  0.00  0.00    +0.000 A 
ATOM      2  C   UNL     1       1.706   9.339  18.607  0.00  0.00    +0.000 A 
ATOM      3  C   UNL     1       1.059  10.486  19.068  0.00  0.00    +0.000 A 
ATOM      4  C   UNL     1       0.553  10.519  20.381  0.00  0.00    +0.000 A 
ATOM      5  N   UNL     1      -0.123  11.575  20.939  0.00  0.00    +0.000 NA
ATOM      6  C   UNL     1      -0.436  11.337  22.190  0.00  0.00    +0.000 A 
ATOM      7  N   UNL     1      -1.044  12.202  23.030  0.00  0.00    +0.000 N 
ATOM      8  C   UNL     1      -1.065  13.592  22.901  0.00  0.00    +0.000 A 
ATOM      9  C   UNL     1      -0.940  14.263  21.685  0.00  0.00    +0.000 A 
ATOM     10  C   UNL     1      -0.876  15.653  21.657  0.00  0.00    +0.000 A 
ATOM     11  C   UNL     1      -0.968  16.353  22.850  0.00  0.00    +0.000 A 
ATOM     12  C   UNL     1      -1.143  15.623  24.014  0.00  0.00    +0.000 A 
ATOM     13  N   UNL     1      -1.199  14.272  24.063  0.00  0.00    +0.000 NA
ATOM     14  S   UNL     1       0.027   9.768  22.745  0.00  0.00    +0.000 S 
ATOM     15  C   UNL     1       0.737   9.421  21.215  0.00  0.00    +0.000 A 
ATOM     16  C   UNL     1       1.397   8.263  20.774  0.00  0.00    +0.000 A 
ATOM     17  H   UNL     1      -1.115  11.962  24.011  0.00  0.00    +0.000 HD
ENDROOT
BRANCH   1  19
ATOM     18  N   UNL     1       2.730   6.029  19.934  0.00  0.00    +0.000 N 
ATOM     19  C   UNL     1       2.389   6.930  18.943  0.00  0.00    +0.000 C 
ATOM     20  O   UNL     1       2.508   6.761  17.735  0.00  0.00    +0.000 OA
ATOM     21  H   UNL     1       2.215   6.112  20.801  0.00  0.00    +0.000 HD
BRANCH  18  29
ATOM     22  C   UNL     1       5.604   5.514  19.250  0.00  0.00    +0.000 C 
ATOM     23  C   UNL     1       4.546   4.448  19.354  0.00  0.00    +0.000 A 
ATOM     24  C   UNL     1       4.945   3.104  19.225  0.00  0.00    +0.000 A 
ATOM     25  C   UNL     1       4.040   2.056  19.411  0.00  0.00    +0.000 A 
ATOM     26  C   UNL     1       2.718   2.330  19.742  0.00  0.00    +0.000 A 
ATOM     27  C   UNL     1       2.309   3.653  19.897  0.00  0.00    +0.000 A 
ATOM     28 CL   UNL     1       0.655   3.950  20.324  0.00  0.00    +0.000 Cl
ATOM     29  C   UNL     1       3.204   4.721  19.682  0.00  0.00    +0.000 A 
ENDBRANCH  18  29
ENDBRANCH   1  19
TORSDOF 2
ENDMDL
MODEL 3
REMARK VINA RESULT:      -7.9      2.042      2.605
REMARK  Name = 
REMARK  3 active torsions:
REMARK  status: ('A' for Active; 'I' for Inactive)
REMARK    1  A    between atoms: C_1  and  C_2
REMARK    2  A    between atoms: C_8  and  N_9
REMARK    3  A    between atoms: C_10  and  C_12
REMARK                            x       y       z     vdW  Elec       q    Type
REMARK                         _______ _______ _______ _____ _____    ______ ____
ROOT
ATOM      1  C   UNL     1       1.762   8.099  19.554  0.00  0.00    +0.000 A 
ATOM      2  C   UNL     1       1.707   9.210  18.705  0.00  0.00    +0.000 A 
ATOM      3  C   UNL     1       1.104  10.392  19.135  0.00  0.00    +0.000 A 
ATOM      4  C   UNL     1       0.564  10.466  20.432  0.00  0.00    +0.000 A 
ATOM      5  N   UNL     1      -0.076  11.559  20.959  0.00  0.00    +0.000 NA
ATOM      6  C   UNL     1      -0.435  11.352  22.204  0.00  0.00    +0.000 A 
ATOM      7  N   UNL     1      -1.024  12.255  23.016  0.00  0.00    +0.000 N 
ATOM      8  C   UNL     1      -0.974  13.644  22.871  0.00  0.00    +0.000 A 
ATOM      9  C   UNL     1      -0.784  14.293  21.652  0.00  0.00    +0.000 A 
ATOM     10  C   UNL     1      -0.652  15.678  21.611  0.00  0.00    +0.000 A 
ATOM     11  C   UNL     1      -0.743  16.396  22.793  0.00  0.00    +0.000 A 
ATOM     12  C   UNL     1      -0.986  15.690  23.959  0.00  0.00    +0.000 A 
ATOM     13  N   UNL     1      -1.107  14.344  24.021  0.00  0.00    +0.000 NA
ATOM     14  S   UNL     1      -0.063   9.770  22.789  0.00  0.00    +0.000 S 
ATOM     15  C   UNL     1       0.672   9.371  21.284  0.00  0.00    +0.000 A 
ATOM     16  C   UNL     1       1.288   8.178  20.874  0.00  0.00    +0.000 A 
ATOM     17  H   UNL     1      -1.134  12.031  23.998  0.00  0.00    +0.000 HD
ENDROOT
BRANCH   1  19
ATOM     18  N   UNL     1       2.596   5.895  20.099  0.00  0.00    +0.000 N 
ATOM     19  C   UNL     1       2.265   6.776  19.087  0.00  0.00    +0.000 C 
ATOM     20  O   UNL     1       2.356   6.567  17.883  0.00  0.00    +0.000 OA
ATOM     21  H   UNL     1       2.099   6.020  20.972  0.00  0.00    +0.000 HD
BRANCH  18  29
ATOM     22  C   UNL     1       0.685   3.590  20.260  0.00  0.00    +0.000 C 
ATOM     23  C   UNL     1       2.153   3.462  19.952  0.00  0.00    +0.000 A 
ATOM     24  C   UNL     1       2.651   2.190  19.613  0.00  0.00    +0.000 A 
ATOM     25  C   UNL     1       3.978   2.011  19.216  0.00  0.00    +0.000 A 
ATOM     26  C   UNL     1       4.834   3.104  19.138  0.00  0.00    +0.000 A 
ATOM     27  C   UNL     1       4.354   4.375  19.448  0.00  0.00    +0.000 A 
ATOM     28 CL   UNL     1       5.451   5.712  19.324  0.00  0.00    +0.000 Cl
ATOM     29  C   UNL     1       3.025   4.565  19.879  0.00  0.00    +0.000 A 
ENDBRANCH  18  29
ENDBRANCH   1  19
TORSDOF 2
ENDMDL
MODEL 4
REMARK VINA RESULT:      -7.9      2.392      3.233
REMARK  Name = 
REMARK  3 active torsions:
REMARK  status: ('A' for Active; 'I' for Inactive)
REMARK    1  A    between atoms: C_1  and  C_2
REMARK    2  A    between atoms: C_8  and  N_9
REMARK    3  A    between atoms: C_10  and  C_12
REMARK                            x       y       z     vdW  Elec       q    Type
REMARK                         _______ _______ _______ _____ _____    ______ ____
ROOT
ATOM      1  C   UNL     1       2.313   7.329  19.627  0.00  0.00    +0.000 A 
ATOM      2  C   UNL     1       1.811   7.231  20.929  0.00  0.00    +0.000 A 
ATOM      3  C   UNL     1       1.014   8.251  21.452  0.00  0.00    +0.000 A 
ATOM      4  C   UNL     1       0.706   9.369  20.657  0.00  0.00    +0.000 A 
ATOM      5  N   UNL     1      -0.043  10.445  21.066  0.00  0.00    +0.000 NA
ATOM      6  C   UNL     1      -0.200  11.315  20.098  0.00  0.00    +0.000 A 
ATOM      7  N   UNL     1      -0.939  12.444  20.164  0.00  0.00    +0.000 N 
ATOM      8  C   UNL     1      -1.986  12.687  21.055  0.00  0.00    +0.000 A 
ATOM      9  C   UNL     1      -2.100  12.082  22.306  0.00  0.00    +0.000 A 
ATOM     10  C   UNL     1      -3.226  12.310  23.092  0.00  0.00    +0.000 A 
ATOM     11  C   UNL     1      -4.209  13.167  22.623  0.00  0.00    +0.000 A 
ATOM     12  C   UNL     1      -4.004  13.774  21.396  0.00  0.00    +0.000 A 
ATOM     13  N   UNL     1      -2.922  13.559  20.613  0.00  0.00    +0.000 NA
ATOM     14  S   UNL     1       0.618  10.898  18.635  0.00  0.00    +0.000 S 
ATOM     15  C   UNL     1       1.168   9.429  19.346  0.00  0.00    +0.000 A 
ATOM     16  C   UNL     1       1.959   8.407  18.798  0.00  0.00    +0.000 A 
ATOM     17  H   UNL     1      -1.100  12.973  19.315  0.00  0.00    +0.000 HD
ENDROOT
BRANCH   1  19
ATOM     18  N   UNL     1       3.624   6.534  17.755  0.00  0.00    +0.000 N 
ATOM     19  C   UNL     1       3.283   6.338  19.081  0.00  0.00    +0.000 C 
ATOM     20  O   UNL     1       3.693   5.444  19.811  0.00  0.00    +0.000 OA
ATOM     21  H   UNL     1       3.562   7.487  17.421  0.00  0.00    +0.000 HD
BRANCH  18  29
ATOM     22  C   UNL     1       6.420   7.520  17.310  0.00  0.00    +0.000 C 
ATOM     23  C   UNL     1       5.897   6.192  16.834  0.00  0.00    +0.000 A 
ATOM     24  C   UNL     1       6.803   5.301  16.228  0.00  0.00    +0.000 A 
ATOM     25  C   UNL     1       6.416   4.013  15.853  0.00  0.00    +0.000 A 
ATOM     26  C   UNL     1       5.115   3.583  16.088  0.00  0.00    +0.000 A 
ATOM     27  C   UNL     1       4.209   4.441  16.707  0.00  0.00    +0.000 A 
ATOM     28 CL   UNL     1       2.601   3.859  16.994  0.00  0.00    +0.000 Cl
ATOM     29  C   UNL     1       4.579   5.754  17.062  0.00  0.00    +0.000 A 
ENDBRANCH  18  29
ENDBRANCH   1  19
TORSDOF 2
ENDMDL
MODEL 5
REMARK VINA RESULT:      -7.9      2.500      3.474
REMARK  Name = 
REMARK  3 active torsions:
REMARK  status: ('A' for Active; 'I' for Inactive)
REMARK    1  A    between atoms: C_1  and  C_2
REMARK    2  A    between atoms: C_8  and  N_9
REMARK    3  A    between atoms: C_10  and  C_12
REMARK                            x       y       z     vdW  Elec       q    Type
REMARK                         _______ _______ _______ _____ _____    ______ ____
ROOT
ATOM      1  C   UNL     1       2.343   7.154  19.650  0.00  0.00    +0.000 A 
ATOM      2  C   UNL     1       1.773   7.056  20.923  0.00  0.00    +0.000 A 
ATOM      3  C   UNL     1       0.998   8.101  21.427  0.00  0.00    +0.000 A 
ATOM      4  C   UNL     1       0.780   9.247  20.640  0.00  0.00    +0.000 A 
ATOM      5  N   UNL     1       0.062  10.349  21.033  0.00  0.00    +0.000 NA
ATOM      6  C   UNL     1      -0.008  11.243  20.076  0.00  0.00    +0.000 A 
ATOM      7  N   UNL     1      -0.697  12.403  20.128  0.00  0.00    +0.000 N 
ATOM      8  C   UNL     1      -1.775  12.678  20.972  0.00  0.00    +0.000 A 
ATOM      9  C   UNL     1      -1.980  12.056  22.203  0.00  0.00    +0.000 A 
ATOM     10  C   UNL     1      -3.132  12.322  22.937  0.00  0.00    +0.000 A 
ATOM     11  C   UNL     1      -4.051  13.232  22.438  0.00  0.00    +0.000 A 
ATOM     12  C   UNL     1      -3.757  13.850  21.235  0.00  0.00    +0.000 A 
ATOM     13  N   UNL     1      -2.648  13.600  20.502  0.00  0.00    +0.000 NA
ATOM     14  S   UNL     1       0.863  10.814  18.647  0.00  0.00    +0.000 S 
ATOM     15  C   UNL     1       1.309   9.309  19.355  0.00  0.00    +0.000 A 
ATOM     16  C   UNL     1       2.081   8.262  18.826  0.00  0.00    +0.000 A 
ATOM     17  H   UNL     1      -0.791  12.954  19.284  0.00  0.00    +0.000 HD
ENDROOT
BRANCH   1  19
ATOM     18  N   UNL     1       3.672   6.306  17.814  0.00  0.00    +0.000 N 
ATOM     19  C   UNL     1       3.294   6.129  19.132  0.00  0.00    +0.000 C 
ATOM     20  O   UNL     1       3.657   5.227  19.877  0.00  0.00    +0.000 OA
ATOM     21  H   UNL     1       3.648   7.259  17.473  0.00  0.00    +0.000 HD
BRANCH  18  29
ATOM     22  C   UNL     1       2.975   3.540  16.892  0.00  0.00    +0.000 C 
ATOM     23  C   UNL     1       4.321   4.188  16.707  0.00  0.00    +0.000 A 
ATOM     24  C   UNL     1       5.294   3.496  15.961  0.00  0.00    +0.000 A 
ATOM     25  C   UNL     1       6.529   4.075  15.661  0.00  0.00    +0.000 A 
ATOM     26  C   UNL     1       6.813   5.366  16.091  0.00  0.00    +0.000 A 
ATOM     27  C   UNL     1       5.855   6.076  16.812  0.00  0.00    +0.000 A 
ATOM     28 CL   UNL     1       6.246   7.688  17.317  0.00  0.00    +0.000 Cl
ATOM     29  C   UNL     1       4.617   5.492  17.148  0.00  0.00    +0.000 A 
ENDBRANCH  18  29
ENDBRANCH   1  19
TORSDOF 2
ENDMDL
MODEL 6
REMARK VINA RESULT:      -7.7      1.968      2.574
REMARK  Name = 
REMARK  3 active torsions:
REMARK  status: ('A' for Active; 'I' for Inactive)
REMARK    1  A    between atoms: C_1  and  C_2
REMARK    2  A    between atoms: C_8  and  N_9
REMARK    3  A    between atoms: C_10  and  C_12
REMARK                            x       y       z     vdW  Elec       q    Type
REMARK                         _______ _______ _______ _____ _____    ______ ____
ROOT
ATOM      1  C   UNL     1       1.617   8.236  19.917  0.00  0.00    +0.000 A 
ATOM      2  C   UNL     1       1.410   8.293  21.299  0.00  0.00    +0.000 A 
ATOM      3  C   UNL     1       1.009   9.487  21.900  0.00  0.00    +0.000 A 
ATOM      4  C   UNL     1       0.800  10.629  21.105  0.00  0.00    +0.000 A 
ATOM      5  N   UNL     1       0.432  11.863  21.580  0.00  0.00    +0.000 NA
ATOM      6  C   UNL     1       0.269  12.724  20.604  0.00  0.00    +0.000 A 
ATOM      7  N   UNL     1      -0.153  14.000  20.739  0.00  0.00    +0.000 N 
ATOM      8  C   UNL     1      -0.889  14.511  21.810  0.00  0.00    +0.000 A 
ATOM      9  C   UNL     1      -0.859  13.980  23.099  0.00  0.00    +0.000 A 
ATOM     10  C   UNL     1      -1.696  14.492  24.085  0.00  0.00    +0.000 A 
ATOM     11  C   UNL     1      -2.532  15.552  23.772  0.00  0.00    +0.000 A 
ATOM     12  C   UNL     1      -2.471  16.063  22.486  0.00  0.00    +0.000 A 
ATOM     13  N   UNL     1      -1.671  15.573  21.511  0.00  0.00    +0.000 NA
ATOM     14  S   UNL     1       0.620  12.087  19.037  0.00  0.00    +0.000 S 
ATOM     15  C   UNL     1       0.958  10.545  19.726  0.00  0.00    +0.000 A 
ATOM     16  C   UNL     1       1.348   9.349  19.101  0.00  0.00    +0.000 A 
ATOM     17  H   UNL     1      -0.372  14.532  19.906  0.00  0.00    +0.000 HD
ENDROOT
BRANCH   1  19
ATOM     18  N   UNL     1       2.606   6.038  20.124  0.00  0.00    +0.000 N 
ATOM     19  C   UNL     1       2.184   7.027  19.255  0.00  0.00    +0.000 C 
ATOM     20  O   UNL     1       2.245   6.993  18.032  0.00  0.00    +0.000 OA
ATOM     21  H   UNL     1       2.134   6.007  21.018  0.00  0.00    +0.000 HD
BRANCH  18  29
ATOM     22  C   UNL     1       5.458   5.707  19.263  0.00  0.00    +0.000 C 
ATOM     23  C   UNL     1       4.441   4.598  19.293  0.00  0.00    +0.000 A 
ATOM     24  C   UNL     1       4.876   3.292  18.998  0.00  0.00    +0.000 A 
ATOM     25  C   UNL     1       4.015   2.197  19.105  0.00  0.00    +0.000 A 
ATOM     26  C   UNL     1       2.702   2.385  19.522  0.00  0.00    +0.000 A 
ATOM     27  C   UNL     1       2.259   3.667  19.840  0.00  0.00    +0.000 A 
ATOM     28 CL   UNL     1       0.618   3.853  20.369  0.00  0.00    +0.000 Cl
ATOM     29  C   UNL     1       3.109   4.784  19.707  0.00  0.00    +0.000 A 
ENDBRANCH  18  29
ENDBRANCH   1  19
TORSDOF 2
ENDMDL
MODEL 7
REMARK VINA RESULT:      -7.7      1.855      2.348
REMARK  Name = 
REMARK  3 active torsions:
REMARK  status: ('A' for Active; 'I' for Inactive)
REMARK    1  A    between atoms: C_1  and  C_2
REMARK    2  A    between atoms: C_8  and  N_9
REMARK    3  A    between atoms: C_10  and  C_12
REMARK                            x       y       z     vdW  Elec       q    Type
REMARK                         _______ _______ _______ _____ _____    ______ ____
ROOT
ATOM      1  C   UNL     1       1.816   8.048  19.787  0.00  0.00    +0.000 A 
ATOM      2  C   UNL     1       1.474   9.027  18.849  0.00  0.00    +0.000 A 
ATOM      3  C   UNL     1       0.651  10.092  19.215  0.00  0.00    +0.000 A 
ATOM      4  C   UNL     1       0.180  10.184  20.538  0.00  0.00    +0.000 A 
ATOM      5  N   UNL     1      -0.655  11.166  21.011  0.00  0.00    +0.000 NA
ATOM      6  C   UNL     1      -0.891  11.018  22.293  0.00  0.00    +0.000 A 
ATOM      7  N   UNL     1      -1.618  11.855  23.063  0.00  0.00    +0.000 N 
ATOM      8  C   UNL     1      -1.881  13.200  22.791  0.00  0.00    +0.000 A 
ATOM      9  C   UNL     1      -1.904  13.744  21.507  0.00  0.00    +0.000 A 
ATOM     10  C   UNL     1      -2.081  15.113  21.332  0.00  0.00    +0.000 A 
ATOM     11  C   UNL     1      -2.262  15.915  22.448  0.00  0.00    +0.000 A 
ATOM     12  C   UNL     1      -2.280  15.299  23.688  0.00  0.00    +0.000 A 
ATOM     13  N   UNL     1      -2.101  13.972  23.880  0.00  0.00    +0.000 NA
ATOM     14  S   UNL     1      -0.151   9.621  22.989  0.00  0.00    +0.000 S 
ATOM     15  C   UNL     1       0.570   9.232  21.474  0.00  0.00    +0.000 A 
ATOM     16  C   UNL     1       1.409   8.160  21.127  0.00  0.00    +0.000 A 
ATOM     17  H   UNL     1      -1.622  11.717  24.066  0.00  0.00    +0.000 HD
ENDROOT
BRANCH   1  19
ATOM     18  N   UNL     1       2.889   6.734  18.061  0.00  0.00    +0.000 N 
ATOM     19  C   UNL     1       2.569   6.820  19.404  0.00  0.00    +0.000 C 
ATOM     20  O   UNL     1       2.838   5.994  20.268  0.00  0.00    +0.000 OA
ATOM     21  H   UNL     1       2.987   7.616  17.575  0.00  0.00    +0.000 HD
BRANCH  18  29
ATOM     22  C   UNL     1       5.782   7.120  17.379  0.00  0.00    +0.000 C 
ATOM     23  C   UNL     1       5.018   5.842  17.164  0.00  0.00    +0.000 A 
ATOM     24  C   UNL     1       5.726   4.715  16.708  0.00  0.00    +0.000 A 
ATOM     25  C   UNL     1       5.108   3.469  16.582  0.00  0.00    +0.000 A 
ATOM     26  C   UNL     1       3.767   3.321  16.922  0.00  0.00    +0.000 A 
ATOM     27  C   UNL     1       3.054   4.420  17.396  0.00  0.00    +0.000 A 
ATOM     28 CL   UNL     1       1.389   4.189  17.822  0.00  0.00    +0.000 Cl
ATOM     29  C   UNL     1       3.659   5.690  17.499  0.00  0.00    +0.000 A 
ENDBRANCH  18  29
ENDBRANCH   1  19
TORSDOF 2
ENDMDL
MODEL 8
REMARK VINA RESULT:      -7.7      2.154      2.769
REMARK  Name = 
REMARK  3 active torsions:
REMARK  status: ('A' for Active; 'I' for Inactive)
REMARK    1  A    between atoms: C_1  and  C_2
REMARK    2  A    between atoms: C_8  and  N_9
REMARK    3  A    between atoms: C_10  and  C_12
REMARK                            x       y       z     vdW  Elec       q    Type
REMARK                         _______ _______ _______ _____ _____    ______ ____
ROOT
ATOM      1  C   UNL     1       1.821   7.958  19.855  0.00  0.00    +0.000 A 
ATOM      2  C   UNL     1       1.526   8.944  18.907  0.00  0.00    +0.000 A 
ATOM      3  C   UNL     1       0.737  10.041  19.259  0.00  0.00    +0.000 A 
ATOM      4  C   UNL     1       0.253  10.156  20.574  0.00  0.00    +0.000 A 
ATOM      5  N   UNL     1      -0.552  11.169  21.032  0.00  0.00    +0.000 NA
ATOM      6  C   UNL     1      -0.810  11.035  22.312  0.00  0.00    +0.000 A 
ATOM      7  N   UNL     1      -1.517  11.902  23.069  0.00  0.00    +0.000 N 
ATOM      8  C   UNL     1      -1.727  13.254  22.787  0.00  0.00    +0.000 A 
ATOM      9  C   UNL     1      -1.714  13.792  21.500  0.00  0.00    +0.000 A 
ATOM     10  C   UNL     1      -1.839  15.166  21.317  0.00  0.00    +0.000 A 
ATOM     11  C   UNL     1      -2.006  15.979  22.427  0.00  0.00    +0.000 A 
ATOM     12  C   UNL     1      -2.063  15.370  23.669  0.00  0.00    +0.000 A 
ATOM     13  N   UNL     1      -1.934  14.038  23.869  0.00  0.00    +0.000 NA
ATOM     14  S   UNL     1      -0.130   9.616  23.023  0.00  0.00    +0.000 S 
ATOM     15  C   UNL     1       0.597   9.195  21.520  0.00  0.00    +0.000 A 
ATOM     16  C   UNL     1       1.401   8.092  21.189  0.00  0.00    +0.000 A 
ATOM     17  H   UNL     1      -1.539  11.768  24.072  0.00  0.00    +0.000 HD
ENDROOT
BRANCH   1  19
ATOM     18  N   UNL     1       2.896   6.612  18.155  0.00  0.00    +0.000 N 
ATOM     19  C   UNL     1       2.535   6.702  19.487  0.00  0.00    +0.000 C 
ATOM     20  O   UNL     1       2.739   5.860  20.353  0.00  0.00    +0.000 OA
ATOM     21  H   UNL     1       3.048   7.493  17.680  0.00  0.00    +0.000 HD
BRANCH  18  29
ATOM     22  C   UNL     1       1.654   3.922  17.700  0.00  0.00    +0.000 C 
ATOM     23  C   UNL     1       3.086   4.265  17.389  0.00  0.00    +0.000 A 
ATOM     24  C   UNL     1       3.876   3.294  16.745  0.00  0.00    +0.000 A 
ATOM     25  C   UNL     1       5.181   3.574  16.333  0.00  0.00    +0.000 A 
ATOM     26  C   UNL     1       5.720   4.837  16.546  0.00  0.00    +0.000 A 
ATOM     27  C   UNL     1       4.947   5.819  17.162  0.00  0.00    +0.000 A 
ATOM     28 CL   UNL     1       5.654   7.385  17.396  0.00  0.00    +0.000 Cl
ATOM     29  C   UNL     1       3.640   5.541  17.610  0.00  0.00    +0.000 A 
ENDBRANCH  18  29
ENDBRANCH   1  19
TORSDOF 2
ENDMDL
MODEL 9
REMARK VINA RESULT:      -7.6      3.010      3.802
REMARK  Name = 
REMARK  3 active torsions:
REMARK  status: ('A' for Active; 'I' for Inactive)
REMARK    1  A    between atoms: C_1  and  C_2
REMARK    2  A    between atoms: C_8  and  N_9
REMARK    3  A    between atoms: C_10  and  C_12
REMARK                            x       y       z     vdW  Elec       q    Type
REMARK                         _______ _______ _______ _____ _____    ______ ____
ROOT
ATOM      1  C   UNL     1       2.390   7.301  18.946  0.00  0.00    +0.000 A 
ATOM      2  C   UNL     1       1.958   7.040  20.250  0.00  0.00    +0.000 A 
ATOM      3  C   UNL     1       1.242   8.005  20.959  0.00  0.00    +0.000 A 
ATOM      4  C   UNL     1       0.945   9.237  20.349  0.00  0.00    +0.000 A 
ATOM      5  N   UNL     1       0.274  10.273  20.949  0.00  0.00    +0.000 NA
ATOM      6  C   UNL     1       0.105  11.279  20.124  0.00  0.00    +0.000 A 
ATOM      7  N   UNL     1      -0.572  12.415  20.393  0.00  0.00    +0.000 N 
ATOM      8  C   UNL     1      -1.555  12.572  21.373  0.00  0.00    +0.000 A 
ATOM      9  C   UNL     1      -1.628  11.799  22.532  0.00  0.00    +0.000 A 
ATOM     10  C   UNL     1      -2.696  11.958  23.410  0.00  0.00    +0.000 A 
ATOM     11  C   UNL     1      -3.661  12.913  23.129  0.00  0.00    +0.000 A 
ATOM     12  C   UNL     1      -3.495  13.679  21.988  0.00  0.00    +0.000 A 
ATOM     13  N   UNL     1      -2.470  13.534  21.116  0.00  0.00    +0.000 NA
ATOM     14  S   UNL     1       0.819  11.040  18.569  0.00  0.00    +0.000 S 
ATOM     15  C   UNL     1       1.335   9.464  19.032  0.00  0.00    +0.000 A 
ATOM     16  C   UNL     1       2.044   8.499  18.298  0.00  0.00    +0.000 A 
ATOM     17  H   UNL     1      -0.755  13.065  19.638  0.00  0.00    +0.000 HD
ENDROOT
BRANCH   1  19
ATOM     18  N   UNL     1       4.533   6.861  17.913  0.00  0.00    +0.000 N 
ATOM     19  C   UNL     1       3.279   6.360  18.207  0.00  0.00    +0.000 C 
ATOM     20  O   UNL     1       2.853   5.249  17.912  0.00  0.00    +0.000 OA
ATOM     21  H   UNL     1       4.883   7.570  18.544  0.00  0.00    +0.000 HD
BRANCH  18  29
ATOM     22  C   UNL     1       6.413   5.141  19.493  0.00  0.00    +0.000 C 
ATOM     23  C   UNL     1       6.454   5.301  17.997  0.00  0.00    +0.000 A 
ATOM     24  C   UNL     1       7.367   4.512  17.271  0.00  0.00    +0.000 A 
ATOM     25  C   UNL     1       7.394   4.529  15.875  0.00  0.00    +0.000 A 
ATOM     26  C   UNL     1       6.497   5.327  15.173  0.00  0.00    +0.000 A 
ATOM     27  C   UNL     1       5.571   6.098  15.872  0.00  0.00    +0.000 A 
ATOM     28 CL   UNL     1       4.462   7.068  14.957  0.00  0.00    +0.000 Cl
ATOM     29  C   UNL     1       5.554   6.113  17.282  0.00  0.00    +0.000 A 
ENDBRANCH  18  29
ENDBRANCH   1  19
TORSDOF 2
ENDMDL
