MODEL 1
REMARK VINA RESULT:      -8.7      0.000      0.000
REMARK  Name = 
REMARK  6 active torsions:
REMARK  status: ('A' for Active; 'I' for Inactive)
REMARK    1  A    between atoms: C_1  and  C_2
REMARK    2  A    between atoms: C_4  and  O_5
REMARK    3  A    between atoms: O_5  and  C_6
REMARK    4  A    between atoms: C_17  and  C_18
REMARK    5  A    between atoms: C_19  and  C_20
REMARK    6  A    between atoms: C_25  and  C_26
REMARK                            x       y       z     vdW  Elec       q    Type
REMARK                         _______ _______ _______ _____ _____    ______ ____
ROOT
ATOM      1  C   UNL     1       0.007   9.527  21.335  0.00  0.00    +0.000 C 
ATOM      2  C   UNL     1       0.882   9.041  20.210  0.00  0.00    +0.000 A 
ATOM      3  C   UNL     1       1.709   7.922  20.425  0.00  0.00    +0.000 A 
ATOM      4  C   UNL     1       2.493   7.397  19.395  0.00  0.00    +0.000 A 
ATOM      5  C   UNL     1       2.425   7.967  18.124  0.00  0.00    +0.000 A 
ATOM      6  C   UNL     1       1.642   9.097  17.900  0.00  0.00    +0.000 A 
ATOM      7  C   UNL     1       0.867   9.646  18.935  0.00  0.00    +0.000 A 
ENDROOT
BRANCH   7   8
ATOM      8  C   UNL     1       0.044  10.830  18.629  0.00  0.00    +0.000 A 
ATOM      9  C   UNL     1       0.569  12.219  18.831  0.00  0.00    +0.000 A 
ATOM     10  C   UNL     1       1.953  12.427  19.409  0.00  0.00    +0.000 C 
ATOM     11  N   UNL     1      -0.104  13.298  18.572  0.00  0.00    +0.000 NA
ATOM     12  N   UNL     1      -1.363  13.136  18.096  0.00  0.00    +0.000 N 
ATOM     13  C   UNL     1      -2.009  11.945  17.903  0.00  0.00    +0.000 A 
ATOM     14  O   UNL     1      -3.162  11.906  17.484  0.00  0.00    +0.000 OA
ATOM     15  C   UNL     1      -1.235  10.711  18.220  0.00  0.00    +0.000 A 
ATOM     16  C   UNL     1      -1.967   9.408  18.058  0.00  0.00    +0.000 C 
ATOM     17  H   UNL     1      -1.886  13.982  17.894  0.00  0.00    +0.000 HD
ENDBRANCH   7   8
BRANCH   4  18
ATOM     18  O   UNL     1       3.214   6.265  19.702  0.00  0.00    +0.000 OA
BRANCH  18  19
ATOM     19  C   UNL     1       2.992   5.122  18.956  0.00  0.00    +0.000 A 
ATOM     20  N   UNL     1       3.764   4.795  17.867  0.00  0.00    +0.000 NA
ATOM     21  C   UNL     1       3.500   3.648  17.141  0.00  0.00    +0.000 A 
ATOM     22  C   UNL     1       2.505   2.689  17.372  0.00  0.00    +0.000 A 
ATOM     23  C   UNL     1       1.744   2.999  18.505  0.00  0.00    +0.000 A 
ATOM     24  N   UNL     1       0.716   2.336  19.064  0.00  0.00    +0.000 NA
ATOM     25  N   UNL     1       0.365   3.079  20.132  0.00  0.00    +0.000 N 
ATOM     26  C   UNL     1       1.109   4.212  20.300  0.00  0.00    +0.000 A 
ATOM     27  C   UNL     1       2.004   4.189  19.267  0.00  0.00    +0.000 A 
ATOM     28  H   UNL     1      -0.403   2.749  20.708  0.00  0.00    +0.000 HD
ENDBRANCH  18  19
ENDBRANCH   4  18
TORSDOF 3
ENDMDL
MODEL 2
REMARK VINA RESULT:      -8.6      1.451      2.274
REMARK  Name = 
REMARK  6 active torsions:
REMARK  status: ('A' for Active; 'I' for Inactive)
REMARK    1  A    between atoms: C_1  and  C_2
REMARK    2  A    between atoms: C_4  and  O_5
REMARK    3  A    between atoms: O_5  and  C_6
REMARK    4  A    between atoms: C_17  and  C_18
REMARK    5  A    between atoms: C_19  and  C_20
REMARK    6  A    between atoms: C_25  and  C_26
REMARK                            x       y       z     vdW  Elec       q    Type
REMARK                         _______ _______ _______ _____ _____    ______ ____
ROOT
ATOM      1  C   UNL     1      -0.188   9.274  21.713  0.00  0.00    +0.000 C 
ATOM      2  C   UNL     1       0.675   9.046  20.501  0.00  0.00    +0.000 A 
ATOM      3  C   UNL     1       1.523   7.922  20.471  0.00  0.00    +0.000 A 
ATOM      4  C   UNL     1       2.298   7.633  19.345  0.00  0.00    +0.000 A 
ATOM      5  C   UNL     1       2.200   8.451  18.219  0.00  0.00    +0.000 A 
ATOM      6  C   UNL     1       1.396   9.588  18.242  0.00  0.00    +0.000 A 
ATOM      7  C   UNL     1       0.630   9.898  19.377  0.00  0.00    +0.000 A 
ENDROOT
BRANCH   7   8
ATOM      8  C   UNL     1      -0.216  11.105  19.331  0.00  0.00    +0.000 A 
ATOM      9  C   UNL     1      -1.569  11.086  18.688  0.00  0.00    +0.000 A 
ATOM     10  C   UNL     1      -2.072   9.823  18.022  0.00  0.00    +0.000 C 
ATOM     11  N   UNL     1      -2.360  12.113  18.624  0.00  0.00    +0.000 NA
ATOM     12  N   UNL     1      -1.912  13.268  19.174  0.00  0.00    +0.000 N 
ATOM     13  C   UNL     1      -0.688  13.468  19.752  0.00  0.00    +0.000 A 
ATOM     14  O   UNL     1      -0.368  14.563  20.205  0.00  0.00    +0.000 OA
ATOM     15  C   UNL     1       0.222  12.289  19.805  0.00  0.00    +0.000 A 
ATOM     16  C   UNL     1       1.586  12.528  20.391  0.00  0.00    +0.000 C 
ATOM     17  H   UNL     1      -2.534  14.069  19.123  0.00  0.00    +0.000 HD
ENDBRANCH   7   8
BRANCH   4  18
ATOM     18  O   UNL     1       3.042   6.476  19.404  0.00  0.00    +0.000 OA
BRANCH  18  19
ATOM     19  C   UNL     1       2.407   5.273  19.152  0.00  0.00    +0.000 A 
ATOM     20  N   UNL     1       2.009   4.904  17.890  0.00  0.00    +0.000 NA
ATOM     21  C   UNL     1       1.366   3.697  17.684  0.00  0.00    +0.000 A 
ATOM     22  C   UNL     1       1.051   2.714  18.632  0.00  0.00    +0.000 A 
ATOM     23  C   UNL     1       1.491   3.071  19.911  0.00  0.00    +0.000 A 
ATOM     24  N   UNL     1       1.396   2.404  21.075  0.00  0.00    +0.000 NA
ATOM     25  N   UNL     1       1.988   3.206  21.982  0.00  0.00    +0.000 N 
ATOM     26  C   UNL     1       2.464   4.380  21.471  0.00  0.00    +0.000 A 
ATOM     27  C   UNL     1       2.157   4.322  20.141  0.00  0.00    +0.000 A 
ATOM     28  H   UNL     1       2.030   2.884  22.944  0.00  0.00    +0.000 HD
ENDBRANCH  18  19
ENDBRANCH   4  18
TORSDOF 3
ENDMDL
MODEL 3
REMARK VINA RESULT:      -8.5      0.996      1.128
REMARK  Name = 
REMARK  6 active torsions:
REMARK  status: ('A' for Active; 'I' for Inactive)
REMARK    1  A    between atoms: C_1  and  C_2
REMARK    2  A    between atoms: C_4  and  O_5
REMARK    3  A    between atoms: O_5  and  C_6
REMARK    4  A    between atoms: C_17  and  C_18
REMARK    5  A    between atoms: C_19  and  C_20
REMARK    6  A    between atoms: C_25  and  C_26
REMARK                            x       y       z     vdW  Elec       q    Type
REMARK                         _______ _______ _______ _____ _____    ______ ____
ROOT
ATOM      1  C   UNL     1      -0.115   9.219  21.596  0.00  0.00    +0.000 C 
ATOM      2  C   UNL     1       0.730   8.962  20.377  0.00  0.00    +0.000 A 
ATOM      3  C   UNL     1       1.610   7.863  20.379  0.00  0.00    +0.000 A 
ATOM      4  C   UNL     1       2.370   7.547  19.250  0.00  0.00    +0.000 A 
ATOM      5  C   UNL     1       2.226   8.311  18.092  0.00  0.00    +0.000 A 
ATOM      6  C   UNL     1       1.389   9.424  18.082  0.00  0.00    +0.000 A 
ATOM      7  C   UNL     1       0.637   9.762  19.219  0.00  0.00    +0.000 A 
ENDROOT
BRANCH   7   8
ATOM      8  C   UNL     1      -0.246  10.941  19.138  0.00  0.00    +0.000 A 
ATOM      9  C   UNL     1       0.176  12.271  19.683  0.00  0.00    +0.000 A 
ATOM     10  C   UNL     1       1.513  12.413  20.381  0.00  0.00    +0.000 C 
ATOM     11  N   UNL     1      -0.553  13.344  19.634  0.00  0.00    +0.000 NA
ATOM     12  N   UNL     1      -1.773  13.230  19.054  0.00  0.00    +0.000 N 
ATOM     13  C   UNL     1      -2.328  12.084  18.554  0.00  0.00    +0.000 A 
ATOM     14  O   UNL     1      -3.454  12.082  18.065  0.00  0.00    +0.000 OA
ATOM     15  C   UNL     1      -1.492  10.853  18.631  0.00  0.00    +0.000 A 
ATOM     16  C   UNL     1      -2.128   9.586  18.131  0.00  0.00    +0.000 C 
ATOM     17  H   UNL     1      -2.339  14.071  19.016  0.00  0.00    +0.000 HD
ENDBRANCH   7   8
BRANCH   4  18
ATOM     18  O   UNL     1       3.149   6.416  19.344  0.00  0.00    +0.000 OA
BRANCH  18  19
ATOM     19  C   UNL     1       2.558   5.189  19.104  0.00  0.00    +0.000 A 
ATOM     20  N   UNL     1       2.249   4.759  17.836  0.00  0.00    +0.000 NA
ATOM     21  C   UNL     1       1.647   3.530  17.640  0.00  0.00    +0.000 A 
ATOM     22  C   UNL     1       1.293   2.579  18.607  0.00  0.00    +0.000 A 
ATOM     23  C   UNL     1       1.643   2.997  19.895  0.00  0.00    +0.000 A 
ATOM     24  N   UNL     1       1.488   2.376  21.077  0.00  0.00    +0.000 NA
ATOM     25  N   UNL     1       2.004   3.229  21.986  0.00  0.00    +0.000 N 
ATOM     26  C   UNL     1       2.486   4.392  21.457  0.00  0.00    +0.000 A 
ATOM     27  C   UNL     1       2.266   4.273  20.113  0.00  0.00    +0.000 A 
ATOM     28  H   UNL     1       1.991   2.947  22.961  0.00  0.00    +0.000 HD
ENDBRANCH  18  19
ENDBRANCH   4  18
TORSDOF 3
ENDMDL
MODEL 4
REMARK VINA RESULT:      -8.4      1.332      2.593
REMARK  Name = 
REMARK  6 active torsions:
REMARK  status: ('A' for Active; 'I' for Inactive)
REMARK    1  A    between atoms: C_1  and  C_2
REMARK    2  A    between atoms: C_4  and  O_5
REMARK    3  A    between atoms: O_5  and  C_6
REMARK    4  A    between atoms: C_17  and  C_18
REMARK    5  A    between atoms: C_19  and  C_20
REMARK    6  A    between atoms: C_25  and  C_26
REMARK                            x       y       z     vdW  Elec       q    Type
REMARK                         _______ _______ _______ _____ _____    ______ ____
ROOT
ATOM      1  C   UNL     1       0.136   9.659  21.398  0.00  0.00    +0.000 C 
ATOM      2  C   UNL     1       0.950   9.110  20.257  0.00  0.00    +0.000 A 
ATOM      3  C   UNL     1       1.724   7.952  20.469  0.00  0.00    +0.000 A 
ATOM      4  C   UNL     1       2.448   7.369  19.426  0.00  0.00    +0.000 A 
ATOM      5  C   UNL     1       2.374   7.922  18.147  0.00  0.00    +0.000 A 
ATOM      6  C   UNL     1       1.645   9.088  17.926  0.00  0.00    +0.000 A 
ATOM      7  C   UNL     1       0.931   9.693  18.973  0.00  0.00    +0.000 A 
ENDROOT
BRANCH   7   8
ATOM      8  C   UNL     1       0.163  10.915  18.669  0.00  0.00    +0.000 A 
ATOM      9  C   UNL     1      -1.232  10.846  18.127  0.00  0.00    +0.000 A 
ATOM     10  C   UNL     1      -1.863   9.502  17.832  0.00  0.00    +0.000 C 
ATOM     11  N   UNL     1      -1.959  11.885  17.849  0.00  0.00    +0.000 NA
ATOM     12  N   UNL     1      -1.398  13.101  18.063  0.00  0.00    +0.000 N 
ATOM     13  C   UNL     1      -0.124  13.339  18.503  0.00  0.00    +0.000 A 
ATOM     14  O   UNL     1       0.297  14.483  18.646  0.00  0.00    +0.000 OA
ATOM     15  C   UNL     1       0.709  12.141  18.803  0.00  0.00    +0.000 A 
ATOM     16  C   UNL     1       2.125  12.407  19.234  0.00  0.00    +0.000 C 
ATOM     17  H   UNL     1      -1.970  13.911  17.845  0.00  0.00    +0.000 HD
ENDBRANCH   7   8
BRANCH   4  18
ATOM     18  O   UNL     1       3.118   6.205  19.732  0.00  0.00    +0.000 OA
BRANCH  18  19
ATOM     19  C   UNL     1       2.475   5.001  19.515  0.00  0.00    +0.000 A 
ATOM     20  N   UNL     1       1.224   4.736  20.016  0.00  0.00    +0.000 NA
ATOM     21  C   UNL     1       0.621   3.513  19.786  0.00  0.00    +0.000 A 
ATOM     22  C   UNL     1       1.122   2.428  19.052  0.00  0.00    +0.000 A 
ATOM     23  C   UNL     1       2.379   2.711  18.507  0.00  0.00    +0.000 A 
ATOM     24  N   UNL     1       3.179   1.950  17.740  0.00  0.00    +0.000 NA
ATOM     25  N   UNL     1       4.261   2.718  17.501  0.00  0.00    +0.000 N 
ATOM     26  C   UNL     1       4.217   3.951  18.085  0.00  0.00    +0.000 A 
ATOM     27  C   UNL     1       3.018   3.976  18.741  0.00  0.00    +0.000 A 
ATOM     28  H   UNL     1       5.001   2.329  16.925  0.00  0.00    +0.000 HD
ENDBRANCH  18  19
ENDBRANCH   4  18
TORSDOF 3
ENDMDL
MODEL 5
REMARK VINA RESULT:      -8.4      0.926      1.765
REMARK  Name = 
REMARK  6 active torsions:
REMARK  status: ('A' for Active; 'I' for Inactive)
REMARK    1  A    between atoms: C_1  and  C_2
REMARK    2  A    between atoms: C_4  and  O_5
REMARK    3  A    between atoms: O_5  and  C_6
REMARK    4  A    between atoms: C_17  and  C_18
REMARK    5  A    between atoms: C_19  and  C_20
REMARK    6  A    between atoms: C_25  and  C_26
REMARK                            x       y       z     vdW  Elec       q    Type
REMARK                         _______ _______ _______ _____ _____    ______ ____
ROOT
ATOM      1  C   UNL     1       0.043   9.670  21.400  0.00  0.00    +0.000 C 
ATOM      2  C   UNL     1       0.875   9.080  20.294  0.00  0.00    +0.000 A 
ATOM      3  C   UNL     1       1.668   7.949  20.567  0.00  0.00    +0.000 A 
ATOM      4  C   UNL     1       2.410   7.328  19.559  0.00  0.00    +0.000 A 
ATOM      5  C   UNL     1       2.335   7.816  18.254  0.00  0.00    +0.000 A 
ATOM      6  C   UNL     1       1.587   8.956  17.971  0.00  0.00    +0.000 A 
ATOM      7  C   UNL     1       0.854   9.599  18.982  0.00  0.00    +0.000 A 
ENDROOT
BRANCH   7   8
ATOM      8  C   UNL     1       0.066  10.790  18.613  0.00  0.00    +0.000 A 
ATOM      9  C   UNL     1       0.635  12.170  18.735  0.00  0.00    +0.000 A 
ATOM     10  C   UNL     1       2.028  12.368  19.295  0.00  0.00    +0.000 C 
ATOM     11  N   UNL     1      -0.006  13.254  18.419  0.00  0.00    +0.000 NA
ATOM     12  N   UNL     1      -1.272  13.105  17.958  0.00  0.00    +0.000 N 
ATOM     13  C   UNL     1      -1.955  11.925  17.833  0.00  0.00    +0.000 A 
ATOM     14  O   UNL     1      -3.111  11.899  17.422  0.00  0.00    +0.000 OA
ATOM     15  C   UNL     1      -1.218  10.688  18.215  0.00  0.00    +0.000 A 
ATOM     16  C   UNL     1      -1.991   9.401  18.129  0.00  0.00    +0.000 C 
ATOM     17  H   UNL     1      -1.770  13.954  17.710  0.00  0.00    +0.000 HD
ENDBRANCH   7   8
BRANCH   4  18
ATOM     18  O   UNL     1       3.098   6.194  19.927  0.00  0.00    +0.000 OA
BRANCH  18  19
ATOM     19  C   UNL     1       2.513   4.964  19.689  0.00  0.00    +0.000 A 
ATOM     20  N   UNL     1       1.297   4.614  20.226  0.00  0.00    +0.000 NA
ATOM     21  C   UNL     1       0.753   3.368  19.973  0.00  0.00    +0.000 A 
ATOM     22  C   UNL     1       1.281   2.339  19.182  0.00  0.00    +0.000 A 
ATOM     23  C   UNL     1       2.500   2.709  18.603  0.00  0.00    +0.000 A 
ATOM     24  N   UNL     1       3.309   2.019  17.779  0.00  0.00    +0.000 NA
ATOM     25  N   UNL     1       4.338   2.853  17.528  0.00  0.00    +0.000 N 
ATOM     26  C   UNL     1       4.251   4.061  18.159  0.00  0.00    +0.000 A 
ATOM     27  C   UNL     1       3.079   3.997  18.859  0.00  0.00    +0.000 A 
ATOM     28  H   UNL     1       5.075   2.525  16.912  0.00  0.00    +0.000 HD
ENDBRANCH  18  19
ENDBRANCH   4  18
TORSDOF 3
ENDMDL
MODEL 6
REMARK VINA RESULT:      -8.4      1.241      2.174
REMARK  Name = 
REMARK  6 active torsions:
REMARK  status: ('A' for Active; 'I' for Inactive)
REMARK    1  A    between atoms: C_1  and  C_2
REMARK    2  A    between atoms: C_4  and  O_5
REMARK    3  A    between atoms: O_5  and  C_6
REMARK    4  A    between atoms: C_17  and  C_18
REMARK    5  A    between atoms: C_19  and  C_20
REMARK    6  A    between atoms: C_25  and  C_26
REMARK                            x       y       z     vdW  Elec       q    Type
REMARK                         _______ _______ _______ _____ _____    ______ ____
ROOT
ATOM      1  C   UNL     1      -0.035   9.866  21.522  0.00  0.00    +0.000 C 
ATOM      2  C   UNL     1       0.797   9.245  20.432  0.00  0.00    +0.000 A 
ATOM      3  C   UNL     1       1.493   8.051  20.703  0.00  0.00    +0.000 A 
ATOM      4  C   UNL     1       2.229   7.404  19.707  0.00  0.00    +0.000 A 
ATOM      5  C   UNL     1       2.242   7.930  18.415  0.00  0.00    +0.000 A 
ATOM      6  C   UNL     1       1.591   9.129  18.136  0.00  0.00    +0.000 A 
ATOM      7  C   UNL     1       0.867   9.798  19.136  0.00  0.00    +0.000 A 
ENDROOT
BRANCH   7   8
ATOM      8  C   UNL     1       0.183  11.053  18.771  0.00  0.00    +0.000 A 
ATOM      9  C   UNL     1      -1.192  11.049  18.179  0.00  0.00    +0.000 A 
ATOM     10  C   UNL     1      -1.890   9.736  17.895  0.00  0.00    +0.000 C 
ATOM     11  N   UNL     1      -1.846  12.120  17.846  0.00  0.00    +0.000 NA
ATOM     12  N   UNL     1      -1.223  13.307  18.049  0.00  0.00    +0.000 N 
ATOM     13  C   UNL     1       0.045  13.483  18.531  0.00  0.00    +0.000 A 
ATOM     14  O   UNL     1       0.528  14.604  18.659  0.00  0.00    +0.000 OA
ATOM     15  C   UNL     1       0.796  12.248  18.893  0.00  0.00    +0.000 A 
ATOM     16  C   UNL     1       2.208  12.444  19.370  0.00  0.00    +0.000 C 
ATOM     17  H   UNL     1      -1.738  14.142  17.788  0.00  0.00    +0.000 HD
ENDBRANCH   7   8
BRANCH   4  18
ATOM     18  O   UNL     1       2.817   6.213  20.068  0.00  0.00    +0.000 OA
BRANCH  18  19
ATOM     19  C   UNL     1       3.286   5.381  19.068  0.00  0.00    +0.000 A 
ATOM     20  N   UNL     1       4.476   5.611  18.421  0.00  0.00    +0.000 NA
ATOM     21  C   UNL     1       4.902   4.761  17.416  0.00  0.00    +0.000 A 
ATOM     22  C   UNL     1       4.268   3.607  16.934  0.00  0.00    +0.000 A 
ATOM     23  C   UNL     1       3.076   3.350  17.620  0.00  0.00    +0.000 A 
ATOM     24  N   UNL     1       2.192   2.347  17.470  0.00  0.00    +0.000 NA
ATOM     25  N   UNL     1       1.236   2.589  18.390  0.00  0.00    +0.000 N 
ATOM     26  C   UNL     1       1.443   3.714  19.136  0.00  0.00    +0.000 A 
ATOM     27  C   UNL     1       2.619   4.226  18.663  0.00  0.00    +0.000 A 
ATOM     28  H   UNL     1       0.461   1.936  18.451  0.00  0.00    +0.000 HD
ENDBRANCH  18  19
ENDBRANCH   4  18
TORSDOF 3
ENDMDL
MODEL 7
REMARK VINA RESULT:      -8.3      1.347      2.817
REMARK  Name = 
REMARK  6 active torsions:
REMARK  status: ('A' for Active; 'I' for Inactive)
REMARK    1  A    between atoms: C_1  and  C_2
REMARK    2  A    between atoms: C_4  and  O_5
REMARK    3  A    between atoms: O_5  and  C_6
REMARK    4  A    between atoms: C_17  and  C_18
REMARK    5  A    between atoms: C_19  and  C_20
REMARK    6  A    between atoms: C_25  and  C_26
REMARK                            x       y       z     vdW  Elec       q    Type
REMARK                         _______ _______ _______ _____ _____    ______ ____
ROOT
ATOM      1  C   UNL     1      -0.047   9.787  21.480  0.00  0.00    +0.000 C 
ATOM      2  C   UNL     1       0.811   9.205  20.389  0.00  0.00    +0.000 A 
ATOM      3  C   UNL     1       1.527   8.019  20.645  0.00  0.00    +0.000 A 
ATOM      4  C   UNL     1       2.287   7.407  19.646  0.00  0.00    +0.000 A 
ATOM      5  C   UNL     1       2.308   7.959  18.365  0.00  0.00    +0.000 A 
ATOM      6  C   UNL     1       1.637   9.152  18.102  0.00  0.00    +0.000 A 
ATOM      7  C   UNL     1       0.887   9.786  19.105  0.00  0.00    +0.000 A 
ENDROOT
BRANCH   7   8
ATOM      8  C   UNL     1       0.185  11.035  18.757  0.00  0.00    +0.000 A 
ATOM      9  C   UNL     1      -1.185  11.018  18.152  0.00  0.00    +0.000 A 
ATOM     10  C   UNL     1      -1.855   9.697  17.836  0.00  0.00    +0.000 C 
ATOM     11  N   UNL     1      -1.855  12.083  17.832  0.00  0.00    +0.000 NA
ATOM     12  N   UNL     1      -1.255  13.276  18.063  0.00  0.00    +0.000 N 
ATOM     13  C   UNL     1       0.005  13.466  18.561  0.00  0.00    +0.000 A 
ATOM     14  O   UNL     1       0.466  14.594  18.715  0.00  0.00    +0.000 OA
ATOM     15  C   UNL     1       0.774  12.239  18.908  0.00  0.00    +0.000 A 
ATOM     16  C   UNL     1       2.178  12.451  19.403  0.00  0.00    +0.000 C 
ATOM     17  H   UNL     1      -1.782  14.107  17.813  0.00  0.00    +0.000 HD
ENDBRANCH   7   8
BRANCH   4  18
ATOM     18  O   UNL     1       2.894   6.220  19.991  0.00  0.00    +0.000 OA
BRANCH  18  19
ATOM     19  C   UNL     1       2.791   5.152  19.119  0.00  0.00    +0.000 A 
ATOM     20  N   UNL     1       1.653   4.386  19.028  0.00  0.00    +0.000 NA
ATOM     21  C   UNL     1       1.596   3.318  18.151  0.00  0.00    +0.000 A 
ATOM     22  C   UNL     1       2.587   2.875  17.264  0.00  0.00    +0.000 A 
ATOM     23  C   UNL     1       3.731   3.678  17.327  0.00  0.00    +0.000 A 
ATOM     24  N   UNL     1       4.883   3.596  16.638  0.00  0.00    +0.000 NA
ATOM     25  N   UNL     1       5.632   4.620  17.094  0.00  0.00    +0.000 N 
ATOM     26  C   UNL     1       5.030   5.371  18.063  0.00  0.00    +0.000 A 
ATOM     27  C   UNL     1       3.806   4.788  18.235  0.00  0.00    +0.000 A 
ATOM     28  H   UNL     1       6.557   4.745  16.695  0.00  0.00    +0.000 HD
ENDBRANCH  18  19
ENDBRANCH   4  18
TORSDOF 3
ENDMDL
MODEL 8
REMARK VINA RESULT:      -8.2      1.442      1.756
REMARK  Name = 
REMARK  6 active torsions:
REMARK  status: ('A' for Active; 'I' for Inactive)
REMARK    1  A    between atoms: C_1  and  C_2
REMARK    2  A    between atoms: C_4  and  O_5
REMARK    3  A    between atoms: O_5  and  C_6
REMARK    4  A    between atoms: C_17  and  C_18
REMARK    5  A    between atoms: C_19  and  C_20
REMARK    6  A    between atoms: C_25  and  C_26
REMARK                            x       y       z     vdW  Elec       q    Type
REMARK                         _______ _______ _______ _____ _____    ______ ____
ROOT
ATOM      1  C   UNL     1       0.120   8.833  21.358  0.00  0.00    +0.000 C 
ATOM      2  C   UNL     1       0.934   8.828  20.092  0.00  0.00    +0.000 A 
ATOM      3  C   UNL     1       1.895   7.816  19.904  0.00  0.00    +0.000 A 
ATOM      4  C   UNL     1       2.631   7.733  18.720  0.00  0.00    +0.000 A 
ATOM      5  C   UNL     1       2.384   8.645  17.693  0.00  0.00    +0.000 A 
ATOM      6  C   UNL     1       1.465   9.676  17.874  0.00  0.00    +0.000 A 
ATOM      7  C   UNL     1       0.735   9.781  19.069  0.00  0.00    +0.000 A 
ENDROOT
BRANCH   7   8
ATOM      8  C   UNL     1      -0.237  10.883  19.191  0.00  0.00    +0.000 A 
ATOM      9  C   UNL     1       0.099  12.142  19.928  0.00  0.00    +0.000 A 
ATOM     10  C   UNL     1       1.443  12.282  20.613  0.00  0.00    +0.000 C 
ATOM     11  N   UNL     1      -0.710  13.148  20.062  0.00  0.00    +0.000 NA
ATOM     12  N   UNL     1      -1.936  13.028  19.496  0.00  0.00    +0.000 N 
ATOM     13  C   UNL     1      -2.418  11.931  18.834  0.00  0.00    +0.000 A 
ATOM     14  O   UNL     1      -3.555  11.915  18.372  0.00  0.00    +0.000 OA
ATOM     15  C   UNL     1      -1.489  10.774  18.701  0.00  0.00    +0.000 A 
ATOM     16  C   UNL     1      -2.041   9.552  18.022  0.00  0.00    +0.000 C 
ATOM     17  H   UNL     1      -2.566  13.817  19.601  0.00  0.00    +0.000 HD
ENDBRANCH   7   8
BRANCH   4  18
ATOM     18  O   UNL     1       3.497   6.667  18.621  0.00  0.00    +0.000 OA
BRANCH  18  19
ATOM     19  C   UNL     1       2.965   5.398  18.481  0.00  0.00    +0.000 A 
ATOM     20  N   UNL     1       1.722   5.180  17.936  0.00  0.00    +0.000 NA
ATOM     21  C   UNL     1       1.221   3.896  17.827  0.00  0.00    +0.000 A 
ATOM     22  C   UNL     1       1.839   2.694  18.197  0.00  0.00    +0.000 A 
ATOM     23  C   UNL     1       3.121   2.911  18.715  0.00  0.00    +0.000 A 
ATOM     24  N   UNL     1       4.031   2.030  19.166  0.00  0.00    +0.000 NA
ATOM     25  N   UNL     1       5.085   2.783  19.541  0.00  0.00    +0.000 N 
ATOM     26  C   UNL     1       4.908   4.126  19.367  0.00  0.00    +0.000 A 
ATOM     27  C   UNL     1       3.652   4.239  18.838  0.00  0.00    +0.000 A 
ATOM     28  H   UNL     1       5.900   2.306  19.913  0.00  0.00    +0.000 HD
ENDBRANCH  18  19
ENDBRANCH   4  18
TORSDOF 3
ENDMDL
MODEL 9
REMARK VINA RESULT:      -8.0      0.933      2.066
REMARK  Name = 
REMARK  6 active torsions:
REMARK  status: ('A' for Active; 'I' for Inactive)
REMARK    1  A    between atoms: C_1  and  C_2
REMARK    2  A    between atoms: C_4  and  O_5
REMARK    3  A    between atoms: O_5  and  C_6
REMARK    4  A    between atoms: C_17  and  C_18
REMARK    5  A    between atoms: C_19  and  C_20
REMARK    6  A    between atoms: C_25  and  C_26
REMARK                            x       y       z     vdW  Elec       q    Type
REMARK                         _______ _______ _______ _____ _____    ______ ____
ROOT
ATOM      1  C   UNL     1      -0.101   9.544  21.476  0.00  0.00    +0.000 C 
ATOM      2  C   UNL     1       0.780   9.045  20.363  0.00  0.00    +0.000 A 
ATOM      3  C   UNL     1       1.587   7.913  20.589  0.00  0.00    +0.000 A 
ATOM      4  C   UNL     1       2.375   7.375  19.569  0.00  0.00    +0.000 A 
ATOM      5  C   UNL     1       2.334   7.947  18.297  0.00  0.00    +0.000 A 
ATOM      6  C   UNL     1       1.573   9.090  18.064  0.00  0.00    +0.000 A 
ATOM      7  C   UNL     1       0.793   9.650  19.089  0.00  0.00    +0.000 A 
ENDROOT
BRANCH   7   8
ATOM      8  C   UNL     1      -0.006  10.848  18.772  0.00  0.00    +0.000 A 
ATOM      9  C   UNL     1       0.529  12.228  19.005  0.00  0.00    +0.000 A 
ATOM     10  C   UNL     1       1.897  12.413  19.626  0.00  0.00    +0.000 C 
ATOM     11  N   UNL     1      -0.124  13.318  18.739  0.00  0.00    +0.000 NA
ATOM     12  N   UNL     1      -1.370  13.177  18.224  0.00  0.00    +0.000 N 
ATOM     13  C   UNL     1      -2.023  11.996  17.998  0.00  0.00    +0.000 A 
ATOM     14  O   UNL     1      -3.164  11.976  17.545  0.00  0.00    +0.000 OA
ATOM     15  C   UNL     1      -1.274  10.750  18.323  0.00  0.00    +0.000 A 
ATOM     16  C   UNL     1      -2.016   9.457  18.125  0.00  0.00    +0.000 C 
ATOM     17  H   UNL     1      -1.876  14.031  18.016  0.00  0.00    +0.000 HD
ENDBRANCH   7   8
BRANCH   4  18
ATOM     18  O   UNL     1       3.074   6.231  19.885  0.00  0.00    +0.000 OA
BRANCH  18  19
ATOM     19  C   UNL     1       2.934   5.128  19.064  0.00  0.00    +0.000 A 
ATOM     20  N   UNL     1       1.809   4.339  19.081  0.00  0.00    +0.000 NA
ATOM     21  C   UNL     1       1.715   3.236  18.253  0.00  0.00    +0.000 A 
ATOM     22  C   UNL     1       2.652   2.776  17.317  0.00  0.00    +0.000 A 
ATOM     23  C   UNL     1       3.781   3.601  17.270  0.00  0.00    +0.000 A 
ATOM     24  N   UNL     1       4.885   3.512  16.507  0.00  0.00    +0.000 NA
ATOM     25  N   UNL     1       5.642   4.567  16.871  0.00  0.00    +0.000 N 
ATOM     26  C   UNL     1       5.092   5.345  17.849  0.00  0.00    +0.000 A 
ATOM     27  C   UNL     1       3.895   4.747  18.128  0.00  0.00    +0.000 A 
ATOM     28  H   UNL     1       6.535   4.693  16.404  0.00  0.00    +0.000 HD
ENDBRANCH  18  19
ENDBRANCH   4  18
TORSDOF 3
ENDMDL
