MODEL 1
REMARK VINA RESULT:      -7.4      0.000      0.000
REMARK  Name = 
REMARK  5 active torsions:
REMARK  status: ('A' for Active; 'I' for Inactive)
REMARK    1  A    between atoms: C_1  and  C_2
REMARK    2  A    between atoms: C_2  and  O_3
REMARK    3  A    between atoms: O_3  and  C_4
REMARK    4  A    between atoms: C_4  and  C_6
REMARK    5  A    between atoms: N_10  and  O_11
REMARK                            x       y       z     vdW  Elec       q    Type
REMARK                         _______ _______ _______ _____ _____    ______ ____
ROOT
ATOM      1  C   UNL     1       5.799   4.796  16.498  0.00  0.00    +0.000 C 
ATOM      2  C   UNL     1       7.241   4.699  16.964  0.00  0.00    +0.000 C 
ATOM      3  C   UNL     1       6.285   5.587  17.702  0.00  0.00    +0.000 C 
ATOM      4  C   UNL     1       5.679   5.152  18.987  0.00  0.00    +0.000 C 
ATOM      5  N   UNL     1       6.330   5.029  20.101  0.00  0.00    +0.000 NA
ATOM      6  C   UNL     1       4.269   4.779  18.866  0.00  0.00    +0.000 A 
ATOM      7  C   UNL     1       3.314   5.118  19.814  0.00  0.00    +0.000 A 
ATOM      8  C   UNL     1       1.982   4.787  19.569  0.00  0.00    +0.000 A 
ATOM      9  C   UNL     1       1.627   4.106  18.397  0.00  0.00    +0.000 A 
ATOM     10  C   UNL     1       2.603   3.731  17.468  0.00  0.00    +0.000 A 
ATOM     11  C   UNL     1       3.925   4.081  17.702  0.00  0.00    +0.000 A 
ATOM     12  O   UNL     1       4.899   3.695  16.808  0.00  0.00    +0.000 OA
ENDROOT
BRANCH   1  13
ATOM     13  C   UNL     1       5.556   5.351  15.149  0.00  0.00    +0.000 C 
ATOM     14  O   UNL     1       5.501   6.553  14.928  0.00  0.00    +0.000 OA
BRANCH  13  15
ATOM     15  O   UNL     1       5.296   4.354  14.252  0.00  0.00    +0.000 OA
BRANCH  15  17
ATOM     16  C   UNL     1       5.908   3.228  12.183  0.00  0.00    +0.000 C 
ATOM     17  C   UNL     1       6.396   3.913  13.443  0.00  0.00    +0.000 C 
ENDBRANCH  15  17
ENDBRANCH  13  15
ENDBRANCH   1  13
BRANCH   5  18
ATOM     18  O   UNL     1       7.690   5.319  19.943  0.00  0.00    +0.000 OA
ATOM     19  H   UNL     1       7.706   6.290  20.049  0.00  0.00    +0.000 HD
ENDBRANCH   5  18
TORSDOF 4
ENDMDL
MODEL 2
REMARK VINA RESULT:      -7.3      2.057      2.640
REMARK  Name = 
REMARK  5 active torsions:
REMARK  status: ('A' for Active; 'I' for Inactive)
REMARK    1  A    between atoms: C_1  and  C_2
REMARK    2  A    between atoms: C_2  and  O_3
REMARK    3  A    between atoms: O_3  and  C_4
REMARK    4  A    between atoms: C_4  and  C_6
REMARK    5  A    between atoms: N_10  and  O_11
REMARK                            x       y       z     vdW  Elec       q    Type
REMARK                         _______ _______ _______ _____ _____    ______ ____
ROOT
ATOM      1  C   UNL     1       5.718   5.092  17.453  0.00  0.00    +0.000 C 
ATOM      2  C   UNL     1       5.858   6.594  17.628  0.00  0.00    +0.000 C 
ATOM      3  C   UNL     1       4.626   6.037  16.979  0.00  0.00    +0.000 C 
ATOM      4  C   UNL     1       3.356   5.912  17.741  0.00  0.00    +0.000 C 
ATOM      5  N   UNL     1       2.628   6.913  18.124  0.00  0.00    +0.000 NA
ATOM      6  C   UNL     1       3.034   4.532  18.107  0.00  0.00    +0.000 A 
ATOM      7  C   UNL     1       1.748   4.014  18.044  0.00  0.00    +0.000 A 
ATOM      8  C   UNL     1       1.556   2.665  18.337  0.00  0.00    +0.000 A 
ATOM      9  C   UNL     1       2.641   1.860  18.708  0.00  0.00    +0.000 A 
ATOM     10  C   UNL     1       3.926   2.402  18.811  0.00  0.00    +0.000 A 
ATOM     11  C   UNL     1       4.120   3.740  18.497  0.00  0.00    +0.000 A 
ATOM     12  O   UNL     1       5.376   4.292  18.620  0.00  0.00    +0.000 OA
ENDROOT
BRANCH   1  13
ATOM     13  C   UNL     1       6.702   4.413  16.581  0.00  0.00    +0.000 C 
ATOM     14  O   UNL     1       7.904   4.420  16.808  0.00  0.00    +0.000 OA
BRANCH  13  15
ATOM     15  O   UNL     1       6.095   3.901  15.470  0.00  0.00    +0.000 OA
BRANCH  15  17
ATOM     16  C   UNL     1       5.947   3.606  13.058  0.00  0.00    +0.000 C 
ATOM     17  C   UNL     1       6.546   4.398  14.202  0.00  0.00    +0.000 C 
ENDBRANCH  15  17
ENDBRANCH  13  15
ENDBRANCH   1  13
BRANCH   5  18
ATOM     18  O   UNL     1       3.202   8.139  17.768  0.00  0.00    +0.000 OA
ATOM     19  H   UNL     1       2.902   8.723  18.491  0.00  0.00    +0.000 HD
ENDBRANCH   5  18
TORSDOF 4
ENDMDL
MODEL 3
REMARK VINA RESULT:      -7.0      2.517      4.521
REMARK  Name = 
REMARK  5 active torsions:
REMARK  status: ('A' for Active; 'I' for Inactive)
REMARK    1  A    between atoms: C_1  and  C_2
REMARK    2  A    between atoms: C_2  and  O_3
REMARK    3  A    between atoms: O_3  and  C_4
REMARK    4  A    between atoms: C_4  and  C_6
REMARK    5  A    between atoms: N_10  and  O_11
REMARK                            x       y       z     vdW  Elec       q    Type
REMARK                         _______ _______ _______ _____ _____    ______ ____
ROOT
ATOM      1  C   UNL     1       4.104   3.899  17.858  0.00  0.00    +0.000 C 
ATOM      2  C   UNL     1       5.401   3.667  17.104  0.00  0.00    +0.000 C 
ATOM      3  C   UNL     1       4.405   4.656  16.575  0.00  0.00    +0.000 C 
ATOM      4  C   UNL     1       4.603   6.115  16.774  0.00  0.00    +0.000 C 
ATOM      5  N   UNL     1       5.522   6.818  16.189  0.00  0.00    +0.000 NA
ATOM      6  C   UNL     1       3.707   6.689  17.779  0.00  0.00    +0.000 A 
ATOM      7  C   UNL     1       3.093   7.923  17.626  0.00  0.00    +0.000 A 
ATOM      8  C   UNL     1       2.194   8.348  18.602  0.00  0.00    +0.000 A 
ATOM      9  C   UNL     1       1.937   7.548  19.724  0.00  0.00    +0.000 A 
ATOM     10  C   UNL     1       2.595   6.325  19.890  0.00  0.00    +0.000 A 
ATOM     11  C   UNL     1       3.473   5.893  18.906  0.00  0.00    +0.000 A 
ATOM     12  O   UNL     1       4.146   4.703  19.071  0.00  0.00    +0.000 OA
ENDROOT
BRANCH   1  13
ATOM     13  C   UNL     1       3.173   2.756  17.980  0.00  0.00    +0.000 C 
ATOM     14  O   UNL     1       3.553   1.595  18.028  0.00  0.00    +0.000 OA
BRANCH  13  15
ATOM     15  O   UNL     1       1.875   3.176  17.915  0.00  0.00    +0.000 OA
BRANCH  15  17
ATOM     16  C   UNL     1       0.957   3.121  20.169  0.00  0.00    +0.000 C 
ATOM     17  C   UNL     1       0.939   2.516  18.779  0.00  0.00    +0.000 C 
ENDBRANCH  15  17
ENDBRANCH  13  15
ENDBRANCH   1  13
BRANCH   5  18
ATOM     18  O   UNL     1       6.338   6.029  15.371  0.00  0.00    +0.000 OA
ATOM     19  H   UNL     1       6.213   6.445  14.496  0.00  0.00    +0.000 HD
ENDBRANCH   5  18
TORSDOF 4
ENDMDL
MODEL 4
REMARK VINA RESULT:      -7.0      3.127      4.608
REMARK  Name = 
REMARK  5 active torsions:
REMARK  status: ('A' for Active; 'I' for Inactive)
REMARK    1  A    between atoms: C_1  and  C_2
REMARK    2  A    between atoms: C_2  and  O_3
REMARK    3  A    between atoms: O_3  and  C_4
REMARK    4  A    between atoms: C_4  and  C_6
REMARK    5  A    between atoms: N_10  and  O_11
REMARK                            x       y       z     vdW  Elec       q    Type
REMARK                         _______ _______ _______ _____ _____    ______ ____
ROOT
ATOM      1  C   UNL     1       3.069   6.136  18.534  0.00  0.00    +0.000 C 
ATOM      2  C   UNL     1       4.259   6.177  17.592  0.00  0.00    +0.000 C 
ATOM      3  C   UNL     1       4.445   5.688  18.997  0.00  0.00    +0.000 C 
ATOM      4  C   UNL     1       4.533   4.234  19.291  0.00  0.00    +0.000 C 
ATOM      5  N   UNL     1       5.532   3.477  18.959  0.00  0.00    +0.000 NA
ATOM      6  C   UNL     1       3.328   3.698  19.925  0.00  0.00    +0.000 A 
ATOM      7  C   UNL     1       3.366   2.775  20.960  0.00  0.00    +0.000 A 
ATOM      8  C   UNL     1       2.166   2.384  21.552  0.00  0.00    +0.000 A 
ATOM      9  C   UNL     1       0.948   2.902  21.090  0.00  0.00    +0.000 A 
ATOM     10  C   UNL     1       0.918   3.797  20.017  0.00  0.00    +0.000 A 
ATOM     11  C   UNL     1       2.115   4.203  19.444  0.00  0.00    +0.000 A 
ATOM     12  O   UNL     1       2.096   5.065  18.369  0.00  0.00    +0.000 OA
ENDROOT
BRANCH   1  13
ATOM     13  C   UNL     1       2.426   7.424  18.876  0.00  0.00    +0.000 C 
ATOM     14  O   UNL     1       2.127   7.731  20.022  0.00  0.00    +0.000 OA
BRANCH  13  15
ATOM     15  O   UNL     1       2.125   8.133  17.748  0.00  0.00    +0.000 OA
BRANCH  15  17
ATOM     16  C   UNL     1       0.433   9.856  18.052  0.00  0.00    +0.000 C 
ATOM     17  C   UNL     1       1.909   9.541  17.911  0.00  0.00    +0.000 C 
ENDBRANCH  15  17
ENDBRANCH  13  15
ENDBRANCH   1  13
BRANCH   5  18
ATOM     18  O   UNL     1       6.508   4.186  18.252  0.00  0.00    +0.000 OA
ATOM     19  H   UNL     1       6.216   4.070  17.327  0.00  0.00    +0.000 HD
ENDBRANCH   5  18
TORSDOF 4
ENDMDL
MODEL 5
REMARK VINA RESULT:      -7.0      2.889      4.818
REMARK  Name = 
REMARK  5 active torsions:
REMARK  status: ('A' for Active; 'I' for Inactive)
REMARK    1  A    between atoms: C_1  and  C_2
REMARK    2  A    between atoms: C_2  and  O_3
REMARK    3  A    between atoms: O_3  and  C_4
REMARK    4  A    between atoms: C_4  and  C_6
REMARK    5  A    between atoms: N_10  and  O_11
REMARK                            x       y       z     vdW  Elec       q    Type
REMARK                         _______ _______ _______ _____ _____    ______ ____
ROOT
ATOM      1  C   UNL     1       3.195   6.138  18.275  0.00  0.00    +0.000 C 
ATOM      2  C   UNL     1       4.433   6.116  17.396  0.00  0.00    +0.000 C 
ATOM      3  C   UNL     1       4.542   5.712  18.836  0.00  0.00    +0.000 C 
ATOM      4  C   UNL     1       4.603   4.278  19.220  0.00  0.00    +0.000 C 
ATOM      5  N   UNL     1       5.611   3.497  18.987  0.00  0.00    +0.000 NA
ATOM      6  C   UNL     1       3.361   3.786  19.821  0.00  0.00    +0.000 A 
ATOM      7  C   UNL     1       3.338   2.927  20.910  0.00  0.00    +0.000 A 
ATOM      8  C   UNL     1       2.105   2.578  21.459  0.00  0.00    +0.000 A 
ATOM      9  C   UNL     1       0.918   3.073  20.903  0.00  0.00    +0.000 A 
ATOM     10  C   UNL     1       0.951   3.903  19.779  0.00  0.00    +0.000 A 
ATOM     11  C   UNL     1       2.179   4.268  19.246  0.00  0.00    +0.000 A 
ATOM     12  O   UNL     1       2.224   5.064  18.123  0.00  0.00    +0.000 OA
ENDROOT
BRANCH   1  13
ATOM     13  C   UNL     1       2.546   7.447  18.505  0.00  0.00    +0.000 C 
ATOM     14  O   UNL     1       2.493   8.319  17.650  0.00  0.00    +0.000 OA
BRANCH  13  15
ATOM     15  O   UNL     1       2.137   7.566  19.804  0.00  0.00    +0.000 OA
BRANCH  15  17
ATOM     16  C   UNL     1       0.716   8.576  21.502  0.00  0.00    +0.000 C 
ATOM     17  C   UNL     1       1.330   8.707  20.123  0.00  0.00    +0.000 C 
ENDBRANCH  15  17
ENDBRANCH  13  15
ENDBRANCH   1  13
BRANCH   5  18
ATOM     18  O   UNL     1       6.629   4.157  18.291  0.00  0.00    +0.000 OA
ATOM     19  H   UNL     1       6.685   3.636  17.467  0.00  0.00    +0.000 HD
ENDBRANCH   5  18
TORSDOF 4
ENDMDL
MODEL 6
REMARK VINA RESULT:      -6.9      3.076      6.060
REMARK  Name = 
REMARK  5 active torsions:
REMARK  status: ('A' for Active; 'I' for Inactive)
REMARK    1  A    between atoms: C_1  and  C_2
REMARK    2  A    between atoms: C_2  and  O_3
REMARK    3  A    between atoms: O_3  and  C_4
REMARK    4  A    between atoms: C_4  and  C_6
REMARK    5  A    between atoms: N_10  and  O_11
REMARK                            x       y       z     vdW  Elec       q    Type
REMARK                         _______ _______ _______ _____ _____    ______ ____
ROOT
ATOM      1  C   UNL     1       2.636   5.558  19.460  0.00  0.00    +0.000 C 
ATOM      2  C   UNL     1       1.778   4.457  20.058  0.00  0.00    +0.000 C 
ATOM      3  C   UNL     1       1.971   4.519  18.573  0.00  0.00    +0.000 C 
ATOM      4  C   UNL     1       2.931   3.611  17.892  0.00  0.00    +0.000 C 
ATOM      5  N   UNL     1       2.763   2.333  17.757  0.00  0.00    +0.000 NA
ATOM      6  C   UNL     1       4.154   4.285  17.454  0.00  0.00    +0.000 A 
ATOM      7  C   UNL     1       4.764   4.026  16.235  0.00  0.00    +0.000 A 
ATOM      8  C   UNL     1       5.881   4.778  15.874  0.00  0.00    +0.000 A 
ATOM      9  C   UNL     1       6.384   5.758  16.740  0.00  0.00    +0.000 A 
ATOM     10  C   UNL     1       5.789   5.980  17.986  0.00  0.00    +0.000 A 
ATOM     11  C   UNL     1       4.663   5.247  18.334  0.00  0.00    +0.000 A 
ATOM     12  O   UNL     1       4.083   5.439  19.569  0.00  0.00    +0.000 OA
ENDROOT
BRANCH   1  13
ATOM     13  C   UNL     1       2.177   6.953  19.639  0.00  0.00    +0.000 C 
ATOM     14  O   UNL     1       2.456   7.847  18.852  0.00  0.00    +0.000 OA
BRANCH  13  15
ATOM     15  O   UNL     1       1.522   7.101  20.828  0.00  0.00    +0.000 OA
BRANCH  15  17
ATOM     16  C   UNL     1      -0.205   8.618  21.628  0.00  0.00    +0.000 C 
ATOM     17  C   UNL     1       1.252   8.445  21.252  0.00  0.00    +0.000 C 
ENDBRANCH  15  17
ENDBRANCH  13  15
ENDBRANCH   1  13
BRANCH   5  18
ATOM     18  O   UNL     1       1.581   1.897  18.366  0.00  0.00    +0.000 OA
ATOM     19  H   UNL     1       1.210   1.301  17.687  0.00  0.00    +0.000 HD
ENDBRANCH   5  18
TORSDOF 4
ENDMDL
MODEL 7
REMARK VINA RESULT:      -6.8      2.320      3.556
REMARK  Name = 
REMARK  5 active torsions:
REMARK  status: ('A' for Active; 'I' for Inactive)
REMARK    1  A    between atoms: C_1  and  C_2
REMARK    2  A    between atoms: C_2  and  O_3
REMARK    3  A    between atoms: O_3  and  C_4
REMARK    4  A    between atoms: C_4  and  C_6
REMARK    5  A    between atoms: N_10  and  O_11
REMARK                            x       y       z     vdW  Elec       q    Type
REMARK                         _______ _______ _______ _____ _____    ______ ____
ROOT
ATOM      1  C   UNL     1       4.286   4.153  17.779  0.00  0.00    +0.000 C 
ATOM      2  C   UNL     1       3.918   2.764  17.288  0.00  0.00    +0.000 C 
ATOM      3  C   UNL     1       3.688   3.125  18.725  0.00  0.00    +0.000 C 
ATOM      4  C   UNL     1       2.330   3.480  19.213  0.00  0.00    +0.000 C 
ATOM      5  N   UNL     1       1.349   2.641  19.329  0.00  0.00    +0.000 NA
ATOM      6  C   UNL     1       2.164   4.911  19.473  0.00  0.00    +0.000 A 
ATOM      7  C   UNL     1       1.472   5.404  20.569  0.00  0.00    +0.000 A 
ATOM      8  C   UNL     1       1.437   6.782  20.774  0.00  0.00    +0.000 A 
ATOM      9  C   UNL     1       2.072   7.647  19.872  0.00  0.00    +0.000 A 
ATOM     10  C   UNL     1       2.730   7.142  18.746  0.00  0.00    +0.000 A 
ATOM     11  C   UNL     1       2.784   5.769  18.556  0.00  0.00    +0.000 A 
ATOM     12  O   UNL     1       3.406   5.261  17.437  0.00  0.00    +0.000 OA
ENDROOT
BRANCH   1  13
ATOM     13  C   UNL     1       5.713   4.539  17.724  0.00  0.00    +0.000 C 
ATOM     14  O   UNL     1       6.476   4.391  18.669  0.00  0.00    +0.000 OA
BRANCH  13  15
ATOM     15  O   UNL     1       6.003   5.166  16.545  0.00  0.00    +0.000 OA
BRANCH  15  17
ATOM     16  C   UNL     1       6.037   4.093  14.360  0.00  0.00    +0.000 C 
ATOM     17  C   UNL     1       6.816   4.440  15.613  0.00  0.00    +0.000 C 
ENDBRANCH  15  17
ENDBRANCH  13  15
ENDBRANCH   1  13
BRANCH   5  18
ATOM     18  O   UNL     1       1.709   1.358  18.902  0.00  0.00    +0.000 OA
ATOM     19  H   UNL     1       1.916   1.507  17.959  0.00  0.00    +0.000 HD
ENDBRANCH   5  18
TORSDOF 4
ENDMDL
MODEL 8
REMARK VINA RESULT:      -6.8      2.996      5.444
REMARK  Name = 
REMARK  5 active torsions:
REMARK  status: ('A' for Active; 'I' for Inactive)
REMARK    1  A    between atoms: C_1  and  C_2
REMARK    2  A    between atoms: C_2  and  O_3
REMARK    3  A    between atoms: O_3  and  C_4
REMARK    4  A    between atoms: C_4  and  C_6
REMARK    5  A    between atoms: N_10  and  O_11
REMARK                            x       y       z     vdW  Elec       q    Type
REMARK                         _______ _______ _______ _____ _____    ______ ____
ROOT
ATOM      1  C   UNL     1       2.864   5.496  19.398  0.00  0.00    +0.000 C 
ATOM      2  C   UNL     1       1.935   4.427  19.948  0.00  0.00    +0.000 C 
ATOM      3  C   UNL     1       2.206   4.485  18.474  0.00  0.00    +0.000 C 
ATOM      4  C   UNL     1       3.164   3.543  17.839  0.00  0.00    +0.000 C 
ATOM      5  N   UNL     1       2.955   2.273  17.690  0.00  0.00    +0.000 NA
ATOM      6  C   UNL     1       4.432   4.172  17.466  0.00  0.00    +0.000 A 
ATOM      7  C   UNL     1       5.092   3.893  16.278  0.00  0.00    +0.000 A 
ATOM      8  C   UNL     1       6.254   4.603  15.977  0.00  0.00    +0.000 A 
ATOM      9  C   UNL     1       6.749   5.561  16.872  0.00  0.00    +0.000 A 
ATOM     10  C   UNL     1       6.100   5.803  18.086  0.00  0.00    +0.000 A 
ATOM     11  C   UNL     1       4.931   5.112  18.375  0.00  0.00    +0.000 A 
ATOM     12  O   UNL     1       4.297   5.322  19.580  0.00  0.00    +0.000 OA
ENDROOT
BRANCH   1  13
ATOM     13  C   UNL     1       2.449   6.907  19.560  0.00  0.00    +0.000 C 
ATOM     14  O   UNL     1       1.720   7.283  20.467  0.00  0.00    +0.000 OA
BRANCH  13  15
ATOM     15  O   UNL     1       2.893   7.667  18.515  0.00  0.00    +0.000 OA
BRANCH  15  17
ATOM     16  C   UNL     1       1.917   9.834  17.987  0.00  0.00    +0.000 C 
ATOM     17  C   UNL     1       1.893   8.340  17.737  0.00  0.00    +0.000 C 
ENDBRANCH  15  17
ENDBRANCH  13  15
ENDBRANCH   1  13
BRANCH   5  18
ATOM     18  O   UNL     1       1.729   1.880  18.237  0.00  0.00    +0.000 OA
ATOM     19  H   UNL     1       1.955   1.752  19.178  0.00  0.00    +0.000 HD
ENDBRANCH   5  18
TORSDOF 4
ENDMDL
MODEL 9
REMARK VINA RESULT:      -6.8      2.224      3.583
REMARK  Name = 
REMARK  5 active torsions:
REMARK  status: ('A' for Active; 'I' for Inactive)
REMARK    1  A    between atoms: C_1  and  C_2
REMARK    2  A    between atoms: C_2  and  O_3
REMARK    3  A    between atoms: O_3  and  C_4
REMARK    4  A    between atoms: C_4  and  C_6
REMARK    5  A    between atoms: N_10  and  O_11
REMARK                            x       y       z     vdW  Elec       q    Type
REMARK                         _______ _______ _______ _____ _____    ______ ____
ROOT
ATOM      1  C   UNL     1       5.437   5.181  16.735  0.00  0.00    +0.000 C 
ATOM      2  C   UNL     1       5.530   3.773  16.175  0.00  0.00    +0.000 C 
ATOM      3  C   UNL     1       5.315   3.970  17.646  0.00  0.00    +0.000 C 
ATOM      4  C   UNL     1       3.966   3.808  18.247  0.00  0.00    +0.000 C 
ATOM      5  N   UNL     1       3.349   2.674  18.370  0.00  0.00    +0.000 NA
ATOM      6  C   UNL     1       3.340   5.078  18.616  0.00  0.00    +0.000 A 
ATOM      7  C   UNL     1       2.619   5.251  19.788  0.00  0.00    +0.000 A 
ATOM      8  C   UNL     1       2.128   6.521  20.090  0.00  0.00    +0.000 A 
ATOM      9  C   UNL     1       2.345   7.590  19.209  0.00  0.00    +0.000 A 
ATOM     10  C   UNL     1       3.035   7.394  18.009  0.00  0.00    +0.000 A 
ATOM     11  C   UNL     1       3.543   6.135  17.722  0.00  0.00    +0.000 A 
ATOM     12  O   UNL     1       4.202   5.924  16.531  0.00  0.00    +0.000 OA
ENDROOT
BRANCH   1  13
ATOM     13  C   UNL     1       6.633   6.043  16.611  0.00  0.00    +0.000 C 
ATOM     14  O   UNL     1       7.482   5.876  15.747  0.00  0.00    +0.000 OA
BRANCH  13  15
ATOM     15  O   UNL     1       6.694   6.941  17.639  0.00  0.00    +0.000 OA
BRANCH  15  17
ATOM     16  C   UNL     1       7.988   5.768  19.335  0.00  0.00    +0.000 C 
ATOM     17  C   UNL     1       7.907   6.961  18.404  0.00  0.00    +0.000 C 
ENDBRANCH  15  17
ENDBRANCH  13  15
ENDBRANCH   1  13
BRANCH   5  18
ATOM     18  O   UNL     1       4.092   1.617  17.833  0.00  0.00    +0.000 OA
ATOM     19  H   UNL     1       3.859   0.879  18.429  0.00  0.00    +0.000 HD
ENDBRANCH   5  18
TORSDOF 4
ENDMDL
