MODEL 1
REMARK VINA RESULT:      -7.3      0.000      0.000
REMARK  Name = 
REMARK  3 active torsions:
REMARK  status: ('A' for Active; 'I' for Inactive)
REMARK    1  A    between atoms: C_4  and  C_5
REMARK    2  A    between atoms: C_11  and  O_12
REMARK    3  A    between atoms: N_13  and  C_14
REMARK                            x       y       z     vdW  Elec       q    Type
REMARK                         _______ _______ _______ _____ _____    ______ ____
ROOT
ATOM      1  O   UNL     1       2.385   6.955  17.883  0.00  0.00    +0.000 OA
ATOM      2  C   UNL     1       3.450   6.390  18.060  0.00  0.00    +0.000 C 
ATOM      3  N   UNL     1       4.645   6.929  17.597  0.00  0.00    +0.000 N 
ATOM      4  C   UNL     1       5.696   5.950  17.651  0.00  0.00    +0.000 C 
ATOM      5  C   UNL     1       5.168   4.974  18.734  0.00  0.00    +0.000 C 
ATOM      6  N   UNL     1       3.733   5.160  18.696  0.00  0.00    +0.000 N 
ATOM      7  H   UNL     1       4.617   7.714  16.961  0.00  0.00    +0.000 HD
ENDROOT
BRANCH   4   8
ATOM      8  C   UNL     1       5.942   5.332  16.281  0.00  0.00    +0.000 A 
ATOM      9  C   UNL     1       7.233   5.370  15.732  0.00  0.00    +0.000 A 
ATOM     10  C   UNL     1       7.494   4.804  14.482  0.00  0.00    +0.000 A 
ATOM     11  C   UNL     1       6.472   4.190  13.763  0.00  0.00    +0.000 A 
ATOM     12  C   UNL     1       5.187   4.133  14.295  0.00  0.00    +0.000 A 
ATOM     13  C   UNL     1       4.925   4.695  15.545  0.00  0.00    +0.000 A 
ENDBRANCH   4   8
BRANCH   6  14
ATOM     14  C   UNL     1       2.800   4.413  19.468  0.00  0.00    +0.000 A 
ATOM     15  C   UNL     1       2.883   4.371  20.866  0.00  0.00    +0.000 A 
ATOM     16  C   UNL     1       2.007   3.584  21.622  0.00  0.00    +0.000 A 
ATOM     17  C   UNL     1       1.024   2.830  20.992  0.00  0.00    +0.000 A 
ATOM     18  C   UNL     1       0.901   2.885  19.608  0.00  0.00    +0.000 A 
ATOM     19  C   UNL     1       1.776   3.676  18.855  0.00  0.00    +0.000 A 
ENDBRANCH   6  14
BRANCH   5  20
ATOM     20  O   UNL     1       5.519   3.620  18.514  0.00  0.00    +0.000 OA
ATOM     21  H   UNL     1       5.313   3.168  19.349  0.00  0.00    +0.000 HD
ENDBRANCH   5  20
TORSDOF 3
ENDMDL
MODEL 2
REMARK VINA RESULT:      -7.3      0.136      1.109
REMARK  Name = 
REMARK  3 active torsions:
REMARK  status: ('A' for Active; 'I' for Inactive)
REMARK    1  A    between atoms: C_4  and  C_5
REMARK    2  A    between atoms: C_11  and  O_12
REMARK    3  A    between atoms: N_13  and  C_14
REMARK                            x       y       z     vdW  Elec       q    Type
REMARK                         _______ _______ _______ _____ _____    ______ ____
ROOT
ATOM      1  O   UNL     1       2.291   6.751  17.935  0.00  0.00    +0.000 OA
ATOM      2  C   UNL     1       3.392   6.253  18.100  0.00  0.00    +0.000 C 
ATOM      3  N   UNL     1       4.546   6.864  17.622  0.00  0.00    +0.000 N 
ATOM      4  C   UNL     1       5.656   5.951  17.665  0.00  0.00    +0.000 C 
ATOM      5  C   UNL     1       5.201   4.947  18.755  0.00  0.00    +0.000 C 
ATOM      6  N   UNL     1       3.757   5.044  18.734  0.00  0.00    +0.000 N 
ATOM      7  H   UNL     1       4.462   7.644  16.986  0.00  0.00    +0.000 HD
ENDROOT
BRANCH   4   8
ATOM      8  C   UNL     1       5.923   5.346  16.294  0.00  0.00    +0.000 A 
ATOM      9  C   UNL     1       7.227   5.369  15.776  0.00  0.00    +0.000 A 
ATOM     10  C   UNL     1       7.508   4.815  14.524  0.00  0.00    +0.000 A 
ATOM     11  C   UNL     1       6.492   4.228  13.774  0.00  0.00    +0.000 A 
ATOM     12  C   UNL     1       5.195   4.187  14.274  0.00  0.00    +0.000 A 
ATOM     13  C   UNL     1       4.913   4.737  15.526  0.00  0.00    +0.000 A 
ENDBRANCH   4   8
BRANCH   6  14
ATOM     14  C   UNL     1       2.881   4.243  19.519  0.00  0.00    +0.000 A 
ATOM     15  C   UNL     1       1.894   3.447  18.923  0.00  0.00    +0.000 A 
ATOM     16  C   UNL     1       0.990   2.711  19.696  0.00  0.00    +0.000 A 
ATOM     17  C   UNL     1       1.062   2.750  21.083  0.00  0.00    +0.000 A 
ATOM     18  C   UNL     1       2.056   3.506  21.695  0.00  0.00    +0.000 A 
ATOM     19  C   UNL     1       2.962   4.238  20.919  0.00  0.00    +0.000 A 
ENDBRANCH   6  14
BRANCH   5  20
ATOM     20  O   UNL     1       5.632   3.616  18.534  0.00  0.00    +0.000 OA
ATOM     21  H   UNL     1       6.305   3.683  17.837  0.00  0.00    +0.000 HD
ENDBRANCH   5  20
TORSDOF 3
ENDMDL
MODEL 3
REMARK VINA RESULT:      -7.2      0.167      1.118
REMARK  Name = 
REMARK  3 active torsions:
REMARK  status: ('A' for Active; 'I' for Inactive)
REMARK    1  A    between atoms: C_4  and  C_5
REMARK    2  A    between atoms: C_11  and  O_12
REMARK    3  A    between atoms: N_13  and  C_14
REMARK                            x       y       z     vdW  Elec       q    Type
REMARK                         _______ _______ _______ _____ _____    ______ ____
ROOT
ATOM      1  O   UNL     1       2.269   6.773  17.821  0.00  0.00    +0.000 OA
ATOM      2  C   UNL     1       3.360   6.267  18.022  0.00  0.00    +0.000 C 
ATOM      3  N   UNL     1       4.533   6.863  17.571  0.00  0.00    +0.000 N 
ATOM      4  C   UNL     1       5.632   5.941  17.654  0.00  0.00    +0.000 C 
ATOM      5  C   UNL     1       5.139   4.951  18.739  0.00  0.00    +0.000 C 
ATOM      6  N   UNL     1       3.696   5.061  18.677  0.00  0.00    +0.000 N 
ATOM      7  H   UNL     1       4.474   7.638  16.925  0.00  0.00    +0.000 HD
ENDROOT
BRANCH   4   8
ATOM      8  C   UNL     1       5.932   5.321  16.296  0.00  0.00    +0.000 A 
ATOM      9  C   UNL     1       4.887   4.741  15.560  0.00  0.00    +0.000 A 
ATOM     10  C   UNL     1       5.127   4.172  14.306  0.00  0.00    +0.000 A 
ATOM     11  C   UNL     1       6.411   4.177  13.768  0.00  0.00    +0.000 A 
ATOM     12  C   UNL     1       7.458   4.756  14.478  0.00  0.00    +0.000 A 
ATOM     13  C   UNL     1       7.221   5.328  15.729  0.00  0.00    +0.000 A 
ENDBRANCH   4   8
BRANCH   6  14
ATOM     14  C   UNL     1       2.791   4.275  19.443  0.00  0.00    +0.000 A 
ATOM     15  C   UNL     1       2.740   4.380  20.839  0.00  0.00    +0.000 A 
ATOM     16  C   UNL     1       1.898   3.560  21.599  0.00  0.00    +0.000 A 
ATOM     17  C   UNL     1       1.083   2.624  20.974  0.00  0.00    +0.000 A 
ATOM     18  C   UNL     1       1.092   2.528  19.586  0.00  0.00    +0.000 A 
ATOM     19  C   UNL     1       1.933   3.351  18.829  0.00  0.00    +0.000 A 
ENDBRANCH   6  14
BRANCH   5  20
ATOM     20  O   UNL     1       5.563   3.615  18.542  0.00  0.00    +0.000 OA
ATOM     21  H   UNL     1       4.744   3.100  18.463  0.00  0.00    +0.000 HD
ENDBRANCH   5  20
TORSDOF 3
ENDMDL
MODEL 4
REMARK VINA RESULT:      -7.2      0.114      1.565
REMARK  Name = 
REMARK  3 active torsions:
REMARK  status: ('A' for Active; 'I' for Inactive)
REMARK    1  A    between atoms: C_4  and  C_5
REMARK    2  A    between atoms: C_11  and  O_12
REMARK    3  A    between atoms: N_13  and  C_14
REMARK                            x       y       z     vdW  Elec       q    Type
REMARK                         _______ _______ _______ _____ _____    ______ ____
ROOT
ATOM      1  O   UNL     1       2.311   6.746  17.818  0.00  0.00    +0.000 OA
ATOM      2  C   UNL     1       3.410   6.253  18.012  0.00  0.00    +0.000 C 
ATOM      3  N   UNL     1       4.571   6.858  17.544  0.00  0.00    +0.000 N 
ATOM      4  C   UNL     1       5.681   5.949  17.624  0.00  0.00    +0.000 C 
ATOM      5  C   UNL     1       5.210   4.964  18.724  0.00  0.00    +0.000 C 
ATOM      6  N   UNL     1       3.766   5.057  18.675  0.00  0.00    +0.000 N 
ATOM      7  H   UNL     1       4.497   7.626  16.892  0.00  0.00    +0.000 HD
ENDROOT
BRANCH   4   8
ATOM      8  C   UNL     1       5.974   5.320  16.269  0.00  0.00    +0.000 A 
ATOM      9  C   UNL     1       4.939   4.678  15.571  0.00  0.00    +0.000 A 
ATOM     10  C   UNL     1       5.172   4.099  14.321  0.00  0.00    +0.000 A 
ATOM     11  C   UNL     1       6.440   4.155  13.749  0.00  0.00    +0.000 A 
ATOM     12  C   UNL     1       7.477   4.795  14.419  0.00  0.00    +0.000 A 
ATOM     13  C   UNL     1       7.245   5.377  15.667  0.00  0.00    +0.000 A 
ENDBRANCH   4   8
BRANCH   6  14
ATOM     14  C   UNL     1       2.877   4.269  19.458  0.00  0.00    +0.000 A 
ATOM     15  C   UNL     1       1.867   3.502  18.862  0.00  0.00    +0.000 A 
ATOM     16  C   UNL     1       0.952   2.780  19.634  0.00  0.00    +0.000 A 
ATOM     17  C   UNL     1       1.035   2.803  21.021  0.00  0.00    +0.000 A 
ATOM     18  C   UNL     1       2.052   3.528  21.633  0.00  0.00    +0.000 A 
ATOM     19  C   UNL     1       2.969   4.247  20.857  0.00  0.00    +0.000 A 
ENDBRANCH   6  14
BRANCH   5  20
ATOM     20  O   UNL     1       5.647   3.631  18.535  0.00  0.00    +0.000 OA
ATOM     21  H   UNL     1       6.616   3.686  18.503  0.00  0.00    +0.000 HD
ENDBRANCH   5  20
TORSDOF 3
ENDMDL
MODEL 5
REMARK VINA RESULT:      -7.1      1.790      6.230
REMARK  Name = 
REMARK  3 active torsions:
REMARK  status: ('A' for Active; 'I' for Inactive)
REMARK    1  A    between atoms: C_4  and  C_5
REMARK    2  A    between atoms: C_11  and  O_12
REMARK    3  A    between atoms: N_13  and  C_14
REMARK                            x       y       z     vdW  Elec       q    Type
REMARK                         _______ _______ _______ _____ _____    ______ ____
ROOT
ATOM      1  O   UNL     1       8.395   3.953  17.594  0.00  0.00    +0.000 OA
ATOM      2  C   UNL     1       7.410   4.670  17.623  0.00  0.00    +0.000 C 
ATOM      3  N   UNL     1       6.993   5.285  18.799  0.00  0.00    +0.000 N 
ATOM      4  C   UNL     1       5.664   5.811  18.650  0.00  0.00    +0.000 C 
ATOM      5  C   UNL     1       5.557   5.980  17.113  0.00  0.00    +0.000 C 
ATOM      6  N   UNL     1       6.508   5.020  16.593  0.00  0.00    +0.000 N 
ATOM      7  H   UNL     1       7.411   5.005  19.675  0.00  0.00    +0.000 HD
ENDROOT
BRANCH   4   8
ATOM      8  C   UNL     1       4.633   4.882  19.276  0.00  0.00    +0.000 A 
ATOM      9  C   UNL     1       3.470   5.429  19.841  0.00  0.00    +0.000 A 
ATOM     10  C   UNL     1       2.499   4.604  20.416  0.00  0.00    +0.000 A 
ATOM     11  C   UNL     1       2.675   3.223  20.432  0.00  0.00    +0.000 A 
ATOM     12  C   UNL     1       3.816   2.661  19.869  0.00  0.00    +0.000 A 
ATOM     13  C   UNL     1       4.785   3.483  19.291  0.00  0.00    +0.000 A 
ENDBRANCH   4   8
BRANCH   6  14
ATOM     14  C   UNL     1       6.712   4.750  15.211  0.00  0.00    +0.000 A 
ATOM     15  C   UNL     1       7.667   5.455  14.466  0.00  0.00    +0.000 A 
ATOM     16  C   UNL     1       7.821   5.237  13.092  0.00  0.00    +0.000 A 
ATOM     17  C   UNL     1       7.028   4.302  12.439  0.00  0.00    +0.000 A 
ATOM     18  C   UNL     1       6.099   3.566  13.167  0.00  0.00    +0.000 A 
ATOM     19  C   UNL     1       5.949   3.783  14.541  0.00  0.00    +0.000 A 
ENDBRANCH   6  14
BRANCH   5  20
ATOM     20  O   UNL     1       4.259   5.753  16.593  0.00  0.00    +0.000 OA
ATOM     21  H   UNL     1       4.396   5.550  15.654  0.00  0.00    +0.000 HD
ENDBRANCH   5  20
TORSDOF 3
ENDMDL
MODEL 6
REMARK VINA RESULT:      -7.1      1.277      1.591
REMARK  Name = 
REMARK  3 active torsions:
REMARK  status: ('A' for Active; 'I' for Inactive)
REMARK    1  A    between atoms: C_4  and  C_5
REMARK    2  A    between atoms: C_11  and  O_12
REMARK    3  A    between atoms: N_13  and  C_14
REMARK                            x       y       z     vdW  Elec       q    Type
REMARK                         _______ _______ _______ _____ _____    ______ ____
ROOT
ATOM      1  O   UNL     1       3.826   7.576  16.838  0.00  0.00    +0.000 OA
ATOM      2  C   UNL     1       4.625   6.656  16.896  0.00  0.00    +0.000 C 
ATOM      3  N   UNL     1       5.906   6.771  16.367  0.00  0.00    +0.000 N 
ATOM      4  C   UNL     1       6.534   5.481  16.281  0.00  0.00    +0.000 C 
ATOM      5  C   UNL     1       5.753   4.674  17.348  0.00  0.00    +0.000 C 
ATOM      6  N   UNL     1       4.481   5.360  17.438  0.00  0.00    +0.000 N 
ATOM      7  H   UNL     1       6.126   7.563  15.779  0.00  0.00    +0.000 HD
ENDROOT
BRANCH   4   8
ATOM      8  C   UNL     1       6.463   4.929  14.864  0.00  0.00    +0.000 A 
ATOM      9  C   UNL     1       7.528   5.165  13.981  0.00  0.00    +0.000 A 
ATOM     10  C   UNL     1       7.498   4.664  12.677  0.00  0.00    +0.000 A 
ATOM     11  C   UNL     1       6.407   3.918  12.237  0.00  0.00    +0.000 A 
ATOM     12  C   UNL     1       5.346   3.665  13.101  0.00  0.00    +0.000 A 
ATOM     13  C   UNL     1       5.376   4.162  14.405  0.00  0.00    +0.000 A 
ENDBRANCH   4   8
BRANCH   6  14
ATOM     14  C   UNL     1       3.387   4.934  18.242  0.00  0.00    +0.000 A 
ATOM     15  C   UNL     1       3.334   5.225  19.612  0.00  0.00    +0.000 A 
ATOM     16  C   UNL     1       2.293   4.750  20.416  0.00  0.00    +0.000 A 
ATOM     17  C   UNL     1       1.278   3.980  19.862  0.00  0.00    +0.000 A 
ATOM     18  C   UNL     1       1.291   3.709  18.498  0.00  0.00    +0.000 A 
ATOM     19  C   UNL     1       2.332   4.189  17.696  0.00  0.00    +0.000 A 
ENDBRANCH   6  14
BRANCH   5  20
ATOM     20  O   UNL     1       5.579   3.305  17.028  0.00  0.00    +0.000 OA
ATOM     21  H   UNL     1       5.784   3.241  16.081  0.00  0.00    +0.000 HD
ENDBRANCH   5  20
TORSDOF 3
ENDMDL
MODEL 7
REMARK VINA RESULT:      -7.1      1.263      1.888
REMARK  Name = 
REMARK  3 active torsions:
REMARK  status: ('A' for Active; 'I' for Inactive)
REMARK    1  A    between atoms: C_4  and  C_5
REMARK    2  A    between atoms: C_11  and  O_12
REMARK    3  A    between atoms: N_13  and  C_14
REMARK                            x       y       z     vdW  Elec       q    Type
REMARK                         _______ _______ _______ _____ _____    ______ ____
ROOT
ATOM      1  O   UNL     1       3.745   7.560  16.880  0.00  0.00    +0.000 OA
ATOM      2  C   UNL     1       4.583   6.677  16.941  0.00  0.00    +0.000 C 
ATOM      3  N   UNL     1       5.846   6.832  16.380  0.00  0.00    +0.000 N 
ATOM      4  C   UNL     1       6.527   5.568  16.309  0.00  0.00    +0.000 C 
ATOM      5  C   UNL     1       5.803   4.754  17.412  0.00  0.00    +0.000 C 
ATOM      6  N   UNL     1       4.506   5.388  17.515  0.00  0.00    +0.000 N 
ATOM      7  H   UNL     1       6.020   7.619  15.769  0.00  0.00    +0.000 HD
ENDROOT
BRANCH   4   8
ATOM      8  C   UNL     1       6.447   4.980  14.907  0.00  0.00    +0.000 A 
ATOM      9  C   UNL     1       7.512   5.184  14.015  0.00  0.00    +0.000 A 
ATOM     10  C   UNL     1       7.475   4.650  12.724  0.00  0.00    +0.000 A 
ATOM     11  C   UNL     1       6.376   3.902  12.307  0.00  0.00    +0.000 A 
ATOM     12  C   UNL     1       5.316   3.680  13.179  0.00  0.00    +0.000 A 
ATOM     13  C   UNL     1       5.353   4.210  14.470  0.00  0.00    +0.000 A 
ENDBRANCH   4   8
BRANCH   6  14
ATOM     14  C   UNL     1       3.450   4.936  18.354  0.00  0.00    +0.000 A 
ATOM     15  C   UNL     1       2.390   4.176  17.842  0.00  0.00    +0.000 A 
ATOM     16  C   UNL     1       1.317   3.788  18.652  0.00  0.00    +0.000 A 
ATOM     17  C   UNL     1       1.289   4.147  19.994  0.00  0.00    +0.000 A 
ATOM     18  C   UNL     1       2.348   4.871  20.531  0.00  0.00    +0.000 A 
ATOM     19  C   UNL     1       3.421   5.254  19.720  0.00  0.00    +0.000 A 
ENDBRANCH   6  14
BRANCH   5  20
ATOM     20  O   UNL     1       5.681   3.372  17.126  0.00  0.00    +0.000 OA
ATOM     21  H   UNL     1       6.225   2.928  17.796  0.00  0.00    +0.000 HD
ENDBRANCH   5  20
TORSDOF 3
ENDMDL
MODEL 8
REMARK VINA RESULT:      -7.1      1.807      6.286
REMARK  Name = 
REMARK  3 active torsions:
REMARK  status: ('A' for Active; 'I' for Inactive)
REMARK    1  A    between atoms: C_4  and  C_5
REMARK    2  A    between atoms: C_11  and  O_12
REMARK    3  A    between atoms: N_13  and  C_14
REMARK                            x       y       z     vdW  Elec       q    Type
REMARK                         _______ _______ _______ _____ _____    ______ ____
ROOT
ATOM      1  O   UNL     1       8.386   4.036  17.357  0.00  0.00    +0.000 OA
ATOM      2  C   UNL     1       7.410   4.765  17.412  0.00  0.00    +0.000 C 
ATOM      3  N   UNL     1       7.043   5.399  18.594  0.00  0.00    +0.000 N 
ATOM      4  C   UNL     1       5.714   5.938  18.485  0.00  0.00    +0.000 C 
ATOM      5  C   UNL     1       5.555   6.089  16.951  0.00  0.00    +0.000 C 
ATOM      6  N   UNL     1       6.477   5.113  16.410  0.00  0.00    +0.000 N 
ATOM      7  H   UNL     1       7.488   5.125  19.458  0.00  0.00    +0.000 HD
ENDROOT
BRANCH   4   8
ATOM      8  C   UNL     1       4.696   5.029  19.159  0.00  0.00    +0.000 A 
ATOM      9  C   UNL     1       3.556   5.595  19.750  0.00  0.00    +0.000 A 
ATOM     10  C   UNL     1       2.597   4.788  20.369  0.00  0.00    +0.000 A 
ATOM     11  C   UNL     1       2.762   3.405  20.403  0.00  0.00    +0.000 A 
ATOM     12  C   UNL     1       3.880   2.825  19.814  0.00  0.00    +0.000 A 
ATOM     13  C   UNL     1       4.837   3.629  19.193  0.00  0.00    +0.000 A 
ENDBRANCH   4   8
BRANCH   6  14
ATOM     14  C   UNL     1       6.629   4.824  15.025  0.00  0.00    +0.000 A 
ATOM     15  C   UNL     1       5.835   3.859  14.392  0.00  0.00    +0.000 A 
ATOM     16  C   UNL     1       6.029   3.527  13.046  0.00  0.00    +0.000 A 
ATOM     17  C   UNL     1       7.017   4.163  12.305  0.00  0.00    +0.000 A 
ATOM     18  C   UNL     1       7.794   5.149  12.904  0.00  0.00    +0.000 A 
ATOM     19  C   UNL     1       7.595   5.482  14.249  0.00  0.00    +0.000 A 
ENDBRANCH   6  14
BRANCH   5  20
ATOM     20  O   UNL     1       4.238   5.871  16.480  0.00  0.00    +0.000 OA
ATOM     21  H   UNL     1       4.344   5.349  15.668  0.00  0.00    +0.000 HD
ENDBRANCH   5  20
TORSDOF 3
ENDMDL
MODEL 9
REMARK VINA RESULT:      -7.0      1.992      3.198
REMARK  Name = 
REMARK  3 active torsions:
REMARK  status: ('A' for Active; 'I' for Inactive)
REMARK    1  A    between atoms: C_4  and  C_5
REMARK    2  A    between atoms: C_11  and  O_12
REMARK    3  A    between atoms: N_13  and  C_14
REMARK                            x       y       z     vdW  Elec       q    Type
REMARK                         _______ _______ _______ _____ _____    ______ ____
ROOT
ATOM      1  O   UNL     1       4.449   2.438  17.276  0.00  0.00    +0.000 OA
ATOM      2  C   UNL     1       4.229   3.633  17.372  0.00  0.00    +0.000 C 
ATOM      3  N   UNL     1       4.720   4.540  16.438  0.00  0.00    +0.000 N 
ATOM      4  C   UNL     1       4.596   5.886  16.928  0.00  0.00    +0.000 C 
ATOM      5  C   UNL     1       3.455   5.743  17.968  0.00  0.00    +0.000 C 
ATOM      6  N   UNL     1       3.513   4.350  18.356  0.00  0.00    +0.000 N 
ATOM      7  H   UNL     1       5.406   4.230  15.765  0.00  0.00    +0.000 HD
ENDROOT
BRANCH   4   8
ATOM      8  C   UNL     1       5.921   6.393  17.481  0.00  0.00    +0.000 A 
ATOM      9  C   UNL     1       6.399   7.649  17.074  0.00  0.00    +0.000 A 
ATOM     10  C   UNL     1       7.606   8.148  17.569  0.00  0.00    +0.000 A 
ATOM     11  C   UNL     1       8.352   7.402  18.479  0.00  0.00    +0.000 A 
ATOM     12  C   UNL     1       7.890   6.160  18.902  0.00  0.00    +0.000 A 
ATOM     13  C   UNL     1       6.683   5.661  18.411  0.00  0.00    +0.000 A 
ENDBRANCH   4   8
BRANCH   6  14
ATOM     14  C   UNL     1       2.699   3.756  19.360  0.00  0.00    +0.000 A 
ATOM     15  C   UNL     1       1.304   3.713  19.234  0.00  0.00    +0.000 A 
ATOM     16  C   UNL     1       0.499   3.189  20.251  0.00  0.00    +0.000 A 
ATOM     17  C   UNL     1       1.075   2.688  21.412  0.00  0.00    +0.000 A 
ATOM     18  C   UNL     1       2.460   2.688  21.543  0.00  0.00    +0.000 A 
ATOM     19  C   UNL     1       3.263   3.209  20.522  0.00  0.00    +0.000 A 
ENDBRANCH   6  14
BRANCH   5  20
ATOM     20  O   UNL     1       3.583   6.598  19.090  0.00  0.00    +0.000 OA
ATOM     21  H   UNL     1       2.761   7.114  19.108  0.00  0.00    +0.000 HD
ENDBRANCH   5  20
TORSDOF 3
ENDMDL
