MODEL 1
REMARK VINA RESULT:      -6.5      0.000      0.000
REMARK  Name = 
REMARK  4 active torsions:
REMARK  status: ('A' for Active; 'I' for Inactive)
REMARK    1  A    between atoms: C_1  and  C_2
REMARK    2  A    between atoms: C_2  and  C_3
REMARK    3  A    between atoms: C_3  and  N_4
REMARK    4  A    between atoms: C_10  and  O_11
REMARK                            x       y       z     vdW  Elec       q    Type
REMARK                         _______ _______ _______ _____ _____    ______ ____
ROOT
ATOM      1  N   UNL     1       5.428   6.829  17.363  0.00  0.00    +0.000 NA
ATOM      2  C   UNL     1       6.689   6.258  17.862  0.00  0.00    +0.000 C 
ATOM      3  C   UNL     1       6.358   5.315  19.019  0.00  0.00    +0.000 C 
ATOM      4  C   UNL     1       4.847   5.434  19.262  0.00  0.00    +0.000 C 
ATOM      5  C   UNL     1       4.025   4.250  18.775  0.00  0.00    +0.000 A 
ATOM      6  C   UNL     1       4.453   2.933  19.032  0.00  0.00    +0.000 A 
ATOM      7  C   UNL     1       3.775   1.851  18.481  0.00  0.00    +0.000 A 
ATOM      8  C   UNL     1       2.648   2.038  17.700  0.00  0.00    +0.000 A 
ATOM      9  C   UNL     1       2.166   3.332  17.501  0.00  0.00    +0.000 A 
ATOM     10  C   UNL     1       2.826   4.441  18.052  0.00  0.00    +0.000 A 
ATOM     11  C   UNL     1       2.256   5.809  17.771  0.00  0.00    +0.000 C 
ATOM     12  C   UNL     1       3.019   6.971  18.396  0.00  0.00    +0.000 C 
ATOM     13  C   UNL     1       4.524   6.757  18.545  0.00  0.00    +0.000 C 
ENDROOT
BRANCH   7  14
ATOM     14  O   UNL     1       4.204   0.571  18.675  0.00  0.00    +0.000 OA
ATOM     15  H   UNL     1       4.635   0.518  19.544  0.00  0.00    +0.000 HD
ENDBRANCH   7  14
BRANCH   1  16
ATOM     16  C   UNL     1       4.933   6.151  16.156  0.00  0.00    +0.000 C 
BRANCH  16  18
ATOM     17  C   UNL     1       5.671   3.813  15.451  0.00  0.00    +0.000 C 
ATOM     18  C   UNL     1       5.936   5.303  15.361  0.00  0.00    +0.000 C 
ENDBRANCH  16  18
ENDBRANCH   1  16
TORSDOF 3
ENDMDL
MODEL 2
REMARK VINA RESULT:      -6.3      2.673      4.711
REMARK  Name = 
REMARK  4 active torsions:
REMARK  status: ('A' for Active; 'I' for Inactive)
REMARK    1  A    between atoms: C_1  and  C_2
REMARK    2  A    between atoms: C_2  and  C_3
REMARK    3  A    between atoms: C_3  and  N_4
REMARK    4  A    between atoms: C_10  and  O_11
REMARK                            x       y       z     vdW  Elec       q    Type
REMARK                         _______ _______ _______ _____ _____    ______ ____
ROOT
ATOM      1  N   UNL     1       1.471   2.870  20.116  0.00  0.00    +0.000 NA
ATOM      2  C   UNL     1       2.205   2.752  21.385  0.00  0.00    +0.000 C 
ATOM      3  C   UNL     1       3.676   2.486  21.060  0.00  0.00    +0.000 C 
ATOM      4  C   UNL     1       3.767   2.341  19.535  0.00  0.00    +0.000 C 
ATOM      5  C   UNL     1       4.383   3.530  18.813  0.00  0.00    +0.000 A 
ATOM      6  C   UNL     1       5.553   4.135  19.311  0.00  0.00    +0.000 A 
ATOM      7  C   UNL     1       6.048   5.298  18.730  0.00  0.00    +0.000 A 
ATOM      8  C   UNL     1       5.426   5.867  17.632  0.00  0.00    +0.000 A 
ATOM      9  C   UNL     1       4.312   5.235  17.080  0.00  0.00    +0.000 A 
ATOM     10  C   UNL     1       3.797   4.057  17.641  0.00  0.00    +0.000 A 
ATOM     11  C   UNL     1       2.574   3.449  16.999  0.00  0.00    +0.000 C 
ATOM     12  C   UNL     1       2.064   2.172  17.656  0.00  0.00    +0.000 C 
ATOM     13  C   UNL     1       2.297   2.076  19.163  0.00  0.00    +0.000 C 
ENDROOT
BRANCH   7  14
ATOM     14  O   UNL     1       7.149   5.929  19.230  0.00  0.00    +0.000 OA
ATOM     15  H   UNL     1       7.114   6.864  18.971  0.00  0.00    +0.000 HD
ENDBRANCH   7  14
BRANCH   1  16
ATOM     16  C   UNL     1       1.232   4.266  19.723  0.00  0.00    +0.000 C 
BRANCH  16  18
ATOM     17  C   UNL     1       2.288   6.578  19.948  0.00  0.00    +0.000 C 
ATOM     18  C   UNL     1       1.739   5.363  20.671  0.00  0.00    +0.000 C 
ENDBRANCH  16  18
ENDBRANCH   1  16
TORSDOF 3
ENDMDL
MODEL 3
REMARK VINA RESULT:      -6.3      2.535      4.729
REMARK  Name = 
REMARK  4 active torsions:
REMARK  status: ('A' for Active; 'I' for Inactive)
REMARK    1  A    between atoms: C_1  and  C_2
REMARK    2  A    between atoms: C_2  and  C_3
REMARK    3  A    between atoms: C_3  and  N_4
REMARK    4  A    between atoms: C_10  and  O_11
REMARK                            x       y       z     vdW  Elec       q    Type
REMARK                         _______ _______ _______ _____ _____    ______ ____
ROOT
ATOM      1  N   UNL     1       2.153   2.997  19.145  0.00  0.00    +0.000 NA
ATOM      2  C   UNL     1       2.779   1.726  18.747  0.00  0.00    +0.000 C 
ATOM      3  C   UNL     1       3.477   1.941  17.404  0.00  0.00    +0.000 C 
ATOM      4  C   UNL     1       3.145   3.372  16.962  0.00  0.00    +0.000 C 
ATOM      5  C   UNL     1       4.287   4.367  17.101  0.00  0.00    +0.000 A 
ATOM      6  C   UNL     1       5.586   4.021  16.679  0.00  0.00    +0.000 A 
ATOM      7  C   UNL     1       6.656   4.876  16.920  0.00  0.00    +0.000 A 
ATOM      8  C   UNL     1       6.468   6.097  17.544  0.00  0.00    +0.000 A 
ATOM      9  C   UNL     1       5.175   6.488  17.896  0.00  0.00    +0.000 A 
ATOM     10  C   UNL     1       4.077   5.649  17.657  0.00  0.00    +0.000 A 
ATOM     11  C   UNL     1       2.715   6.134  18.090  0.00  0.00    +0.000 C 
ATOM     12  C   UNL     1       1.565   5.175  17.804  0.00  0.00    +0.000 C 
ATOM     13  C   UNL     1       1.926   3.691  17.846  0.00  0.00    +0.000 C 
ENDROOT
BRANCH   7  14
ATOM     14  O   UNL     1       7.930   4.536  16.568  0.00  0.00    +0.000 OA
ATOM     15  H   UNL     1       8.134   3.667  16.949  0.00  0.00    +0.000 HD
ENDBRANCH   7  14
BRANCH   1  16
ATOM     16  C   UNL     1       2.954   3.746  20.123  0.00  0.00    +0.000 C 
BRANCH  16  18
ATOM     17  C   UNL     1       1.395   2.809  21.912  0.00  0.00    +0.000 C 
ATOM     18  C   UNL     1       2.377   3.901  21.538  0.00  0.00    +0.000 C 
ENDBRANCH  16  18
ENDBRANCH   1  16
TORSDOF 3
ENDMDL
MODEL 4
REMARK VINA RESULT:      -6.3      2.985      4.827
REMARK  Name = 
REMARK  4 active torsions:
REMARK  status: ('A' for Active; 'I' for Inactive)
REMARK    1  A    between atoms: C_1  and  C_2
REMARK    2  A    between atoms: C_2  and  C_3
REMARK    3  A    between atoms: C_3  and  N_4
REMARK    4  A    between atoms: C_10  and  O_11
REMARK                            x       y       z     vdW  Elec       q    Type
REMARK                         _______ _______ _______ _____ _____    ______ ____
ROOT
ATOM      1  N   UNL     1       3.372   2.139  19.055  0.00  0.00    +0.000 NA
ATOM      2  C   UNL     1       3.666   2.239  17.617  0.00  0.00    +0.000 C 
ATOM      3  C   UNL     1       2.637   3.177  16.987  0.00  0.00    +0.000 C 
ATOM      4  C   UNL     1       1.644   3.547  18.097  0.00  0.00    +0.000 C 
ATOM      5  C   UNL     1       1.793   4.958  18.646  0.00  0.00    +0.000 A 
ATOM      6  C   UNL     1       1.964   6.047  17.770  0.00  0.00    +0.000 A 
ATOM      7  C   UNL     1       2.228   7.319  18.268  0.00  0.00    +0.000 A 
ATOM      8  C   UNL     1       2.292   7.552  19.631  0.00  0.00    +0.000 A 
ATOM      9  C   UNL     1       2.046   6.498  20.512  0.00  0.00    +0.000 A 
ATOM     10  C   UNL     1       1.770   5.208  20.037  0.00  0.00    +0.000 A 
ATOM     11  C   UNL     1       1.539   4.118  21.054  0.00  0.00    +0.000 C 
ATOM     12  C   UNL     1       1.246   2.739  20.473  0.00  0.00    +0.000 C 
ATOM     13  C   UNL     1       1.915   2.441  19.132  0.00  0.00    +0.000 C 
ENDROOT
BRANCH   7  14
ATOM     14  O   UNL     1       2.450   8.376  17.435  0.00  0.00    +0.000 OA
ATOM     15  H   UNL     1       2.945   8.061  16.662  0.00  0.00    +0.000 HD
ENDBRANCH   7  14
BRANCH   1  16
ATOM     16  C   UNL     1       4.233   3.002  19.876  0.00  0.00    +0.000 C 
BRANCH  16  18
ATOM     17  C   UNL     1       5.317   5.252  19.353  0.00  0.00    +0.000 C 
ATOM     18  C   UNL     1       5.369   3.749  19.161  0.00  0.00    +0.000 C 
ENDBRANCH  16  18
ENDBRANCH   1  16
TORSDOF 3
ENDMDL
MODEL 5
REMARK VINA RESULT:      -6.3      2.502      4.763
REMARK  Name = 
REMARK  4 active torsions:
REMARK  status: ('A' for Active; 'I' for Inactive)
REMARK    1  A    between atoms: C_1  and  C_2
REMARK    2  A    between atoms: C_2  and  C_3
REMARK    3  A    between atoms: C_3  and  N_4
REMARK    4  A    between atoms: C_10  and  O_11
REMARK                            x       y       z     vdW  Elec       q    Type
REMARK                         _______ _______ _______ _____ _____    ______ ____
ROOT
ATOM      1  N   UNL     1       2.167   2.902  19.043  0.00  0.00    +0.000 NA
ATOM      2  C   UNL     1       2.326   2.011  17.883  0.00  0.00    +0.000 C 
ATOM      3  C   UNL     1       2.999   2.806  16.764  0.00  0.00    +0.000 C 
ATOM      4  C   UNL     1       3.133   4.248  17.271  0.00  0.00    +0.000 C 
ATOM      5  C   UNL     1       4.543   4.658  17.671  0.00  0.00    +0.000 A 
ATOM      6  C   UNL     1       5.638   4.332  16.849  0.00  0.00    +0.000 A 
ATOM      7  C   UNL     1       6.938   4.590  17.271  0.00  0.00    +0.000 A 
ATOM      8  C   UNL     1       7.185   5.204  18.486  0.00  0.00    +0.000 A 
ATOM      9  C   UNL     1       6.107   5.605  19.276  0.00  0.00    +0.000 A 
ATOM     10  C   UNL     1       4.786   5.363  18.871  0.00  0.00    +0.000 A 
ATOM     11  C   UNL     1       3.676   5.805  19.793  0.00  0.00    +0.000 C 
ATOM     12  C   UNL     1       2.265   5.512  19.296  0.00  0.00    +0.000 C 
ATOM     13  C   UNL     1       2.124   4.260  18.433  0.00  0.00    +0.000 C 
ENDROOT
BRANCH   7  14
ATOM     14  O   UNL     1       8.015   4.234  16.513  0.00  0.00    +0.000 OA
ATOM     15  H   UNL     1       8.479   3.507  16.958  0.00  0.00    +0.000 HD
ENDBRANCH   7  14
BRANCH   1  16
ATOM     16  C   UNL     1       3.209   2.706  20.061  0.00  0.00    +0.000 C 
BRANCH  16  18
ATOM     17  C   UNL     1       1.261   2.763  21.708  0.00  0.00    +0.000 C 
ATOM     18  C   UNL     1       2.755   2.582  21.523  0.00  0.00    +0.000 C 
ENDBRANCH  16  18
ENDBRANCH   1  16
TORSDOF 3
ENDMDL
MODEL 6
REMARK VINA RESULT:      -6.1      1.957      3.595
REMARK  Name = 
REMARK  4 active torsions:
REMARK  status: ('A' for Active; 'I' for Inactive)
REMARK    1  A    between atoms: C_1  and  C_2
REMARK    2  A    between atoms: C_2  and  C_3
REMARK    3  A    between atoms: C_3  and  N_4
REMARK    4  A    between atoms: C_10  and  O_11
REMARK                            x       y       z     vdW  Elec       q    Type
REMARK                         _______ _______ _______ _____ _____    ______ ____
ROOT
ATOM      1  N   UNL     1       7.278   5.895  16.258  0.00  0.00    +0.000 NA
ATOM      2  C   UNL     1       6.723   5.494  14.956  0.00  0.00    +0.000 C 
ATOM      3  C   UNL     1       5.836   4.268  15.176  0.00  0.00    +0.000 C 
ATOM      4  C   UNL     1       5.976   3.887  16.656  0.00  0.00    +0.000 C 
ATOM      5  C   UNL     1       4.777   4.237  17.525  0.00  0.00    +0.000 A 
ATOM      6  C   UNL     1       3.470   3.962  17.077  0.00  0.00    +0.000 A 
ATOM      7  C   UNL     1       2.368   4.394  17.807  0.00  0.00    +0.000 A 
ATOM      8  C   UNL     1       2.527   5.071  19.004  0.00  0.00    +0.000 A 
ATOM      9  C   UNL     1       3.814   5.282  19.499  0.00  0.00    +0.000 A 
ATOM     10  C   UNL     1       4.942   4.849  18.787  0.00  0.00    +0.000 A 
ATOM     11  C   UNL     1       6.300   5.137  19.379  0.00  0.00    +0.000 C 
ATOM     12  C   UNL     1       7.484   4.643  18.556  0.00  0.00    +0.000 C 
ATOM     13  C   UNL     1       7.267   4.629  17.044  0.00  0.00    +0.000 C 
ENDROOT
BRANCH   7  14
ATOM     14  O   UNL     1       1.095   4.184  17.364  0.00  0.00    +0.000 OA
ATOM     15  H   UNL     1       0.551   4.948  17.615  0.00  0.00    +0.000 HD
ENDBRANCH   7  14
BRANCH   1  16
ATOM     16  C   UNL     1       6.550   7.016  16.869  0.00  0.00    +0.000 C 
BRANCH  16  18
ATOM     17  C   UNL     1       8.332   7.989  18.415  0.00  0.00    +0.000 C 
ATOM     18  C   UNL     1       7.367   8.252  17.275  0.00  0.00    +0.000 C 
ENDBRANCH  16  18
ENDBRANCH   1  16
TORSDOF 3
ENDMDL
MODEL 7
REMARK VINA RESULT:      -6.1      1.085      1.232
REMARK  Name = 
REMARK  4 active torsions:
REMARK  status: ('A' for Active; 'I' for Inactive)
REMARK    1  A    between atoms: C_1  and  C_2
REMARK    2  A    between atoms: C_2  and  C_3
REMARK    3  A    between atoms: C_3  and  N_4
REMARK    4  A    between atoms: C_10  and  O_11
REMARK                            x       y       z     vdW  Elec       q    Type
REMARK                         _______ _______ _______ _____ _____    ______ ____
ROOT
ATOM      1  N   UNL     1       6.327   6.182  16.287  0.00  0.00    +0.000 NA
ATOM      2  C   UNL     1       7.401   5.241  16.640  0.00  0.00    +0.000 C 
ATOM      3  C   UNL     1       7.034   4.578  17.969  0.00  0.00    +0.000 C 
ATOM      4  C   UNL     1       5.741   5.250  18.450  0.00  0.00    +0.000 C 
ATOM      5  C   UNL     1       4.485   4.405  18.302  0.00  0.00    +0.000 A 
ATOM      6  C   UNL     1       4.493   3.048  18.680  0.00  0.00    +0.000 A 
ATOM      7  C   UNL     1       3.390   2.239  18.429  0.00  0.00    +0.000 A 
ATOM      8  C   UNL     1       2.249   2.752  17.837  0.00  0.00    +0.000 A 
ATOM      9  C   UNL     1       2.197   4.113  17.529  0.00  0.00    +0.000 A 
ATOM     10  C   UNL     1       3.292   4.952  17.779  0.00  0.00    +0.000 A 
ATOM     11  C   UNL     1       3.166   6.406  17.394  0.00  0.00    +0.000 C 
ATOM     12  C   UNL     1       4.390   7.264  17.690  0.00  0.00    +0.000 C 
ATOM     13  C   UNL     1       5.732   6.538  17.606  0.00  0.00    +0.000 C 
ENDROOT
BRANCH   7  14
ATOM     14  O   UNL     1       3.398   0.911  18.739  0.00  0.00    +0.000 OA
ATOM     15  H   UNL     1       4.113   0.747  19.376  0.00  0.00    +0.000 HD
ENDBRANCH   7  14
BRANCH   1  16
ATOM     16  C   UNL     1       5.384   5.630  15.304  0.00  0.00    +0.000 C 
BRANCH  16  18
ATOM     17  C   UNL     1       5.916   3.997  13.418  0.00  0.00    +0.000 C 
ATOM     18  C   UNL     1       5.577   4.165  14.886  0.00  0.00    +0.000 C 
ENDBRANCH  16  18
ENDBRANCH   1  16
TORSDOF 3
ENDMDL
MODEL 8
REMARK VINA RESULT:      -6.1      1.676      3.283
REMARK  Name = 
REMARK  4 active torsions:
REMARK  status: ('A' for Active; 'I' for Inactive)
REMARK    1  A    between atoms: C_1  and  C_2
REMARK    2  A    between atoms: C_2  and  C_3
REMARK    3  A    between atoms: C_3  and  N_4
REMARK    4  A    between atoms: C_10  and  O_11
REMARK                            x       y       z     vdW  Elec       q    Type
REMARK                         _______ _______ _______ _____ _____    ______ ____
ROOT
ATOM      1  N   UNL     1       6.758   6.007  16.069  0.00  0.00    +0.000 NA
ATOM      2  C   UNL     1       6.113   5.531  14.835  0.00  0.00    +0.000 C 
ATOM      3  C   UNL     1       5.480   4.170  15.125  0.00  0.00    +0.000 C 
ATOM      4  C   UNL     1       5.873   3.802  16.563  0.00  0.00    +0.000 C 
ATOM      5  C   UNL     1       4.756   3.934  17.586  0.00  0.00    +0.000 A 
ATOM      6  C   UNL     1       3.467   3.445  17.298  0.00  0.00    +0.000 A 
ATOM      7  C   UNL     1       2.412   3.675  18.176  0.00  0.00    +0.000 A 
ATOM      8  C   UNL     1       2.609   4.357  19.364  0.00  0.00    +0.000 A 
ATOM      9  C   UNL     1       3.897   4.778  19.700  0.00  0.00    +0.000 A 
ATOM     10  C   UNL     1       4.979   4.551  18.837  0.00  0.00    +0.000 A 
ATOM     11  C   UNL     1       6.335   5.060  19.262  0.00  0.00    +0.000 C 
ATOM     12  C   UNL     1       7.468   4.783  18.280  0.00  0.00    +0.000 C 
ATOM     13  C   UNL     1       7.062   4.749  16.808  0.00  0.00    +0.000 C 
ENDROOT
BRANCH   7  14
ATOM     14  O   UNL     1       1.146   3.256  17.890  0.00  0.00    +0.000 OA
ATOM     15  H   UNL     1       0.517   3.889  18.274  0.00  0.00    +0.000 HD
ENDBRANCH   7  14
BRANCH   1  16
ATOM     16  C   UNL     1       5.938   6.981  16.803  0.00  0.00    +0.000 C 
BRANCH  16  18
ATOM     17  C   UNL     1       3.538   7.552  17.451  0.00  0.00    +0.000 C 
ATOM     18  C   UNL     1       4.491   7.183  16.331  0.00  0.00    +0.000 C 
ENDBRANCH  16  18
ENDBRANCH   1  16
TORSDOF 3
ENDMDL
MODEL 9
REMARK VINA RESULT:      -6.0      1.148      1.323
REMARK  Name = 
REMARK  4 active torsions:
REMARK  status: ('A' for Active; 'I' for Inactive)
REMARK    1  A    between atoms: C_1  and  C_2
REMARK    2  A    between atoms: C_2  and  C_3
REMARK    3  A    between atoms: C_3  and  N_4
REMARK    4  A    between atoms: C_10  and  O_11
REMARK                            x       y       z     vdW  Elec       q    Type
REMARK                         _______ _______ _______ _____ _____    ______ ____
ROOT
ATOM      1  N   UNL     1       5.914   6.388  16.170  0.00  0.00    +0.000 NA
ATOM      2  C   UNL     1       7.253   5.949  16.595  0.00  0.00    +0.000 C 
ATOM      3  C   UNL     1       7.187   5.599  18.082  0.00  0.00    +0.000 C 
ATOM      4  C   UNL     1       5.771   5.956  18.553  0.00  0.00    +0.000 C 
ATOM      5  C   UNL     1       4.854   4.765  18.787  0.00  0.00    +0.000 A 
ATOM      6  C   UNL     1       5.323   3.633  19.481  0.00  0.00    +0.000 A 
ATOM      7  C   UNL     1       4.533   2.492  19.587  0.00  0.00    +0.000 A 
ATOM      8  C   UNL     1       3.259   2.455  19.046  0.00  0.00    +0.000 A 
ATOM      9  C   UNL     1       2.751   3.596  18.424  0.00  0.00    +0.000 A 
ATOM     10  C   UNL     1       3.524   4.762  18.311  0.00  0.00    +0.000 A 
ATOM     11  C   UNL     1       2.911   5.945  17.603  0.00  0.00    +0.000 C 
ATOM     12  C   UNL     1       3.802   7.179  17.512  0.00  0.00    +0.000 C 
ATOM     13  C   UNL     1       5.301   6.896  17.429  0.00  0.00    +0.000 C 
ENDROOT
BRANCH   7  14
ATOM     14  O   UNL     1       4.989   1.367  20.209  0.00  0.00    +0.000 OA
ATOM     15  H   UNL     1       4.871   0.613  19.608  0.00  0.00    +0.000 HD
ENDBRANCH   7  14
BRANCH   1  16
ATOM     16  C   UNL     1       5.156   5.330  15.488  0.00  0.00    +0.000 C 
BRANCH  16  18
ATOM     17  C   UNL     1       6.160   3.878  13.645  0.00  0.00    +0.000 C 
ATOM     18  C   UNL     1       5.909   4.040  15.132  0.00  0.00    +0.000 C 
ENDBRANCH  16  18
ENDBRANCH   1  16
TORSDOF 3
ENDMDL
