MODEL 1
REMARK VINA RESULT:      -8.8      0.000      0.000
REMARK  Name = 
REMARK  6 active torsions:
REMARK  status: ('A' for Active; 'I' for Inactive)
REMARK    1  A    between atoms: C_2  and  C_3
REMARK    2  A    between atoms: C_3  and  C_4
REMARK    3  A    between atoms: C_4  and  S_5
REMARK    4  A    between atoms: S_5  and  C_6
REMARK    5  A    between atoms: N_12  and  C_13
REMARK    6  A    between atoms: C_13  and  C_14
REMARK                            x       y       z     vdW  Elec       q    Type
REMARK                         _______ _______ _______ _____ _____    ______ ____
ROOT
ATOM      1  O   UNL     1       6.943   5.873  19.804  0.00  0.00    +0.000 OA
ATOM      2  C   UNL     1       6.991   5.814  18.569  0.00  0.00    +0.000 C 
ATOM      3  N   UNL     1       6.267   4.836  17.861  0.00  0.00    +0.000 N 
ATOM      4  C   UNL     1       6.402   4.717  16.467  0.00  0.00    +0.000 A 
ATOM      5  N   UNL     1       7.126   5.486  15.688  0.00  0.00    +0.000 NA
ATOM      6  C   UNL     1       7.108   5.047  14.380  0.00  0.00    +0.000 A 
ATOM      7  C   UNL     1       7.824   5.613  13.309  0.00  0.00    +0.000 A 
ATOM      8  C   UNL     1       7.708   5.060  12.031  0.00  0.00    +0.000 A 
ATOM      9  C   UNL     1       6.883   3.961  11.812  0.00  0.00    +0.000 A 
ATOM     10  C   UNL     1       6.166   3.379  12.863  0.00  0.00    +0.000 A 
ATOM     11  C   UNL     1       6.305   3.936  14.145  0.00  0.00    +0.000 A 
ATOM     12  S   UNL     1       5.609   3.441  15.632  0.00  0.00    +0.000 S 
ENDROOT
BRANCH   2  13
ATOM     13  C   UNL     1       7.840   6.843  17.821  0.00  0.00    +0.000 C 
BRANCH  13  14
ATOM     14  C   UNL     1       8.420   7.943  18.714  0.00  0.00    +0.000 C 
BRANCH  14  15
ATOM     15  S   UNL     1       8.188   9.548  17.847  0.00  0.00    +0.000 S 
BRANCH  15  16
ATOM     16  C   UNL     1       9.409  10.619  18.588  0.00  0.00    +0.000 A 
ATOM     17  C   UNL     1       9.371  10.771  19.983  0.00  0.00    +0.000 A 
ATOM     18  C   UNL     1      10.323  11.549  20.647  0.00  0.00    +0.000 A 
ATOM     19  C   UNL     1      11.329  12.178  19.923  0.00  0.00    +0.000 A 
ATOM     20  C   UNL     1      11.385  12.027  18.540  0.00  0.00    +0.000 A 
ATOM     21  C   UNL     1      10.431  11.250  17.875  0.00  0.00    +0.000 A 
ENDBRANCH  15  16
ENDBRANCH  14  15
ENDBRANCH  13  14
ENDBRANCH   2  13
BRANCH   3  22
ATOM     22  C   UNL     1       5.466   3.892  18.674  0.00  0.00    +0.000 C 
BRANCH  22  23
ATOM     23  C   UNL     1       3.968   3.948  18.432  0.00  0.00    +0.000 A 
ATOM     24  C   UNL     1       3.314   5.165  18.256  0.00  0.00    +0.000 A 
ATOM     25  C   UNL     1       1.938   5.161  18.028  0.00  0.00    +0.000 A 
ATOM     26  C   UNL     1       1.251   3.953  17.980  0.00  0.00    +0.000 A 
ATOM     27  C   UNL     1       1.968   2.789  18.180  0.00  0.00    +0.000 A 
ATOM     28  N   UNL     1       3.299   2.763  18.415  0.00  0.00    +0.000 NA
ENDBRANCH  22  23
ENDBRANCH   3  22
TORSDOF 6
ENDMDL
MODEL 2
REMARK VINA RESULT:      -8.7      0.516      1.284
REMARK  Name = 
REMARK  6 active torsions:
REMARK  status: ('A' for Active; 'I' for Inactive)
REMARK    1  A    between atoms: C_2  and  C_3
REMARK    2  A    between atoms: C_3  and  C_4
REMARK    3  A    between atoms: C_4  and  S_5
REMARK    4  A    between atoms: S_5  and  C_6
REMARK    5  A    between atoms: N_12  and  C_13
REMARK    6  A    between atoms: C_13  and  C_14
REMARK                            x       y       z     vdW  Elec       q    Type
REMARK                         _______ _______ _______ _____ _____    ______ ____
ROOT
ATOM      1  O   UNL     1       6.941   5.798  19.812  0.00  0.00    +0.000 OA
ATOM      2  C   UNL     1       6.991   5.757  18.575  0.00  0.00    +0.000 C 
ATOM      3  N   UNL     1       6.273   4.786  17.853  0.00  0.00    +0.000 N 
ATOM      4  C   UNL     1       6.411   4.688  16.457  0.00  0.00    +0.000 A 
ATOM      5  N   UNL     1       7.131   5.472  15.691  0.00  0.00    +0.000 NA
ATOM      6  C   UNL     1       7.118   5.052  14.376  0.00  0.00    +0.000 A 
ATOM      7  C   UNL     1       7.833   5.638  13.315  0.00  0.00    +0.000 A 
ATOM      8  C   UNL     1       7.722   5.103  12.029  0.00  0.00    +0.000 A 
ATOM      9  C   UNL     1       6.902   4.003  11.793  0.00  0.00    +0.000 A 
ATOM     10  C   UNL     1       6.187   3.402  12.834  0.00  0.00    +0.000 A 
ATOM     11  C   UNL     1       6.321   3.941  14.123  0.00  0.00    +0.000 A 
ATOM     12  S   UNL     1       5.626   3.421  15.602  0.00  0.00    +0.000 S 
ENDROOT
BRANCH   2  13
ATOM     13  C   UNL     1       7.836   6.801  17.845  0.00  0.00    +0.000 C 
BRANCH  13  14
ATOM     14  C   UNL     1       8.421   7.882  18.757  0.00  0.00    +0.000 C 
BRANCH  14  15
ATOM     15  S   UNL     1       8.227   9.500  17.904  0.00  0.00    +0.000 S 
BRANCH  15  16
ATOM     16  C   UNL     1       9.420  10.557  18.707  0.00  0.00    +0.000 A 
ATOM     17  C   UNL     1      10.324  11.248  17.885  0.00  0.00    +0.000 A 
ATOM     18  C   UNL     1      11.255  12.136  18.429  0.00  0.00    +0.000 A 
ATOM     19  C   UNL     1      11.287  12.349  19.803  0.00  0.00    +0.000 A 
ATOM     20  C   UNL     1      10.389  11.678  20.629  0.00  0.00    +0.000 A 
ATOM     21  C   UNL     1       9.458  10.788  20.084  0.00  0.00    +0.000 A 
ENDBRANCH  15  16
ENDBRANCH  14  15
ENDBRANCH  13  14
ENDBRANCH   2  13
BRANCH   3  22
ATOM     22  C   UNL     1       5.476   3.826  18.650  0.00  0.00    +0.000 C 
BRANCH  22  23
ATOM     23  C   UNL     1       3.977   3.888  18.417  0.00  0.00    +0.000 A 
ATOM     24  C   UNL     1       3.207   2.727  18.373  0.00  0.00    +0.000 A 
ATOM     25  C   UNL     1       1.833   2.840  18.166  0.00  0.00    +0.000 A 
ATOM     26  C   UNL     1       1.261   4.097  18.010  0.00  0.00    +0.000 A 
ATOM     27  C   UNL     1       2.092   5.200  18.050  0.00  0.00    +0.000 A 
ATOM     28  N   UNL     1       3.429   5.120  18.237  0.00  0.00    +0.000 NA
ENDBRANCH  22  23
ENDBRANCH   3  22
TORSDOF 6
ENDMDL
MODEL 3
REMARK VINA RESULT:      -8.6      1.033      1.392
REMARK  Name = 
REMARK  6 active torsions:
REMARK  status: ('A' for Active; 'I' for Inactive)
REMARK    1  A    between atoms: C_2  and  C_3
REMARK    2  A    between atoms: C_3  and  C_4
REMARK    3  A    between atoms: C_4  and  S_5
REMARK    4  A    between atoms: S_5  and  C_6
REMARK    5  A    between atoms: N_12  and  C_13
REMARK    6  A    between atoms: C_13  and  C_14
REMARK                            x       y       z     vdW  Elec       q    Type
REMARK                         _______ _______ _______ _____ _____    ______ ____
ROOT
ATOM      1  O   UNL     1       6.883   5.800  19.893  0.00  0.00    +0.000 OA
ATOM      2  C   UNL     1       6.942   5.748  18.657  0.00  0.00    +0.000 C 
ATOM      3  N   UNL     1       6.144   4.843  17.931  0.00  0.00    +0.000 N 
ATOM      4  C   UNL     1       6.287   4.726  16.537  0.00  0.00    +0.000 A 
ATOM      5  N   UNL     1       7.085   5.435  15.776  0.00  0.00    +0.000 NA
ATOM      6  C   UNL     1       7.046   5.011  14.463  0.00  0.00    +0.000 A 
ATOM      7  C   UNL     1       7.823   5.522  13.406  0.00  0.00    +0.000 A 
ATOM      8  C   UNL     1       7.675   4.993  12.122  0.00  0.00    +0.000 A 
ATOM      9  C   UNL     1       6.759   3.972  11.882  0.00  0.00    +0.000 A 
ATOM     10  C   UNL     1       5.981   3.446  12.918  0.00  0.00    +0.000 A 
ATOM     11  C   UNL     1       6.152   3.977  14.207  0.00  0.00    +0.000 A 
ATOM     12  S   UNL     1       5.396   3.532  15.680  0.00  0.00    +0.000 S 
ENDROOT
BRANCH   2  13
ATOM     13  C   UNL     1       7.888   6.705  17.931  0.00  0.00    +0.000 C 
BRANCH  13  14
ATOM     14  C   UNL     1       8.462   7.811  18.819  0.00  0.00    +0.000 C 
BRANCH  14  15
ATOM     15  S   UNL     1       8.217   9.412  17.949  0.00  0.00    +0.000 S 
BRANCH  15  16
ATOM     16  C   UNL     1       9.389  10.511  18.728  0.00  0.00    +0.000 A 
ATOM     17  C   UNL     1      10.280  11.200  17.891  0.00  0.00    +0.000 A 
ATOM     18  C   UNL     1      11.193  12.119  18.415  0.00  0.00    +0.000 A 
ATOM     19  C   UNL     1      11.219  12.364  19.784  0.00  0.00    +0.000 A 
ATOM     20  C   UNL     1      10.334  11.695  20.624  0.00  0.00    +0.000 A 
ATOM     21  C   UNL     1       9.420  10.774  20.099  0.00  0.00    +0.000 A 
ENDBRANCH  15  16
ENDBRANCH  14  15
ENDBRANCH  13  14
ENDBRANCH   2  13
BRANCH   3  22
ATOM     22  C   UNL     1       5.253   3.966  18.724  0.00  0.00    +0.000 C 
BRANCH  22  23
ATOM     23  C   UNL     1       4.022   4.647  19.294  0.00  0.00    +0.000 A 
ATOM     24  C   UNL     1       3.606   5.890  18.823  0.00  0.00    +0.000 A 
ATOM     25  C   UNL     1       2.462   6.469  19.373  0.00  0.00    +0.000 A 
ATOM     26  C   UNL     1       1.765   5.800  20.373  0.00  0.00    +0.000 A 
ATOM     27  C   UNL     1       2.250   4.578  20.797  0.00  0.00    +0.000 A 
ATOM     28  N   UNL     1       3.361   3.999  20.291  0.00  0.00    +0.000 NA
ENDBRANCH  22  23
ENDBRANCH   3  22
TORSDOF 6
ENDMDL
MODEL 4
REMARK VINA RESULT:      -8.6      1.116      1.353
REMARK  Name = 
REMARK  6 active torsions:
REMARK  status: ('A' for Active; 'I' for Inactive)
REMARK    1  A    between atoms: C_2  and  C_3
REMARK    2  A    between atoms: C_3  and  C_4
REMARK    3  A    between atoms: C_4  and  S_5
REMARK    4  A    between atoms: S_5  and  C_6
REMARK    5  A    between atoms: N_12  and  C_13
REMARK    6  A    between atoms: C_13  and  C_14
REMARK                            x       y       z     vdW  Elec       q    Type
REMARK                         _______ _______ _______ _____ _____    ______ ____
ROOT
ATOM      1  O   UNL     1       6.919   5.723  19.956  0.00  0.00    +0.000 OA
ATOM      2  C   UNL     1       6.966   5.687  18.719  0.00  0.00    +0.000 C 
ATOM      3  N   UNL     1       6.132   4.821  17.987  0.00  0.00    +0.000 N 
ATOM      4  C   UNL     1       6.259   4.718  16.591  0.00  0.00    +0.000 A 
ATOM      5  N   UNL     1       7.075   5.410  15.833  0.00  0.00    +0.000 NA
ATOM      6  C   UNL     1       7.012   5.007  14.515  0.00  0.00    +0.000 A 
ATOM      7  C   UNL     1       7.798   5.505  13.459  0.00  0.00    +0.000 A 
ATOM      8  C   UNL     1       7.621   5.000  12.168  0.00  0.00    +0.000 A 
ATOM      9  C   UNL     1       6.669   4.015  11.922  0.00  0.00    +0.000 A 
ATOM     10  C   UNL     1       5.881   3.502  12.957  0.00  0.00    +0.000 A 
ATOM     11  C   UNL     1       6.080   4.008  14.251  0.00  0.00    +0.000 A 
ATOM     12  S   UNL     1       5.321   3.568  15.725  0.00  0.00    +0.000 S 
ENDROOT
BRANCH   2  13
ATOM     13  C   UNL     1       7.939   6.621  17.999  0.00  0.00    +0.000 C 
BRANCH  13  14
ATOM     14  C   UNL     1       8.419   7.800  18.848  0.00  0.00    +0.000 C 
BRANCH  14  15
ATOM     15  S   UNL     1       8.183   9.333  17.861  0.00  0.00    +0.000 S 
BRANCH  15  16
ATOM     16  C   UNL     1       9.324  10.497  18.591  0.00  0.00    +0.000 A 
ATOM     17  C   UNL     1       9.319  10.612  19.989  0.00  0.00    +0.000 A 
ATOM     18  C   UNL     1      10.216  11.460  20.643  0.00  0.00    +0.000 A 
ATOM     19  C   UNL     1      11.135  12.197  19.904  0.00  0.00    +0.000 A 
ATOM     20  C   UNL     1      11.158  12.084  18.517  0.00  0.00    +0.000 A 
ATOM     21  C   UNL     1      10.258  11.236  17.862  0.00  0.00    +0.000 A 
ENDBRANCH  15  16
ENDBRANCH  14  15
ENDBRANCH  13  14
ENDBRANCH   2  13
BRANCH   3  22
ATOM     22  C   UNL     1       5.217   3.963  18.776  0.00  0.00    +0.000 C 
BRANCH  22  23
ATOM     23  C   UNL     1       3.987   4.668  19.320  0.00  0.00    +0.000 A 
ATOM     24  C   UNL     1       3.166   4.054  20.263  0.00  0.00    +0.000 A 
ATOM     25  C   UNL     1       2.053   4.748  20.738  0.00  0.00    +0.000 A 
ATOM     26  C   UNL     1       1.788   6.029  20.267  0.00  0.00    +0.000 A 
ATOM     27  C   UNL     1       2.641   6.563  19.321  0.00  0.00    +0.000 A 
ATOM     28  N   UNL     1       3.719   5.910  18.833  0.00  0.00    +0.000 NA
ENDBRANCH  22  23
ENDBRANCH   3  22
TORSDOF 6
ENDMDL
MODEL 5
REMARK VINA RESULT:      -7.8      4.174      7.486
REMARK  Name = 
REMARK  6 active torsions:
REMARK  status: ('A' for Active; 'I' for Inactive)
REMARK    1  A    between atoms: C_2  and  C_3
REMARK    2  A    between atoms: C_3  and  C_4
REMARK    3  A    between atoms: C_4  and  S_5
REMARK    4  A    between atoms: S_5  and  C_6
REMARK    5  A    between atoms: N_12  and  C_13
REMARK    6  A    between atoms: C_13  and  C_14
REMARK                            x       y       z     vdW  Elec       q    Type
REMARK                         _______ _______ _______ _____ _____    ______ ____
ROOT
ATOM      1  O   UNL     1       5.001   7.543  15.858  0.00  0.00    +0.000 OA
ATOM      2  C   UNL     1       4.409   6.942  16.765  0.00  0.00    +0.000 C 
ATOM      3  N   UNL     1       5.014   5.861  17.433  0.00  0.00    +0.000 N 
ATOM      4  C   UNL     1       4.299   5.126  18.395  0.00  0.00    +0.000 A 
ATOM      5  N   UNL     1       3.079   5.372  18.810  0.00  0.00    +0.000 NA
ATOM      6  C   UNL     1       2.641   4.411  19.699  0.00  0.00    +0.000 A 
ATOM      7  C   UNL     1       1.362   4.349  20.284  0.00  0.00    +0.000 A 
ATOM      8  C   UNL     1       1.059   3.313  21.172  0.00  0.00    +0.000 A 
ATOM      9  C   UNL     1       2.015   2.351  21.485  0.00  0.00    +0.000 A 
ATOM     10  C   UNL     1       3.290   2.392  20.912  0.00  0.00    +0.000 A 
ATOM     11  C   UNL     1       3.576   3.428  20.009  0.00  0.00    +0.000 A 
ATOM     12  S   UNL     1       5.005   3.734  19.113  0.00  0.00    +0.000 S 
ENDROOT
BRANCH   2  13
ATOM     13  C   UNL     1       3.010   7.415  17.161  0.00  0.00    +0.000 C 
BRANCH  13  14
ATOM     14  C   UNL     1       2.997   8.699  17.993  0.00  0.00    +0.000 C 
BRANCH  14  15
ATOM     15  S   UNL     1       1.283   9.365  17.968  0.00  0.00    +0.000 S 
BRANCH  15  16
ATOM     16  C   UNL     1       0.853   9.519  19.694  0.00  0.00    +0.000 A 
ATOM     17  C   UNL     1       0.009  10.580  20.055  0.00  0.00    +0.000 A 
ATOM     18  C   UNL     1      -0.418  10.740  21.376  0.00  0.00    +0.000 A 
ATOM     19  C   UNL     1      -0.010   9.835  22.349  0.00  0.00    +0.000 A 
ATOM     20  C   UNL     1       0.819   8.772  22.002  0.00  0.00    +0.000 A 
ATOM     21  C   UNL     1       1.248   8.612  20.680  0.00  0.00    +0.000 A 
ENDBRANCH  15  16
ENDBRANCH  14  15
ENDBRANCH  13  14
ENDBRANCH   2  13
BRANCH   3  22
ATOM     22  C   UNL     1       6.374   5.485  16.984  0.00  0.00    +0.000 C 
BRANCH  22  23
ATOM     23  C   UNL     1       6.461   4.973  15.557  0.00  0.00    +0.000 A 
ATOM     24  C   UNL     1       5.511   4.087  15.053  0.00  0.00    +0.000 A 
ATOM     25  C   UNL     1       5.631   3.655  13.732  0.00  0.00    +0.000 A 
ATOM     26  C   UNL     1       6.686   4.111  12.951  0.00  0.00    +0.000 A 
ATOM     27  C   UNL     1       7.596   4.976  13.528  0.00  0.00    +0.000 A 
ATOM     28  N   UNL     1       7.512   5.402  14.808  0.00  0.00    +0.000 NA
ENDBRANCH  22  23
ENDBRANCH   3  22
TORSDOF 6
ENDMDL
MODEL 6
REMARK VINA RESULT:      -7.8      0.901      1.291
REMARK  Name = 
REMARK  6 active torsions:
REMARK  status: ('A' for Active; 'I' for Inactive)
REMARK    1  A    between atoms: C_2  and  C_3
REMARK    2  A    between atoms: C_3  and  C_4
REMARK    3  A    between atoms: C_4  and  S_5
REMARK    4  A    between atoms: S_5  and  C_6
REMARK    5  A    between atoms: N_12  and  C_13
REMARK    6  A    between atoms: C_13  and  C_14
REMARK                            x       y       z     vdW  Elec       q    Type
REMARK                         _______ _______ _______ _____ _____    ______ ____
ROOT
ATOM      1  O   UNL     1       7.204   6.401  19.550  0.00  0.00    +0.000 OA
ATOM      2  C   UNL     1       7.206   6.243  18.321  0.00  0.00    +0.000 C 
ATOM      3  N   UNL     1       6.454   5.215  17.722  0.00  0.00    +0.000 N 
ATOM      4  C   UNL     1       6.535   4.985  16.337  0.00  0.00    +0.000 A 
ATOM      5  N   UNL     1       7.230   5.686  15.474  0.00  0.00    +0.000 NA
ATOM      6  C   UNL     1       7.162   5.145  14.206  0.00  0.00    +0.000 A 
ATOM      7  C   UNL     1       7.838   5.621  13.067  0.00  0.00    +0.000 A 
ATOM      8  C   UNL     1       7.672   4.968  11.842  0.00  0.00    +0.000 A 
ATOM      9  C   UNL     1       6.837   3.858  11.743  0.00  0.00    +0.000 A 
ATOM     10  C   UNL     1       6.160   3.366  12.864  0.00  0.00    +0.000 A 
ATOM     11  C   UNL     1       6.349   4.022  14.090  0.00  0.00    +0.000 A 
ATOM     12  S   UNL     1       5.710   3.650  15.638  0.00  0.00    +0.000 S 
ENDROOT
BRANCH   2  13
ATOM     13  C   UNL     1       8.027   7.206  17.463  0.00  0.00    +0.000 C 
BRANCH  13  14
ATOM     14  C   UNL     1       7.727   8.684  17.719  0.00  0.00    +0.000 C 
BRANCH  14  15
ATOM     15  S   UNL     1       8.948   9.298  18.949  0.00  0.00    +0.000 S 
BRANCH  15  16
ATOM     16  C   UNL     1       9.391  10.919  18.346  0.00  0.00    +0.000 A 
ATOM     17  C   UNL     1      10.735  11.135  18.007  0.00  0.00    +0.000 A 
ATOM     18  C   UNL     1      11.155  12.358  17.477  0.00  0.00    +0.000 A 
ATOM     19  C   UNL     1      10.231  13.377  17.273  0.00  0.00    +0.000 A 
ATOM     20  C   UNL     1       8.893  13.172  17.595  0.00  0.00    +0.000 A 
ATOM     21  C   UNL     1       8.473  11.948  18.127  0.00  0.00    +0.000 A 
ENDBRANCH  15  16
ENDBRANCH  14  15
ENDBRANCH  13  14
ENDBRANCH   2  13
BRANCH   3  22
ATOM     22  C   UNL     1       5.683   4.342  18.637  0.00  0.00    +0.000 C 
BRANCH  22  23
ATOM     23  C   UNL     1       4.181   4.347  18.416  0.00  0.00    +0.000 A 
ATOM     24  C   UNL     1       3.491   5.537  18.195  0.00  0.00    +0.000 A 
ATOM     25  C   UNL     1       2.113   5.486  17.987  0.00  0.00    +0.000 A 
ATOM     26  C   UNL     1       1.459   4.259  18.004  0.00  0.00    +0.000 A 
ATOM     27  C   UNL     1       2.210   3.125  18.245  0.00  0.00    +0.000 A 
ATOM     28  N   UNL     1       3.544   3.146  18.461  0.00  0.00    +0.000 NA
ENDBRANCH  22  23
ENDBRANCH   3  22
TORSDOF 6
ENDMDL
MODEL 7
REMARK VINA RESULT:      -7.8      7.510     11.068
REMARK  Name = 
REMARK  6 active torsions:
REMARK  status: ('A' for Active; 'I' for Inactive)
REMARK    1  A    between atoms: C_2  and  C_3
REMARK    2  A    between atoms: C_3  and  C_4
REMARK    3  A    between atoms: C_4  and  S_5
REMARK    4  A    between atoms: S_5  and  C_6
REMARK    5  A    between atoms: N_12  and  C_13
REMARK    6  A    between atoms: C_13  and  C_14
REMARK                            x       y       z     vdW  Elec       q    Type
REMARK                         _______ _______ _______ _____ _____    ______ ____
ROOT
ATOM      1  O   UNL     1       1.226  10.072  22.375  0.00  0.00    +0.000 OA
ATOM      2  C   UNL     1       0.619  10.118  21.297  0.00  0.00    +0.000 C 
ATOM      3  N   UNL     1      -0.434  11.032  21.096  0.00  0.00    +0.000 N 
ATOM      4  C   UNL     1      -1.178  11.013  19.904  0.00  0.00    +0.000 A 
ATOM      5  N   UNL     1      -0.967  10.234  18.869  0.00  0.00    +0.000 NA
ATOM      6  C   UNL     1      -1.930  10.409  17.896  0.00  0.00    +0.000 A 
ATOM      7  C   UNL     1      -2.026   9.689  16.690  0.00  0.00    +0.000 A 
ATOM      8  C   UNL     1      -3.059   9.977  15.794  0.00  0.00    +0.000 A 
ATOM      9  C   UNL     1      -3.985  10.976  16.085  0.00  0.00    +0.000 A 
ATOM     10  C   UNL     1      -3.911  11.700  17.279  0.00  0.00    +0.000 A 
ATOM     11  C   UNL     1      -2.877  11.389  18.177  0.00  0.00    +0.000 A 
ATOM     12  S   UNL     1      -2.537  12.048  19.722  0.00  0.00    +0.000 S 
ENDROOT
BRANCH   2  13
ATOM     13  C   UNL     1       1.051   9.174  20.175  0.00  0.00    +0.000 C 
BRANCH  13  14
ATOM     14  C   UNL     1       1.518   7.799  20.659  0.00  0.00    +0.000 C 
BRANCH  14  15
ATOM     15  S   UNL     1       2.493   7.030  19.303  0.00  0.00    +0.000 S 
BRANCH  15  16
ATOM     16  C   UNL     1       1.986   5.318  19.325  0.00  0.00    +0.000 A 
ATOM     17  C   UNL     1       1.639   4.765  20.567  0.00  0.00    +0.000 A 
ATOM     18  C   UNL     1       1.182   3.448  20.665  0.00  0.00    +0.000 A 
ATOM     19  C   UNL     1       1.058   2.672  19.518  0.00  0.00    +0.000 A 
ATOM     20  C   UNL     1       1.389   3.211  18.278  0.00  0.00    +0.000 A 
ATOM     21  C   UNL     1       1.849   4.529  18.180  0.00  0.00    +0.000 A 
ENDBRANCH  15  16
ENDBRANCH  14  15
ENDBRANCH  13  14
ENDBRANCH   2  13
BRANCH   3  22
ATOM     22  C   UNL     1      -0.771  11.911  22.239  0.00  0.00    +0.000 C 
BRANCH  22  23
ATOM     23  C   UNL     1      -0.173  13.305  22.174  0.00  0.00    +0.000 A 
ATOM     24  C   UNL     1       0.874  13.599  21.303  0.00  0.00    +0.000 A 
ATOM     25  C   UNL     1       1.381  14.898  21.276  0.00  0.00    +0.000 A 
ATOM     26  C   UNL     1       0.837  15.867  22.111  0.00  0.00    +0.000 A 
ATOM     27  C   UNL     1      -0.189  15.494  22.958  0.00  0.00    +0.000 A 
ATOM     28  N   UNL     1      -0.691  14.241  23.015  0.00  0.00    +0.000 NA
ENDBRANCH  22  23
ENDBRANCH   3  22
TORSDOF 6
ENDMDL
MODEL 8
REMARK VINA RESULT:      -7.7      1.401      1.788
REMARK  Name = 
REMARK  6 active torsions:
REMARK  status: ('A' for Active; 'I' for Inactive)
REMARK    1  A    between atoms: C_2  and  C_3
REMARK    2  A    between atoms: C_3  and  C_4
REMARK    3  A    between atoms: C_4  and  S_5
REMARK    4  A    between atoms: S_5  and  C_6
REMARK    5  A    between atoms: N_12  and  C_13
REMARK    6  A    between atoms: C_13  and  C_14
REMARK                            x       y       z     vdW  Elec       q    Type
REMARK                         _______ _______ _______ _____ _____    ______ ____
ROOT
ATOM      1  O   UNL     1       7.058   6.079  19.763  0.00  0.00    +0.000 OA
ATOM      2  C   UNL     1       7.078   5.958  18.531  0.00  0.00    +0.000 C 
ATOM      3  N   UNL     1       6.232   5.040  17.880  0.00  0.00    +0.000 N 
ATOM      4  C   UNL     1       6.328   4.843  16.491  0.00  0.00    +0.000 A 
ATOM      5  N   UNL     1       7.123   5.486  15.668  0.00  0.00    +0.000 NA
ATOM      6  C   UNL     1       7.032   4.993  14.383  0.00  0.00    +0.000 A 
ATOM      7  C   UNL     1       7.790   5.422  13.277  0.00  0.00    +0.000 A 
ATOM      8  C   UNL     1       7.588   4.829  12.028  0.00  0.00    +0.000 A 
ATOM      9  C   UNL     1       6.637   3.824  11.872  0.00  0.00    +0.000 A 
ATOM     10  C   UNL     1       5.875   3.379  12.958  0.00  0.00    +0.000 A 
ATOM     11  C   UNL     1       6.100   3.973  14.209  0.00  0.00    +0.000 A 
ATOM     12  S   UNL     1       5.378   3.632  15.727  0.00  0.00    +0.000 S 
ENDROOT
BRANCH   2  13
ATOM     13  C   UNL     1       8.027   6.846  17.726  0.00  0.00    +0.000 C 
BRANCH  13  14
ATOM     14  C   UNL     1       7.712   8.340  17.815  0.00  0.00    +0.000 C 
BRANCH  14  15
ATOM     15  S   UNL     1       8.866   9.084  19.038  0.00  0.00    +0.000 S 
BRANCH  15  16
ATOM     16  C   UNL     1       9.255  10.684  18.347  0.00  0.00    +0.000 A 
ATOM     17  C   UNL     1       8.181  11.484  17.930  0.00  0.00    +0.000 A 
ATOM     18  C   UNL     1       8.395  12.770  17.428  0.00  0.00    +0.000 A 
ATOM     19  C   UNL     1       9.689  13.273  17.345  0.00  0.00    +0.000 A 
ATOM     20  C   UNL     1      10.763  12.494  17.765  0.00  0.00    +0.000 A 
ATOM     21  C   UNL     1      10.548  11.206  18.266  0.00  0.00    +0.000 A 
ENDBRANCH  15  16
ENDBRANCH  14  15
ENDBRANCH  13  14
ENDBRANCH   2  13
BRANCH   3  22
ATOM     22  C   UNL     1       5.341   4.234  18.745  0.00  0.00    +0.000 C 
BRANCH  22  23
ATOM     23  C   UNL     1       4.084   4.946  19.212  0.00  0.00    +0.000 A 
ATOM     24  C   UNL     1       3.276   4.400  20.207  0.00  0.00    +0.000 A 
ATOM     25  C   UNL     1       2.137   5.099  20.607  0.00  0.00    +0.000 A 
ATOM     26  C   UNL     1       1.833   6.317  20.010  0.00  0.00    +0.000 A 
ATOM     27  C   UNL     1       2.675   6.785  19.020  0.00  0.00    +0.000 A 
ATOM     28  N   UNL     1       3.778   6.124  18.604  0.00  0.00    +0.000 NA
ENDBRANCH  22  23
ENDBRANCH   3  22
TORSDOF 6
ENDMDL
MODEL 9
REMARK VINA RESULT:      -7.6      1.040      1.503
REMARK  Name = 
REMARK  6 active torsions:
REMARK  status: ('A' for Active; 'I' for Inactive)
REMARK    1  A    between atoms: C_2  and  C_3
REMARK    2  A    between atoms: C_3  and  C_4
REMARK    3  A    between atoms: C_4  and  S_5
REMARK    4  A    between atoms: S_5  and  C_6
REMARK    5  A    between atoms: N_12  and  C_13
REMARK    6  A    between atoms: C_13  and  C_14
REMARK                            x       y       z     vdW  Elec       q    Type
REMARK                         _______ _______ _______ _____ _____    ______ ____
ROOT
ATOM      1  O   UNL     1       7.089   6.125  19.634  0.00  0.00    +0.000 OA
ATOM      2  C   UNL     1       7.111   6.006  18.401  0.00  0.00    +0.000 C 
ATOM      3  N   UNL     1       6.363   5.002  17.757  0.00  0.00    +0.000 N 
ATOM      4  C   UNL     1       6.466   4.816  16.367  0.00  0.00    +0.000 A 
ATOM      5  N   UNL     1       7.179   5.540  15.538  0.00  0.00    +0.000 NA
ATOM      6  C   UNL     1       7.129   5.040  14.253  0.00  0.00    +0.000 A 
ATOM      7  C   UNL     1       7.827   5.548  13.141  0.00  0.00    +0.000 A 
ATOM      8  C   UNL     1       7.678   4.935  11.893  0.00  0.00    +0.000 A 
ATOM      9  C   UNL     1       6.839   3.834  11.745  0.00  0.00    +0.000 A 
ATOM     10  C   UNL     1       6.140   3.310  12.838  0.00  0.00    +0.000 A 
ATOM     11  C   UNL     1       6.312   3.926  14.088  0.00  0.00    +0.000 A 
ATOM     12  S   UNL     1       5.645   3.509  15.612  0.00  0.00    +0.000 S 
ENDROOT
BRANCH   2  13
ATOM     13  C   UNL     1       7.951   6.991  17.587  0.00  0.00    +0.000 C 
BRANCH  13  14
ATOM     14  C   UNL     1       7.632   8.462  17.862  0.00  0.00    +0.000 C 
BRANCH  14  15
ATOM     15  S   UNL     1       8.934   9.117  18.984  0.00  0.00    +0.000 S 
BRANCH  15  16
ATOM     16  C   UNL     1       9.253  10.760  18.361  0.00  0.00    +0.000 A 
ATOM     17  C   UNL     1       8.172  11.458  17.802  0.00  0.00    +0.000 A 
ATOM     18  C   UNL     1       8.324  12.768  17.341  0.00  0.00    +0.000 A 
ATOM     19  C   UNL     1       9.560  13.397  17.441  0.00  0.00    +0.000 A 
ATOM     20  C   UNL     1      10.638  12.720  18.003  0.00  0.00    +0.000 A 
ATOM     21  C   UNL     1      10.486  11.407  18.464  0.00  0.00    +0.000 A 
ENDBRANCH  15  16
ENDBRANCH  14  15
ENDBRANCH  13  14
ENDBRANCH   2  13
BRANCH   3  22
ATOM     22  C   UNL     1       5.572   4.105  18.631  0.00  0.00    +0.000 C 
BRANCH  22  23
ATOM     23  C   UNL     1       4.070   4.162  18.417  0.00  0.00    +0.000 A 
ATOM     24  C   UNL     1       3.306   2.999  18.369  0.00  0.00    +0.000 A 
ATOM     25  C   UNL     1       1.928   3.106  18.180  0.00  0.00    +0.000 A 
ATOM     26  C   UNL     1       1.348   4.363  18.046  0.00  0.00    +0.000 A 
ATOM     27  C   UNL     1       2.175   5.469  18.090  0.00  0.00    +0.000 A 
ATOM     28  N   UNL     1       3.514   5.394  18.258  0.00  0.00    +0.000 NA
ENDBRANCH  22  23
ENDBRANCH   3  22
TORSDOF 6
ENDMDL
