MODEL 1
REMARK VINA RESULT:      -5.9      0.000      0.000
REMARK  Name = 
REMARK  6 active torsions:
REMARK  status: ('A' for Active; 'I' for Inactive)
REMARK    1  A    between atoms: C_1  and  C_2
REMARK    2  A    between atoms: C_2  and  C_3
REMARK    3  A    between atoms: C_3  and  C_4
REMARK    4  A    between atoms: C_6  and  C_7
REMARK    5  A    between atoms: C_8  and  C_9
REMARK    6  A    between atoms: C_9  and  O_10
REMARK                            x       y       z     vdW  Elec       q    Type
REMARK                         _______ _______ _______ _____ _____    ______ ____
ROOT
ATOM      1  C   UNL     1       2.160   2.130  18.520  0.00  0.00    +0.000 C 
ATOM      2  C   UNL     1       2.595   2.987  17.400  0.00  0.00    +0.000 C 
ATOM      3  C   UNL     1       3.778   3.550  17.640  0.00  0.00    +0.000 C 
ATOM      4  C   UNL     1       4.209   3.044  18.962  0.00  0.00    +0.000 C 
ATOM      5  O   UNL     1       5.245   3.309  19.542  0.00  0.00    +0.000 OA
ATOM      6  O   UNL     1       3.249   2.199  19.443  0.00  0.00    +0.000 OA
ENDROOT
BRANCH   3   7
ATOM      7  C   UNL     1       4.452   4.459  16.757  0.00  0.00    +0.000 C 
ATOM      8  C   UNL     1       5.413   4.152  15.870  0.00  0.00    +0.000 C 
BRANCH   8   9
ATOM      9  C   UNL     1       6.084   5.133  14.965  0.00  0.00    +0.000 C 
BRANCH   9  10
ATOM     10  O   UNL     1       5.633   6.453  15.230  0.00  0.00    +0.000 OA
ATOM     11  H   UNL     1       5.038   6.691  14.497  0.00  0.00    +0.000 HD
ENDBRANCH   9  10
ENDBRANCH   8   9
ENDBRANCH   3   7
BRANCH   1  12
ATOM     12  C   UNL     1       0.886   2.620  19.213  0.00  0.00    +0.000 C 
BRANCH  12  14
ATOM     13  C   UNL     1       1.289   4.733  20.530  0.00  0.00    +0.000 C 
ATOM     14  C   UNL     1       1.153   3.223  20.592  0.00  0.00    +0.000 C 
ENDBRANCH  12  14
ENDBRANCH   1  12
TORSDOF 5
ENDMDL
MODEL 2
REMARK VINA RESULT:      -5.9      1.305      1.557
REMARK  Name = 
REMARK  6 active torsions:
REMARK  status: ('A' for Active; 'I' for Inactive)
REMARK    1  A    between atoms: C_1  and  C_2
REMARK    2  A    between atoms: C_2  and  C_3
REMARK    3  A    between atoms: C_3  and  C_4
REMARK    4  A    between atoms: C_6  and  C_7
REMARK    5  A    between atoms: C_8  and  C_9
REMARK    6  A    between atoms: C_9  and  O_10
REMARK                            x       y       z     vdW  Elec       q    Type
REMARK                         _______ _______ _______ _____ _____    ______ ____
ROOT
ATOM      1  C   UNL     1       3.014   3.478  18.915  0.00  0.00    +0.000 C 
ATOM      2  C   UNL     1       3.295   3.834  17.511  0.00  0.00    +0.000 C 
ATOM      3  C   UNL     1       4.563   4.203  17.339  0.00  0.00    +0.000 C 
ATOM      4  C   UNL     1       5.208   4.069  18.664  0.00  0.00    +0.000 C 
ATOM      5  O   UNL     1       6.372   4.299  18.934  0.00  0.00    +0.000 OA
ATOM      6  O   UNL     1       4.280   3.625  19.562  0.00  0.00    +0.000 OA
ENDROOT
BRANCH   3   7
ATOM      7  C   UNL     1       5.134   4.636  16.095  0.00  0.00    +0.000 C 
ATOM      8  C   UNL     1       6.060   3.988  15.370  0.00  0.00    +0.000 C 
BRANCH   8   9
ATOM      9  C   UNL     1       6.624   4.475  14.074  0.00  0.00    +0.000 C 
BRANCH   9  10
ATOM     10  O   UNL     1       7.639   5.441  14.299  0.00  0.00    +0.000 OA
ATOM     11  H   UNL     1       7.586   5.679  15.241  0.00  0.00    +0.000 HD
ENDBRANCH   9  10
ENDBRANCH   8   9
ENDBRANCH   3   7
BRANCH   1  12
ATOM     12  C   UNL     1       1.997   4.401  19.593  0.00  0.00    +0.000 C 
BRANCH  12  14
ATOM     13  C   UNL     1       1.382   2.785  21.429  0.00  0.00    +0.000 C 
ATOM     14  C   UNL     1       0.868   3.635  20.282  0.00  0.00    +0.000 C 
ENDBRANCH  12  14
ENDBRANCH   1  12
TORSDOF 5
ENDMDL
MODEL 3
REMARK VINA RESULT:      -5.7      1.672      1.838
REMARK  Name = 
REMARK  6 active torsions:
REMARK  status: ('A' for Active; 'I' for Inactive)
REMARK    1  A    between atoms: C_1  and  C_2
REMARK    2  A    between atoms: C_2  and  C_3
REMARK    3  A    between atoms: C_3  and  C_4
REMARK    4  A    between atoms: C_6  and  C_7
REMARK    5  A    between atoms: C_8  and  C_9
REMARK    6  A    between atoms: C_9  and  O_10
REMARK                            x       y       z     vdW  Elec       q    Type
REMARK                         _______ _______ _______ _____ _____    ______ ____
ROOT
ATOM      1  C   UNL     1       1.289   3.437  18.415  0.00  0.00    +0.000 C 
ATOM      2  C   UNL     1       2.398   4.342  18.055  0.00  0.00    +0.000 C 
ATOM      3  C   UNL     1       3.531   3.675  17.844  0.00  0.00    +0.000 C 
ATOM      4  C   UNL     1       3.201   2.244  18.030  0.00  0.00    +0.000 C 
ATOM      5  O   UNL     1       3.960   1.300  17.915  0.00  0.00    +0.000 OA
ATOM      6  O   UNL     1       1.876   2.136  18.344  0.00  0.00    +0.000 OA
ENDROOT
BRANCH   3   7
ATOM      7  C   UNL     1       4.791   4.276  17.510  0.00  0.00    +0.000 C 
ATOM      8  C   UNL     1       5.563   3.981  16.451  0.00  0.00    +0.000 C 
BRANCH   8   9
ATOM      9  C   UNL     1       6.869   4.638  16.138  0.00  0.00    +0.000 C 
BRANCH   9  10
ATOM     10  O   UNL     1       7.903   4.118  16.960  0.00  0.00    +0.000 OA
ATOM     11  H   UNL     1       8.699   4.641  16.762  0.00  0.00    +0.000 HD
ENDBRANCH   9  10
ENDBRANCH   8   9
ENDBRANCH   3   7
BRANCH   1  12
ATOM     12  C   UNL     1       0.743   3.663  19.827  0.00  0.00    +0.000 C 
BRANCH  12  14
ATOM     13  C   UNL     1       2.293   3.039  21.718  0.00  0.00    +0.000 C 
ATOM     14  C   UNL     1       1.811   4.153  20.806  0.00  0.00    +0.000 C 
ENDBRANCH  12  14
ENDBRANCH   1  12
TORSDOF 5
ENDMDL
MODEL 4
REMARK VINA RESULT:      -5.7      2.367      6.097
REMARK  Name = 
REMARK  6 active torsions:
REMARK  status: ('A' for Active; 'I' for Inactive)
REMARK    1  A    between atoms: C_1  and  C_2
REMARK    2  A    between atoms: C_2  and  C_3
REMARK    3  A    between atoms: C_3  and  C_4
REMARK    4  A    between atoms: C_6  and  C_7
REMARK    5  A    between atoms: C_8  and  C_9
REMARK    6  A    between atoms: C_9  and  O_10
REMARK                            x       y       z     vdW  Elec       q    Type
REMARK                         _______ _______ _______ _____ _____    ______ ____
ROOT
ATOM      1  C   UNL     1       6.459   4.842  14.108  0.00  0.00    +0.000 C 
ATOM      2  C   UNL     1       5.292   4.497  14.943  0.00  0.00    +0.000 C 
ATOM      3  C   UNL     1       5.639   4.274  16.209  0.00  0.00    +0.000 C 
ATOM      4  C   UNL     1       7.099   4.503  16.277  0.00  0.00    +0.000 C 
ATOM      5  O   UNL     1       7.806   4.415  17.263  0.00  0.00    +0.000 OA
ATOM      6  O   UNL     1       7.547   4.854  15.035  0.00  0.00    +0.000 OA
ENDROOT
BRANCH   3   7
ATOM      7  C   UNL     1       4.735   3.887  17.255  0.00  0.00    +0.000 C 
ATOM      8  C   UNL     1       3.417   3.661  17.131  0.00  0.00    +0.000 C 
BRANCH   8   9
ATOM      9  C   UNL     1       2.512   3.254  18.250  0.00  0.00    +0.000 C 
BRANCH   9  10
ATOM     10  O   UNL     1       1.151   3.401  17.874  0.00  0.00    +0.000 OA
ATOM     11  H   UNL     1       1.144   3.986  17.096  0.00  0.00    +0.000 HD
ENDBRANCH   9  10
ENDBRANCH   8   9
ENDBRANCH   3   7
BRANCH   1  12
ATOM     12  C   UNL     1       6.753   3.821  13.006  0.00  0.00    +0.000 C 
BRANCH  12  14
ATOM     13  C   UNL     1       5.701   2.073  11.521  0.00  0.00    +0.000 C 
ATOM     14  C   UNL     1       5.499   3.393  12.243  0.00  0.00    +0.000 C 
ENDBRANCH  12  14
ENDBRANCH   1  12
TORSDOF 5
ENDMDL
MODEL 5
REMARK VINA RESULT:      -5.7      2.441      3.006
REMARK  Name = 
REMARK  6 active torsions:
REMARK  status: ('A' for Active; 'I' for Inactive)
REMARK    1  A    between atoms: C_1  and  C_2
REMARK    2  A    between atoms: C_2  and  C_3
REMARK    3  A    between atoms: C_3  and  C_4
REMARK    4  A    between atoms: C_6  and  C_7
REMARK    5  A    between atoms: C_8  and  C_9
REMARK    6  A    between atoms: C_9  and  O_10
REMARK                            x       y       z     vdW  Elec       q    Type
REMARK                         _______ _______ _______ _____ _____    ______ ____
ROOT
ATOM      1  C   UNL     1       1.828   4.294  18.162  0.00  0.00    +0.000 C 
ATOM      2  C   UNL     1       2.849   5.134  18.818  0.00  0.00    +0.000 C 
ATOM      3  C   UNL     1       4.041   5.004  18.240  0.00  0.00    +0.000 C 
ATOM      4  C   UNL     1       3.846   4.063  17.115  0.00  0.00    +0.000 C 
ATOM      5  O   UNL     1       4.692   3.685  16.325  0.00  0.00    +0.000 OA
ATOM      6  O   UNL     1       2.535   3.680  17.084  0.00  0.00    +0.000 OA
ENDROOT
BRANCH   3   7
ATOM      7  C   UNL     1       5.241   5.665  18.668  0.00  0.00    +0.000 C 
ATOM      8  C   UNL     1       6.445   5.098  18.856  0.00  0.00    +0.000 C 
BRANCH   8   9
ATOM      9  C   UNL     1       7.672   5.828  19.298  0.00  0.00    +0.000 C 
BRANCH   9  10
ATOM     10  O   UNL     1       8.063   5.411  20.598  0.00  0.00    +0.000 OA
ATOM     11  H   UNL     1       8.819   4.810  20.476  0.00  0.00    +0.000 HD
ENDBRANCH   9  10
ENDBRANCH   8   9
ENDBRANCH   3   7
BRANCH   1  12
ATOM     12  C   UNL     1       1.253   3.202  19.069  0.00  0.00    +0.000 C 
BRANCH  12  14
ATOM     13  C   UNL     1       1.644   2.846  21.535  0.00  0.00    +0.000 C 
ATOM     14  C   UNL     1       0.958   3.699  20.484  0.00  0.00    +0.000 C 
ENDBRANCH  12  14
ENDBRANCH   1  12
TORSDOF 5
ENDMDL
MODEL 6
REMARK VINA RESULT:      -5.6      1.842      2.404
REMARK  Name = 
REMARK  6 active torsions:
REMARK  status: ('A' for Active; 'I' for Inactive)
REMARK    1  A    between atoms: C_1  and  C_2
REMARK    2  A    between atoms: C_2  and  C_3
REMARK    3  A    between atoms: C_3  and  C_4
REMARK    4  A    between atoms: C_6  and  C_7
REMARK    5  A    between atoms: C_8  and  C_9
REMARK    6  A    between atoms: C_9  and  O_10
REMARK                            x       y       z     vdW  Elec       q    Type
REMARK                         _______ _______ _______ _____ _____    ______ ____
ROOT
ATOM      1  C   UNL     1       3.921   4.055  19.147  0.00  0.00    +0.000 C 
ATOM      2  C   UNL     1       3.861   4.190  17.679  0.00  0.00    +0.000 C 
ATOM      3  C   UNL     1       5.068   4.392  17.152  0.00  0.00    +0.000 C 
ATOM      4  C   UNL     1       6.016   4.365  18.287  0.00  0.00    +0.000 C 
ATOM      5  O   UNL     1       7.225   4.500  18.231  0.00  0.00    +0.000 OA
ATOM      6  O   UNL     1       5.317   4.147  19.440  0.00  0.00    +0.000 OA
ENDROOT
BRANCH   3   7
ATOM      7  C   UNL     1       5.334   4.593  15.756  0.00  0.00    +0.000 C 
ATOM      8  C   UNL     1       6.158   3.864  14.985  0.00  0.00    +0.000 C 
BRANCH   8   9
ATOM      9  C   UNL     1       6.402   4.106  13.530  0.00  0.00    +0.000 C 
BRANCH   9  10
ATOM     10  O   UNL     1       6.247   2.906  12.788  0.00  0.00    +0.000 OA
ATOM     11  H   UNL     1       6.547   3.103  11.883  0.00  0.00    +0.000 HD
ENDBRANCH   9  10
ENDBRANCH   8   9
ENDBRANCH   3   7
BRANCH   1  12
ATOM     12  C   UNL     1       3.179   5.164  19.899  0.00  0.00    +0.000 C 
BRANCH  12  14
ATOM     13  C   UNL     1       1.059   3.851  20.275  0.00  0.00    +0.000 C 
ATOM     14  C   UNL     1       2.189   4.624  20.930  0.00  0.00    +0.000 C 
ENDBRANCH  12  14
ENDBRANCH   1  12
TORSDOF 5
ENDMDL
MODEL 7
REMARK VINA RESULT:      -5.5      2.411      3.699
REMARK  Name = 
REMARK  6 active torsions:
REMARK  status: ('A' for Active; 'I' for Inactive)
REMARK    1  A    between atoms: C_1  and  C_2
REMARK    2  A    between atoms: C_2  and  C_3
REMARK    3  A    between atoms: C_3  and  C_4
REMARK    4  A    between atoms: C_6  and  C_7
REMARK    5  A    between atoms: C_8  and  C_9
REMARK    6  A    between atoms: C_9  and  O_10
REMARK                            x       y       z     vdW  Elec       q    Type
REMARK                         _______ _______ _______ _____ _____    ______ ____
ROOT
ATOM      1  C   UNL     1       5.243   4.446  18.180  0.00  0.00    +0.000 C 
ATOM      2  C   UNL     1       4.876   3.993  16.825  0.00  0.00    +0.000 C 
ATOM      3  C   UNL     1       5.630   4.569  15.890  0.00  0.00    +0.000 C 
ATOM      4  C   UNL     1       6.585   5.435  16.616  0.00  0.00    +0.000 C 
ATOM      5  O   UNL     1       7.458   6.129  16.127  0.00  0.00    +0.000 OA
ATOM      6  O   UNL     1       6.346   5.327  17.957  0.00  0.00    +0.000 OA
ENDROOT
BRANCH   3   7
ATOM      7  C   UNL     1       5.496   4.358  14.477  0.00  0.00    +0.000 C 
ATOM      8  C   UNL     1       6.340   3.677  13.685  0.00  0.00    +0.000 C 
BRANCH   8   9
ATOM      9  C   UNL     1       6.158   3.476  12.215  0.00  0.00    +0.000 C 
BRANCH   9  10
ATOM     10  O   UNL     1       6.155   2.094  11.893  0.00  0.00    +0.000 OA
ATOM     11  H   UNL     1       6.226   1.616  12.738  0.00  0.00    +0.000 HD
ENDBRANCH   9  10
ENDBRANCH   8   9
ENDBRANCH   3   7
BRANCH   1  12
ATOM     12  C   UNL     1       4.128   5.214  18.896  0.00  0.00    +0.000 C 
BRANCH  12  14
ATOM     13  C   UNL     1       1.764   4.333  18.864  0.00  0.00    +0.000 C 
ATOM     14  C   UNL     1       2.799   5.175  18.140  0.00  0.00    +0.000 C 
ENDBRANCH  12  14
ENDBRANCH   1  12
TORSDOF 5
ENDMDL
MODEL 8
REMARK VINA RESULT:      -5.5      1.881      2.937
REMARK  Name = 
REMARK  6 active torsions:
REMARK  status: ('A' for Active; 'I' for Inactive)
REMARK    1  A    between atoms: C_1  and  C_2
REMARK    2  A    between atoms: C_2  and  C_3
REMARK    3  A    between atoms: C_3  and  C_4
REMARK    4  A    between atoms: C_6  and  C_7
REMARK    5  A    between atoms: C_8  and  C_9
REMARK    6  A    between atoms: C_9  and  O_10
REMARK                            x       y       z     vdW  Elec       q    Type
REMARK                         _______ _______ _______ _____ _____    ______ ____
ROOT
ATOM      1  C   UNL     1       4.237   3.952  17.684  0.00  0.00    +0.000 C 
ATOM      2  C   UNL     1       4.863   4.123  16.359  0.00  0.00    +0.000 C 
ATOM      3  C   UNL     1       6.152   4.441  16.460  0.00  0.00    +0.000 C 
ATOM      4  C   UNL     1       6.454   4.463  17.908  0.00  0.00    +0.000 C 
ATOM      5  O   UNL     1       7.529   4.701  18.426  0.00  0.00    +0.000 OA
ATOM      6  O   UNL     1       5.316   4.153  18.598  0.00  0.00    +0.000 OA
ENDROOT
BRANCH   3   7
ATOM      7  C   UNL     1       7.025   4.704  15.351  0.00  0.00    +0.000 C 
ATOM      8  C   UNL     1       6.691   4.697  14.049  0.00  0.00    +0.000 C 
BRANCH   8   9
ATOM      9  C   UNL     1       7.634   4.982  12.925  0.00  0.00    +0.000 C 
BRANCH   9  10
ATOM     10  O   UNL     1       8.629   5.911  13.327  0.00  0.00    +0.000 OA
ATOM     11  H   UNL     1       8.256   6.796  13.170  0.00  0.00    +0.000 HD
ENDBRANCH   9  10
ENDBRANCH   8   9
ENDBRANCH   3   7
BRANCH   1  12
ATOM     12  C   UNL     1       3.134   4.972  17.981  0.00  0.00    +0.000 C 
BRANCH  12  14
ATOM     13  C   UNL     1       1.489   3.099  18.366  0.00  0.00    +0.000 C 
ATOM     14  C   UNL     1       1.733   4.435  17.689  0.00  0.00    +0.000 C 
ENDBRANCH  12  14
ENDBRANCH   1  12
TORSDOF 5
ENDMDL
MODEL 9
REMARK VINA RESULT:      -5.5      2.690      5.814
REMARK  Name = 
REMARK  6 active torsions:
REMARK  status: ('A' for Active; 'I' for Inactive)
REMARK    1  A    between atoms: C_1  and  C_2
REMARK    2  A    between atoms: C_2  and  C_3
REMARK    3  A    between atoms: C_3  and  C_4
REMARK    4  A    between atoms: C_6  and  C_7
REMARK    5  A    between atoms: C_8  and  C_9
REMARK    6  A    between atoms: C_9  and  O_10
REMARK                            x       y       z     vdW  Elec       q    Type
REMARK                         _______ _______ _______ _____ _____    ______ ____
ROOT
ATOM      1  C   UNL     1       6.743   5.171  14.990  0.00  0.00    +0.000 C 
ATOM      2  C   UNL     1       5.498   5.137  15.782  0.00  0.00    +0.000 C 
ATOM      3  C   UNL     1       5.727   4.792  17.048  0.00  0.00    +0.000 C 
ATOM      4  C   UNL     1       7.191   4.610  17.161  0.00  0.00    +0.000 C 
ATOM      5  O   UNL     1       7.812   4.303  18.161  0.00  0.00    +0.000 OA
ATOM      6  O   UNL     1       7.760   4.857  15.944  0.00  0.00    +0.000 OA
ENDROOT
BRANCH   3   7
ATOM      7  C   UNL     1       4.716   4.641  18.056  0.00  0.00    +0.000 C 
ATOM      8  C   UNL     1       4.102   5.628  18.729  0.00  0.00    +0.000 C 
BRANCH   8   9
ATOM      9  C   UNL     1       3.048   5.424  19.769  0.00  0.00    +0.000 C 
BRANCH   9  10
ATOM     10  O   UNL     1       2.608   6.669  20.289  0.00  0.00    +0.000 OA
ATOM     11  H   UNL     1       2.192   7.144  19.548  0.00  0.00    +0.000 HD
ENDBRANCH   9  10
ENDBRANCH   8   9
ENDBRANCH   3   7
BRANCH   1  12
ATOM     12  C   UNL     1       6.783   4.139  13.860  0.00  0.00    +0.000 C 
BRANCH  12  14
ATOM     13  C   UNL     1       5.474   3.112  11.964  0.00  0.00    +0.000 C 
ATOM     14  C   UNL     1       5.396   3.802  13.313  0.00  0.00    +0.000 C 
ENDBRANCH  12  14
ENDBRANCH   1  12
TORSDOF 5
ENDMDL
