MODEL 1
REMARK VINA RESULT:      -8.6      0.000      0.000
REMARK  Name = 
REMARK  4 active torsions:
REMARK  status: ('A' for Active; 'I' for Inactive)
REMARK    1  A    between atoms: C_1  and  C_2
REMARK    2  A    between atoms: C_2  and  C_3
REMARK    3  A    between atoms: C_7  and  C_9
REMARK    4  A    between atoms: C_12  and  C_13
REMARK                            x       y       z     vdW  Elec       q    Type
REMARK                         _______ _______ _______ _____ _____    ______ ____
ROOT
ATOM      1  C   UNL     1       3.576   5.363  18.433  0.00  0.00    +0.000 A 
ATOM      2  N   UNL     1       2.797   6.237  19.131  0.00  0.00    +0.000 NA
ATOM      3  C   UNL     1       2.652   7.503  18.702  0.00  0.00    +0.000 A 
ATOM      4  N   UNL     1       1.891   8.406  19.455  0.00  0.00    +0.000 N 
ATOM      5  C   UNL     1       1.244   8.089  20.637  0.00  0.00    +0.000 C 
ATOM      6  O   UNL     1       1.193   6.995  21.193  0.00  0.00    +0.000 OA
ATOM      7  C   UNL     1       3.260   7.949  17.532  0.00  0.00    +0.000 A 
ATOM      8  C   UNL     1       4.036   7.054  16.794  0.00  0.00    +0.000 A 
ATOM      9  C   UNL     1       4.195   5.753  17.249  0.00  0.00    +0.000 A 
ATOM     10  F   UNL     1       4.964   4.914  16.543  0.00  0.00    +0.000 F 
ATOM     11  H   UNL     1       1.818   9.369  19.148  0.00  0.00    +0.000 HD
ENDROOT
BRANCH   1  13
ATOM     12  C   UNL     1       5.269   3.918  19.627  0.00  0.00    +0.000 C 
ATOM     13  C   UNL     1       3.847   3.970  19.040  0.00  0.00    +0.000 C 
ATOM     14  N   UNL     1       2.898   3.721  20.146  0.00  0.00    +0.000 NA
ATOM     15  C   UNL     1       1.726   3.299  19.832  0.00  0.00    +0.000 C 
ATOM     16  N   UNL     1       0.714   3.236  20.727  0.00  0.00    +0.000 N 
ATOM     17  O   UNL     1       1.350   2.810  18.626  0.00  0.00    +0.000 OA
ATOM     18  C   UNL     1       2.371   2.391  17.702  0.00  0.00    +0.000 C 
ATOM     19  C   UNL     1       3.415   1.447  18.248  0.00  0.00    +0.000 C 
ATOM     20  C   UNL     1       3.747   2.899  17.975  0.00  0.00    +0.000 C 
ATOM     21  H   UNL     1       1.033   3.231  21.687  0.00  0.00    +0.000 HD
ATOM     22  H   UNL     1      -0.003   2.565  20.499  0.00  0.00    +0.000 HD
ENDBRANCH   1  13
BRANCH   5  23
ATOM     23  C   UNL     1       0.535   9.242  21.284  0.00  0.00    +0.000 A 
ATOM     24  C   UNL     1      -0.106   9.051  22.507  0.00  0.00    +0.000 A 
ATOM     25  C   UNL     1      -0.739  10.137  23.111  0.00  0.00    +0.000 A 
ATOM     26  C   UNL     1      -0.712  11.379  22.478  0.00  0.00    +0.000 A 
ATOM     27  C   UNL     1      -0.052  11.475  21.257  0.00  0.00    +0.000 A 
ATOM     28  N   UNL     1       0.573  10.440  20.634  0.00  0.00    +0.000 NA
BRANCH  26  29
ATOM     29  C   UNL     1      -1.338  12.525  23.060  0.00  0.00    +0.000 C 
ATOM     30  N   UNL     1      -1.841  13.460  23.535  0.00  0.00    +0.000 NA
ENDBRANCH  26  29
ENDBRANCH   5  23
TORSDOF 3
ENDMDL
MODEL 2
REMARK VINA RESULT:      -8.0      2.076      3.423
REMARK  Name = 
REMARK  4 active torsions:
REMARK  status: ('A' for Active; 'I' for Inactive)
REMARK    1  A    between atoms: C_1  and  C_2
REMARK    2  A    between atoms: C_2  and  C_3
REMARK    3  A    between atoms: C_7  and  C_9
REMARK    4  A    between atoms: C_12  and  C_13
REMARK                            x       y       z     vdW  Elec       q    Type
REMARK                         _______ _______ _______ _____ _____    ______ ____
ROOT
ATOM      1  C   UNL     1       3.587   4.110  19.172  0.00  0.00    +0.000 A 
ATOM      2  N   UNL     1       2.989   5.258  19.601  0.00  0.00    +0.000 NA
ATOM      3  C   UNL     1       2.243   5.252  20.719  0.00  0.00    +0.000 A 
ATOM      4  N   UNL     1       1.591   6.424  21.122  0.00  0.00    +0.000 N 
ATOM      5  C   UNL     1       1.664   7.631  20.448  0.00  0.00    +0.000 C 
ATOM      6  O   UNL     1       2.315   7.889  19.440  0.00  0.00    +0.000 OA
ATOM      7  C   UNL     1       2.083   4.099  21.482  0.00  0.00    +0.000 A 
ATOM      8  C   UNL     1       2.716   2.925  21.068  0.00  0.00    +0.000 A 
ATOM      9  C   UNL     1       3.472   2.933  19.904  0.00  0.00    +0.000 A 
ATOM     10  F   UNL     1       4.051   1.792  19.506  0.00  0.00    +0.000 F 
ATOM     11  H   UNL     1       0.999   6.404  21.944  0.00  0.00    +0.000 HD
ENDROOT
BRANCH   1  13
ATOM     12  C   UNL     1       3.806   2.941  16.944  0.00  0.00    +0.000 C 
ATOM     13  C   UNL     1       4.300   4.119  17.802  0.00  0.00    +0.000 C 
ATOM     14  N   UNL     1       3.969   5.366  17.082  0.00  0.00    +0.000 NA
ATOM     15  C   UNL     1       4.646   6.416  17.382  0.00  0.00    +0.000 C 
ATOM     16  N   UNL     1       4.300   7.649  16.948  0.00  0.00    +0.000 N 
ATOM     17  O   UNL     1       5.799   6.446  18.093  0.00  0.00    +0.000 OA
ATOM     18  C   UNL     1       6.543   5.225  18.255  0.00  0.00    +0.000 C 
ATOM     19  C   UNL     1       6.832   4.451  16.992  0.00  0.00    +0.000 C 
ATOM     20  C   UNL     1       5.795   3.964  17.982  0.00  0.00    +0.000 C 
ATOM     21  H   UNL     1       3.695   7.631  16.139  0.00  0.00    +0.000 HD
ATOM     22  H   UNL     1       5.065   8.307  16.910  0.00  0.00    +0.000 HD
ENDBRANCH   1  13
BRANCH   5  23
ATOM     23  C   UNL     1       0.835   8.728  21.050  0.00  0.00    +0.000 A 
ATOM     24  C   UNL     1       0.550   8.699  22.413  0.00  0.00    +0.000 A 
ATOM     25  C   UNL     1      -0.198   9.739  22.966  0.00  0.00    +0.000 A 
ATOM     26  C   UNL     1      -0.638  10.774  22.141  0.00  0.00    +0.000 A 
ATOM     27  C   UNL     1      -0.309  10.717  20.790  0.00  0.00    +0.000 A 
ATOM     28  N   UNL     1       0.414   9.720  20.214  0.00  0.00    +0.000 NA
BRANCH  26  29
ATOM     29  C   UNL     1      -1.400  11.866  22.660  0.00  0.00    +0.000 C 
ATOM     30  N   UNL     1      -2.024  12.754  23.077  0.00  0.00    +0.000 NA
ENDBRANCH  26  29
ENDBRANCH   5  23
TORSDOF 3
ENDMDL
MODEL 3
REMARK VINA RESULT:      -7.8      3.424      8.931
REMARK  Name = 
REMARK  4 active torsions:
REMARK  status: ('A' for Active; 'I' for Inactive)
REMARK    1  A    between atoms: C_1  and  C_2
REMARK    2  A    between atoms: C_2  and  C_3
REMARK    3  A    between atoms: C_7  and  C_9
REMARK    4  A    between atoms: C_12  and  C_13
REMARK                            x       y       z     vdW  Elec       q    Type
REMARK                         _______ _______ _______ _____ _____    ______ ____
ROOT
ATOM      1  C   UNL     1      -0.011  11.082  21.128  0.00  0.00    +0.000 A 
ATOM      2  N   UNL     1       0.656  10.192  20.339  0.00  0.00    +0.000 NA
ATOM      3  C   UNL     1       0.965   8.972  20.813  0.00  0.00    +0.000 A 
ATOM      4  N   UNL     1       1.696   8.084  20.012  0.00  0.00    +0.000 N 
ATOM      5  C   UNL     1       2.128   8.364  18.727  0.00  0.00    +0.000 C 
ATOM      6  O   UNL     1       1.926   9.384  18.073  0.00  0.00    +0.000 OA
ATOM      7  C   UNL     1       0.596   8.572  22.093  0.00  0.00    +0.000 A 
ATOM      8  C   UNL     1      -0.113   9.465  22.898  0.00  0.00    +0.000 A 
ATOM      9  C   UNL     1      -0.417  10.728  22.411  0.00  0.00    +0.000 A 
ATOM     10  F   UNL     1      -1.074  11.583  23.206  0.00  0.00    +0.000 F 
ATOM     11  H   UNL     1       1.961   7.181  20.388  0.00  0.00    +0.000 HD
ENDROOT
BRANCH   1  13
ATOM     12  C   UNL     1       0.999  13.394  21.005  0.00  0.00    +0.000 C 
ATOM     13  C   UNL     1      -0.207  12.523  20.609  0.00  0.00    +0.000 C 
ATOM     14  N   UNL     1      -0.283  12.509  19.134  0.00  0.00    +0.000 NA
ATOM     15  C   UNL     1      -1.417  12.221  18.605  0.00  0.00    +0.000 C 
ATOM     16  N   UNL     1      -1.560  11.974  17.283  0.00  0.00    +0.000 N 
ATOM     17  O   UNL     1      -2.611  12.184  19.247  0.00  0.00    +0.000 OA
ATOM     18  C   UNL     1      -2.728  12.835  20.525  0.00  0.00    +0.000 C 
ATOM     19  C   UNL     1      -2.243  14.263  20.590  0.00  0.00    +0.000 C 
ATOM     20  C   UNL     1      -1.445  13.142  21.221  0.00  0.00    +0.000 C 
ATOM     21  H   UNL     1      -0.804  12.346  16.726  0.00  0.00    +0.000 HD
ATOM     22  H   UNL     1      -2.490  12.137  16.927  0.00  0.00    +0.000 HD
ENDBRANCH   1  13
BRANCH   5  23
ATOM     23  C   UNL     1       2.937   7.271  18.093  0.00  0.00    +0.000 A 
ATOM     24  C   UNL     1       2.531   5.947  18.243  0.00  0.00    +0.000 A 
ATOM     25  C   UNL     1       3.276   4.941  17.626  0.00  0.00    +0.000 A 
ATOM     26  C   UNL     1       4.402   5.288  16.880  0.00  0.00    +0.000 A 
ATOM     27  C   UNL     1       4.734   6.636  16.788  0.00  0.00    +0.000 A 
ATOM     28  N   UNL     1       4.036   7.644  17.377  0.00  0.00    +0.000 NA
BRANCH  26  29
ATOM     29  C   UNL     1       5.193   4.297  16.221  0.00  0.00    +0.000 C 
ATOM     30  N   UNL     1       5.840   3.489  15.691  0.00  0.00    +0.000 NA
ENDBRANCH  26  29
ENDBRANCH   5  23
TORSDOF 3
ENDMDL
MODEL 4
REMARK VINA RESULT:      -7.7      3.347      8.935
REMARK  Name = 
REMARK  4 active torsions:
REMARK  status: ('A' for Active; 'I' for Inactive)
REMARK    1  A    between atoms: C_1  and  C_2
REMARK    2  A    between atoms: C_2  and  C_3
REMARK    3  A    between atoms: C_7  and  C_9
REMARK    4  A    between atoms: C_12  and  C_13
REMARK                            x       y       z     vdW  Elec       q    Type
REMARK                         _______ _______ _______ _____ _____    ______ ____
ROOT
ATOM      1  C   UNL     1      -0.341  11.007  21.149  0.00  0.00    +0.000 A 
ATOM      2  N   UNL     1       0.351  10.121  20.377  0.00  0.00    +0.000 NA
ATOM      3  C   UNL     1       0.881   9.016  20.930  0.00  0.00    +0.000 A 
ATOM      4  N   UNL     1       1.635   8.139  20.138  0.00  0.00    +0.000 N 
ATOM      5  C   UNL     1       1.875   8.317  18.787  0.00  0.00    +0.000 C 
ATOM      6  O   UNL     1       1.458   9.216  18.063  0.00  0.00    +0.000 OA
ATOM      7  C   UNL     1       0.719   8.728  22.282  0.00  0.00    +0.000 A 
ATOM      8  C   UNL     1      -0.013   9.614  23.075  0.00  0.00    +0.000 A 
ATOM      9  C   UNL     1      -0.545  10.760  22.503  0.00  0.00    +0.000 A 
ATOM     10  F   UNL     1      -1.223  11.613  23.283  0.00  0.00    +0.000 F 
ATOM     11  H   UNL     1       2.064   7.328  20.568  0.00  0.00    +0.000 HD
ENDROOT
BRANCH   1  13
ATOM     12  C   UNL     1      -2.330  12.450  20.563  0.00  0.00    +0.000 C 
ATOM     13  C   UNL     1      -0.795  12.339  20.514  0.00  0.00    +0.000 C 
ATOM     14  N   UNL     1      -0.240  13.468  21.289  0.00  0.00    +0.000 NA
ATOM     15  C   UNL     1       0.968  13.819  21.034  0.00  0.00    +0.000 C 
ATOM     16  N   UNL     1       1.650  14.691  21.813  0.00  0.00    +0.000 N 
ATOM     17  O   UNL     1       1.700  13.441  19.958  0.00  0.00    +0.000 OA
ATOM     18  C   UNL     1       1.017  12.889  18.818  0.00  0.00    +0.000 C 
ATOM     19  C   UNL     1      -0.150  13.689  18.292  0.00  0.00    +0.000 C 
ATOM     20  C   UNL     1      -0.373  12.405  19.062  0.00  0.00    +0.000 C 
ATOM     21  H   UNL     1       1.048  15.266  22.385  0.00  0.00    +0.000 HD
ATOM     22  H   UNL     1       2.400  15.173  21.340  0.00  0.00    +0.000 HD
ENDBRANCH   1  13
BRANCH   5  23
ATOM     23  C   UNL     1       2.753   7.267  18.171  0.00  0.00    +0.000 A 
ATOM     24  C   UNL     1       2.404   5.924  18.297  0.00  0.00    +0.000 A 
ATOM     25  C   UNL     1       3.213   4.959  17.697  0.00  0.00    +0.000 A 
ATOM     26  C   UNL     1       4.345   5.365  16.989  0.00  0.00    +0.000 A 
ATOM     27  C   UNL     1       4.617   6.727  16.919  0.00  0.00    +0.000 A 
ATOM     28  N   UNL     1       3.855   7.697  17.493  0.00  0.00    +0.000 NA
BRANCH  26  29
ATOM     29  C   UNL     1       5.201   4.416  16.349  0.00  0.00    +0.000 C 
ATOM     30  N   UNL     1       5.895   3.646  15.822  0.00  0.00    +0.000 NA
ENDBRANCH  26  29
ENDBRANCH   5  23
TORSDOF 3
ENDMDL
MODEL 5
REMARK VINA RESULT:      -7.6      1.518      2.378
REMARK  Name = 
REMARK  4 active torsions:
REMARK  status: ('A' for Active; 'I' for Inactive)
REMARK    1  A    between atoms: C_1  and  C_2
REMARK    2  A    between atoms: C_2  and  C_3
REMARK    3  A    between atoms: C_7  and  C_9
REMARK    4  A    between atoms: C_12  and  C_13
REMARK                            x       y       z     vdW  Elec       q    Type
REMARK                         _______ _______ _______ _____ _____    ______ ____
ROOT
ATOM      1  C   UNL     1       2.422   4.804  18.739  0.00  0.00    +0.000 A 
ATOM      2  N   UNL     1       1.866   5.904  19.322  0.00  0.00    +0.000 NA
ATOM      3  C   UNL     1       2.325   7.131  19.021  0.00  0.00    +0.000 A 
ATOM      4  N   UNL     1       1.782   8.250  19.665  0.00  0.00    +0.000 N 
ATOM      5  C   UNL     1       0.769   8.196  20.608  0.00  0.00    +0.000 C 
ATOM      6  O   UNL     1       0.167   7.202  21.004  0.00  0.00    +0.000 OA
ATOM      7  C   UNL     1       3.347   7.320  18.095  0.00  0.00    +0.000 A 
ATOM      8  C   UNL     1       3.903   6.202  17.470  0.00  0.00    +0.000 A 
ATOM      9  C   UNL     1       3.437   4.937  17.796  0.00  0.00    +0.000 A 
ATOM     10  F   UNL     1       3.999   3.873  17.207  0.00  0.00    +0.000 F 
ATOM     11  H   UNL     1       2.158   9.169  19.463  0.00  0.00    +0.000 HD
ENDROOT
BRANCH   1  13
ATOM     12  C   UNL     1       0.926   2.823  18.271  0.00  0.00    +0.000 C 
ATOM     13  C   UNL     1       1.980   3.408  19.228  0.00  0.00    +0.000 C 
ATOM     14  N   UNL     1       3.141   2.494  19.224  0.00  0.00    +0.000 NA
ATOM     15  C   UNL     1       3.931   2.541  20.236  0.00  0.00    +0.000 C 
ATOM     16  N   UNL     1       5.128   1.912  20.253  0.00  0.00    +0.000 N 
ATOM     17  O   UNL     1       3.674   3.147  21.421  0.00  0.00    +0.000 OA
ATOM     18  C   UNL     1       2.312   3.478  21.747  0.00  0.00    +0.000 C 
ATOM     19  C   UNL     1       1.305   2.364  21.601  0.00  0.00    +0.000 C 
ATOM     20  C   UNL     1       1.355   3.502  20.603  0.00  0.00    +0.000 C 
ATOM     21  H   UNL     1       5.194   1.168  19.572  0.00  0.00    +0.000 HD
ATOM     22  H   UNL     1       5.472   1.695  21.176  0.00  0.00    +0.000 HD
ENDBRANCH   1  13
BRANCH   5  23
ATOM     23  C   UNL     1       0.393   9.526  21.191  0.00  0.00    +0.000 A 
ATOM     24  C   UNL     1       0.780  10.693  20.536  0.00  0.00    +0.000 A 
ATOM     25  C   UNL     1       0.401  11.923  21.074  0.00  0.00    +0.000 A 
ATOM     26  C   UNL     1      -0.351  11.950  22.248  0.00  0.00    +0.000 A 
ATOM     27  C   UNL     1      -0.688  10.735  22.836  0.00  0.00    +0.000 A 
ATOM     28  N   UNL     1      -0.335   9.516  22.344  0.00  0.00    +0.000 NA
BRANCH  26  29
ATOM     29  C   UNL     1      -0.772  13.184  22.834  0.00  0.00    +0.000 C 
ATOM     30  N   UNL     1      -1.117  14.189  23.306  0.00  0.00    +0.000 NA
ENDBRANCH  26  29
ENDBRANCH   5  23
TORSDOF 3
ENDMDL
MODEL 6
REMARK VINA RESULT:      -7.4      2.797      4.052
REMARK  Name = 
REMARK  4 active torsions:
REMARK  status: ('A' for Active; 'I' for Inactive)
REMARK    1  A    between atoms: C_1  and  C_2
REMARK    2  A    between atoms: C_2  and  C_3
REMARK    3  A    between atoms: C_7  and  C_9
REMARK    4  A    between atoms: C_12  and  C_13
REMARK                            x       y       z     vdW  Elec       q    Type
REMARK                         _______ _______ _______ _____ _____    ______ ____
ROOT
ATOM      1  C   UNL     1       4.267   5.252  18.418  0.00  0.00    +0.000 A 
ATOM      2  N   UNL     1       3.505   6.372  18.579  0.00  0.00    +0.000 NA
ATOM      3  C   UNL     1       2.578   6.421  19.551  0.00  0.00    +0.000 A 
ATOM      4  N   UNL     1       1.766   7.556  19.675  0.00  0.00    +0.000 N 
ATOM      5  C   UNL     1       1.851   8.672  18.860  0.00  0.00    +0.000 C 
ATOM      6  O   UNL     1       2.645   8.873  17.946  0.00  0.00    +0.000 OA
ATOM      7  C   UNL     1       2.386   5.360  20.431  0.00  0.00    +0.000 A 
ATOM      8  C   UNL     1       3.181   4.220  20.292  0.00  0.00    +0.000 A 
ATOM      9  C   UNL     1       4.127   4.168  19.278  0.00  0.00    +0.000 A 
ATOM     10  F   UNL     1       4.863   3.057  19.142  0.00  0.00    +0.000 F 
ATOM     11  H   UNL     1       1.042   7.572  20.384  0.00  0.00    +0.000 HD
ENDROOT
BRANCH   1  13
ATOM     12  C   UNL     1       4.470   4.526  16.007  0.00  0.00    +0.000 C 
ATOM     13  C   UNL     1       5.207   5.170  17.195  0.00  0.00    +0.000 C 
ATOM     14  N   UNL     1       5.605   6.534  16.787  0.00  0.00    +0.000 NA
ATOM     15  C   UNL     1       6.573   7.081  17.429  0.00  0.00    +0.000 C 
ATOM     16  N   UNL     1       6.888   8.389  17.291  0.00  0.00    +0.000 N 
ATOM     17  O   UNL     1       7.437   6.450  18.261  0.00  0.00    +0.000 OA
ATOM     18  C   UNL     1       7.540   5.016  18.191  0.00  0.00    +0.000 C 
ATOM     19  C   UNL     1       7.753   4.432  16.816  0.00  0.00    +0.000 C 
ATOM     20  C   UNL     1       6.413   4.314  17.511  0.00  0.00    +0.000 C 
ATOM     21  H   UNL     1       6.532   8.795  16.437  0.00  0.00    +0.000 HD
ATOM     22  H   UNL     1       7.845   8.614  17.519  0.00  0.00    +0.000 HD
ENDBRANCH   1  13
BRANCH   5  23
ATOM     23  C   UNL     1       0.838   9.737  19.160  0.00  0.00    +0.000 A 
ATOM     24  C   UNL     1      -0.119  10.059  18.200  0.00  0.00    +0.000 A 
ATOM     25  C   UNL     1      -1.073  11.032  18.501  0.00  0.00    +0.000 A 
ATOM     26  C   UNL     1      -1.042  11.653  19.749  0.00  0.00    +0.000 A 
ATOM     27  C   UNL     1      -0.047  11.270  20.644  0.00  0.00    +0.000 A 
ATOM     28  N   UNL     1       0.902  10.330  20.386  0.00  0.00    +0.000 NA
BRANCH  26  29
ATOM     29  C   UNL     1      -2.001  12.648  20.110  0.00  0.00    +0.000 C 
ATOM     30  N   UNL     1      -2.784  13.459  20.396  0.00  0.00    +0.000 NA
ENDBRANCH  26  29
ENDBRANCH   5  23
TORSDOF 3
ENDMDL
MODEL 7
REMARK VINA RESULT:      -7.4      3.276      8.708
REMARK  Name = 
REMARK  4 active torsions:
REMARK  status: ('A' for Active; 'I' for Inactive)
REMARK    1  A    between atoms: C_1  and  C_2
REMARK    2  A    between atoms: C_2  and  C_3
REMARK    3  A    between atoms: C_7  and  C_9
REMARK    4  A    between atoms: C_12  and  C_13
REMARK                            x       y       z     vdW  Elec       q    Type
REMARK                         _______ _______ _______ _____ _____    ______ ____
ROOT
ATOM      1  C   UNL     1       0.187  11.711  21.367  0.00  0.00    +0.000 A 
ATOM      2  N   UNL     1       0.652  10.512  20.916  0.00  0.00    +0.000 NA
ATOM      3  C   UNL     1       0.349   9.380  21.576  0.00  0.00    +0.000 A 
ATOM      4  N   UNL     1       0.875   8.159  21.134  0.00  0.00    +0.000 N 
ATOM      5  C   UNL     1       1.696   8.016  20.029  0.00  0.00    +0.000 C 
ATOM      6  O   UNL     1       2.065   8.890  19.250  0.00  0.00    +0.000 OA
ATOM      7  C   UNL     1      -0.460   9.391  22.708  0.00  0.00    +0.000 A 
ATOM      8  C   UNL     1      -0.965  10.612  23.162  0.00  0.00    +0.000 A 
ATOM      9  C   UNL     1      -0.637  11.778  22.486  0.00  0.00    +0.000 A 
ATOM     10  F   UNL     1      -1.108  12.944  22.949  0.00  0.00    +0.000 F 
ATOM     11  H   UNL     1       0.676   7.315  21.658  0.00  0.00    +0.000 HD
ENDROOT
BRANCH   1  13
ATOM     12  C   UNL     1       1.242  13.978  21.729  0.00  0.00    +0.000 C 
ATOM     13  C   UNL     1       0.686  13.000  20.678  0.00  0.00    +0.000 C 
ATOM     14  N   UNL     1       1.787  12.669  19.750  0.00  0.00    +0.000 NA
ATOM     15  C   UNL     1       1.464  12.234  18.586  0.00  0.00    +0.000 C 
ATOM     16  N   UNL     1       2.370  11.705  17.732  0.00  0.00    +0.000 N 
ATOM     17  O   UNL     1       0.231  12.293  18.025  0.00  0.00    +0.000 OA
ATOM     18  C   UNL     1      -0.739  13.198  18.583  0.00  0.00    +0.000 C 
ATOM     19  C   UNL     1      -0.282  14.623  18.779  0.00  0.00    +0.000 C 
ATOM     20  C   UNL     1      -0.453  13.691  19.961  0.00  0.00    +0.000 C 
ATOM     21  H   UNL     1       3.320  11.976  17.944  0.00  0.00    +0.000 HD
ATOM     22  H   UNL     1       2.105  11.755  16.759  0.00  0.00    +0.000 HD
ENDBRANCH   1  13
BRANCH   5  23
ATOM     23  C   UNL     1       2.171   6.613  19.788  0.00  0.00    +0.000 A 
ATOM     24  C   UNL     1       1.806   5.606  20.678  0.00  0.00    +0.000 A 
ATOM     25  C   UNL     1       2.231   4.300  20.428  0.00  0.00    +0.000 A 
ATOM     26  C   UNL     1       3.006   4.041  19.299  0.00  0.00    +0.000 A 
ATOM     27  C   UNL     1       3.326   5.111  18.467  0.00  0.00    +0.000 A 
ATOM     28  N   UNL     1       2.934   6.396  18.678  0.00  0.00    +0.000 NA
BRANCH  26  29
ATOM     29  C   UNL     1       3.459   2.721  18.994  0.00  0.00    +0.000 C 
ATOM     30  N   UNL     1       3.824   1.646  18.740  0.00  0.00    +0.000 NA
ENDBRANCH  26  29
ENDBRANCH   5  23
TORSDOF 3
ENDMDL
MODEL 8
REMARK VINA RESULT:      -7.4      3.346      8.820
REMARK  Name = 
REMARK  4 active torsions:
REMARK  status: ('A' for Active; 'I' for Inactive)
REMARK    1  A    between atoms: C_1  and  C_2
REMARK    2  A    between atoms: C_2  and  C_3
REMARK    3  A    between atoms: C_7  and  C_9
REMARK    4  A    between atoms: C_12  and  C_13
REMARK                            x       y       z     vdW  Elec       q    Type
REMARK                         _______ _______ _______ _____ _____    ______ ____
ROOT
ATOM      1  C   UNL     1      -0.351  11.496  21.019  0.00  0.00    +0.000 A 
ATOM      2  N   UNL     1       0.253  10.310  20.721  0.00  0.00    +0.000 NA
ATOM      3  C   UNL     1       0.254   9.310  21.620  0.00  0.00    +0.000 A 
ATOM      4  N   UNL     1       0.923   8.115  21.323  0.00  0.00    +0.000 N 
ATOM      5  C   UNL     1       1.592   7.866  20.137  0.00  0.00    +0.000 C 
ATOM      6  O   UNL     1       1.684   8.603  19.160  0.00  0.00    +0.000 OA
ATOM      7  C   UNL     1      -0.375   9.439  22.854  0.00  0.00    +0.000 A 
ATOM      8  C   UNL     1      -1.022  10.639  23.157  0.00  0.00    +0.000 A 
ATOM      9  C   UNL     1      -1.007  11.673  22.233  0.00  0.00    +0.000 A 
ATOM     10  F   UNL     1      -1.610  12.827  22.549  0.00  0.00    +0.000 F 
ATOM     11  H   UNL     1       0.954   7.379  22.020  0.00  0.00    +0.000 HD
ENDROOT
BRANCH   1  13
ATOM     12  C   UNL     1      -1.525  12.927  19.300  0.00  0.00    +0.000 C 
ATOM     13  C   UNL     1      -0.194  12.671  20.030  0.00  0.00    +0.000 C 
ATOM     14  N   UNL     1       0.149  13.900  20.776  0.00  0.00    +0.000 NA
ATOM     15  C   UNL     1       1.382  14.071  21.093  0.00  0.00    +0.000 C 
ATOM     16  N   UNL     1       1.784  15.040  21.947  0.00  0.00    +0.000 N 
ATOM     17  O   UNL     1       2.437  13.381  20.595  0.00  0.00    +0.000 OA
ATOM     18  C   UNL     1       2.262  12.635  19.377  0.00  0.00    +0.000 C 
ATOM     19  C   UNL     1       1.648  13.385  18.221  0.00  0.00    +0.000 C 
ATOM     20  C   UNL     1       0.851  12.348  18.985  0.00  0.00    +0.000 C 
ATOM     21  H   UNL     1       1.111  15.787  22.044  0.00  0.00    +0.000 HD
ATOM     22  H   UNL     1       2.745  15.326  21.830  0.00  0.00    +0.000 HD
ENDBRANCH   1  13
BRANCH   5  23
ATOM     23  C   UNL     1       2.271   6.530  20.078  0.00  0.00    +0.000 A 
ATOM     24  C   UNL     1       1.724   5.454  20.774  0.00  0.00    +0.000 A 
ATOM     25  C   UNL     1       2.351   4.210  20.689  0.00  0.00    +0.000 A 
ATOM     26  C   UNL     1       3.502   4.079  19.913  0.00  0.00    +0.000 A 
ATOM     27  C   UNL     1       3.978   5.209  19.256  0.00  0.00    +0.000 A 
ATOM     28  N   UNL     1       3.399   6.438  19.317  0.00  0.00    +0.000 NA
BRANCH  26  29
ATOM     29  C   UNL     1       4.175   2.824  19.786  0.00  0.00    +0.000 C 
ATOM     30  N   UNL     1       4.725   1.806  19.677  0.00  0.00    +0.000 NA
ENDBRANCH  26  29
ENDBRANCH   5  23
TORSDOF 3
ENDMDL
MODEL 9
REMARK VINA RESULT:      -7.3      1.383      1.594
REMARK  Name = 
REMARK  4 active torsions:
REMARK  status: ('A' for Active; 'I' for Inactive)
REMARK    1  A    between atoms: C_1  and  C_2
REMARK    2  A    between atoms: C_2  and  C_3
REMARK    3  A    between atoms: C_7  and  C_9
REMARK    4  A    between atoms: C_12  and  C_13
REMARK                            x       y       z     vdW  Elec       q    Type
REMARK                         _______ _______ _______ _____ _____    ______ ____
ROOT
ATOM      1  C   UNL     1       4.034   5.187  17.966  0.00  0.00    +0.000 A 
ATOM      2  N   UNL     1       3.267   6.247  18.349  0.00  0.00    +0.000 NA
ATOM      3  C   UNL     1       3.350   7.413  17.685  0.00  0.00    +0.000 A 
ATOM      4  N   UNL     1       2.596   8.511  18.120  0.00  0.00    +0.000 N 
ATOM      5  C   UNL     1       1.735   8.490  19.204  0.00  0.00    +0.000 C 
ATOM      6  O   UNL     1       1.462   7.534  19.925  0.00  0.00    +0.000 OA
ATOM      7  C   UNL     1       4.186   7.567  16.584  0.00  0.00    +0.000 A 
ATOM      8  C   UNL     1       4.954   6.479  16.165  0.00  0.00    +0.000 A 
ATOM      9  C   UNL     1       4.876   5.282  16.863  0.00  0.00    +0.000 A 
ATOM     10  F   UNL     1       5.639   4.255  16.464  0.00  0.00    +0.000 F 
ATOM     11  H   UNL     1       2.691   9.399  17.640  0.00  0.00    +0.000 HD
ENDROOT
BRANCH   1  13
ATOM     12  C   UNL     1       5.379   3.781  19.577  0.00  0.00    +0.000 C 
ATOM     13  C   UNL     1       4.031   3.919  18.847  0.00  0.00    +0.000 C 
ATOM     14  N   UNL     1       2.976   4.036  19.875  0.00  0.00    +0.000 NA
ATOM     15  C   UNL     1       1.778   3.733  19.527  0.00  0.00    +0.000 C 
ATOM     16  N   UNL     1       0.706   3.997  20.309  0.00  0.00    +0.000 N 
ATOM     17  O   UNL     1       1.417   3.072  18.401  0.00  0.00    +0.000 OA
ATOM     18  C   UNL     1       2.422   2.333  17.681  0.00  0.00    +0.000 C 
ATOM     19  C   UNL     1       3.257   1.378  18.499  0.00  0.00    +0.000 C 
ATOM     20  C   UNL     1       3.838   2.683  17.996  0.00  0.00    +0.000 C 
ATOM     21  H   UNL     1       0.949   4.138  21.280  0.00  0.00    +0.000 HD
ATOM     22  H   UNL     1      -0.092   3.404  20.137  0.00  0.00    +0.000 HD
ENDBRANCH   1  13
BRANCH   5  23
ATOM     23  C   UNL     1       1.079   9.806  19.501  0.00  0.00    +0.000 A 
ATOM     24  C   UNL     1       0.210   9.907  20.585  0.00  0.00    +0.000 A 
ATOM     25  C   UNL     1      -0.372  11.143  20.867  0.00  0.00    +0.000 A 
ATOM     26  C   UNL     1      -0.069  12.239  20.059  0.00  0.00    +0.000 A 
ATOM     27  C   UNL     1       0.807  12.043  18.996  0.00  0.00    +0.000 A 
ATOM     28  N   UNL     1       1.391  10.854  18.686  0.00  0.00    +0.000 NA
BRANCH  26  29
ATOM     29  C   UNL     1      -0.632  13.528  20.311  0.00  0.00    +0.000 C 
ATOM     30  N   UNL     1      -1.084  14.579  20.518  0.00  0.00    +0.000 NA
ENDBRANCH  26  29
ENDBRANCH   5  23
TORSDOF 3
ENDMDL
