MODEL 1
REMARK VINA RESULT:      -8.4      0.000      0.000
REMARK  Name = 
REMARK  10 active torsions:
REMARK  status: ('A' for Active; 'I' for Inactive)
REMARK    1  A    between atoms: C_4  and  C_5
REMARK    2  A    between atoms: C_5  and  C_6
REMARK    3  A    between atoms: C_6  and  N_7
REMARK    4  A    between atoms: N_10  and  C_11
REMARK    5  A    between atoms: C_11  and  C_12
REMARK    6  A    between atoms: C_12  and  C_13
REMARK    7  A    between atoms: C_13  and  N_14
REMARK    8  A    between atoms: C_18  and  C_19
REMARK    9  A    between atoms: C_19  and  C_20
REMARK   10  A    between atoms: C_19  and  C_26
REMARK                            x       y       z     vdW  Elec       q    Type
REMARK                         _______ _______ _______ _____ _____    ______ ____
ROOT
ATOM      1  N   UNL     1       1.838   8.205  19.472  0.00  0.00    +0.000 N 
ATOM      2  N   UNL     1       1.398   9.216  18.698  0.00  0.00    +0.000 NA
ATOM      3  N   UNL     1       1.968   9.034  17.520  0.00  0.00    +0.000 NA
ATOM      4  N   UNL     1       2.791   7.943  17.540  0.00  0.00    +0.000 NA
ATOM      5  C   UNL     1       2.735   7.440  18.763  0.00  0.00    +0.000 A 
ENDROOT
BRANCH   1   6
ATOM      6  C   UNL     1       1.339   8.103  20.828  0.00  0.00    +0.000 C 
BRANCH   6   7
ATOM      7  C   UNL     1       1.703   9.327  21.674  0.00  0.00    +0.000 C 
BRANCH   7   8
ATOM      8  C   UNL     1       0.856  10.564  21.343  0.00  0.00    +0.000 C 
BRANCH   8  12
ATOM      9  N   UNL     1      -1.898  13.076  21.853  0.00  0.00    +0.000 NA
ATOM     10  C   UNL     1      -1.185  12.329  22.912  0.00  0.00    +0.000 C 
ATOM     11  C   UNL     1      -1.181  10.796  22.714  0.00  0.00    +0.000 C 
ATOM     12  N   UNL     1      -0.601  10.354  21.424  0.00  0.00    +0.000 NA
ATOM     13  C   UNL     1      -1.299  11.095  20.340  0.00  0.00    +0.000 C 
ATOM     14  C   UNL     1      -1.376  12.634  20.537  0.00  0.00    +0.000 C 
BRANCH   9  15
ATOM     15  C   UNL     1      -3.366  12.903  21.912  0.00  0.00    +0.000 C 
BRANCH  15  16
ATOM     16  C   UNL     1      -4.117  13.504  20.711  0.00  0.00    +0.000 C 
BRANCH  16  20
ATOM     17  C   UNL     1      -6.726  10.627  18.843  0.00  0.00    +0.000 A 
ATOM     18  C   UNL     1      -5.520  10.971  18.236  0.00  0.00    +0.000 A 
ATOM     19  C   UNL     1      -4.676  11.902  18.842  0.00  0.00    +0.000 A 
ATOM     20  C   UNL     1      -5.034  12.495  20.061  0.00  0.00    +0.000 A 
ATOM     21  C   UNL     1      -6.251  12.151  20.661  0.00  0.00    +0.000 A 
ATOM     22  C   UNL     1      -7.092  11.216  20.052  0.00  0.00    +0.000 A 
ENDBRANCH  16  20
ENDBRANCH  15  16
ENDBRANCH   9  15
ENDBRANCH   8  12
ENDBRANCH   7   8
ENDBRANCH   6   7
ENDBRANCH   1   6
BRANCH   5  23
ATOM     23  C   UNL     1       3.453   6.217  19.277  0.00  0.00    +0.000 C 
BRANCH  23  24
ATOM     24  C   UNL     1       2.511   5.010  19.361  0.00  0.00    +0.000 A 
ATOM     25  C   UNL     1       2.058   4.349  18.205  0.00  0.00    +0.000 A 
ATOM     26  C   UNL     1       1.155   3.289  18.287  0.00  0.00    +0.000 A 
ATOM     27  C   UNL     1       0.683   2.874  19.526  0.00  0.00    +0.000 A 
ATOM     28  C   UNL     1       1.133   3.500  20.686  0.00  0.00    +0.000 A 
ATOM     29  C   UNL     1       2.047   4.556  20.606  0.00  0.00    +0.000 A 
ENDBRANCH  23  24
BRANCH  23  30
ATOM     30  C   UNL     1       4.771   5.904  18.550  0.00  0.00    +0.000 A 
ATOM     31  C   UNL     1       4.920   6.234  17.189  0.00  0.00    +0.000 A 
ATOM     32  C   UNL     1       6.127   6.009  16.520  0.00  0.00    +0.000 A 
ATOM     33  C   UNL     1       7.211   5.457  17.196  0.00  0.00    +0.000 A 
ATOM     34  C   UNL     1       7.082   5.106  18.536  0.00  0.00    +0.000 A 
ATOM     35  C   UNL     1       5.872   5.318  19.202  0.00  0.00    +0.000 A 
ENDBRANCH  23  30
ENDBRANCH   5  23
TORSDOF 10
ENDMDL
MODEL 2
REMARK VINA RESULT:      -8.3      6.997     10.650
REMARK  Name = 
REMARK  10 active torsions:
REMARK  status: ('A' for Active; 'I' for Inactive)
REMARK    1  A    between atoms: C_4  and  C_5
REMARK    2  A    between atoms: C_5  and  C_6
REMARK    3  A    between atoms: C_6  and  N_7
REMARK    4  A    between atoms: N_10  and  C_11
REMARK    5  A    between atoms: C_11  and  C_12
REMARK    6  A    between atoms: C_12  and  C_13
REMARK    7  A    between atoms: C_13  and  N_14
REMARK    8  A    between atoms: C_18  and  C_19
REMARK    9  A    between atoms: C_19  and  C_20
REMARK   10  A    between atoms: C_19  and  C_26
REMARK                            x       y       z     vdW  Elec       q    Type
REMARK                         _______ _______ _______ _____ _____    ______ ____
ROOT
ATOM      1  N   UNL     1       7.247   6.702  18.058  0.00  0.00    +0.000 N 
ATOM      2  N   UNL     1       8.159   6.362  18.989  0.00  0.00    +0.000 NA
ATOM      3  N   UNL     1       7.995   5.067  19.189  0.00  0.00    +0.000 NA
ATOM      4  N   UNL     1       6.970   4.582  18.425  0.00  0.00    +0.000 NA
ATOM      5  C   UNL     1       6.483   5.604  17.741  0.00  0.00    +0.000 A 
ENDROOT
BRANCH   1   6
ATOM      6  C   UNL     1       7.216   8.072  17.588  0.00  0.00    +0.000 C 
BRANCH   6   7
ATOM      7  C   UNL     1       8.532   8.807  17.852  0.00  0.00    +0.000 C 
BRANCH   7   8
ATOM      8  C   UNL     1       8.333  10.209  18.447  0.00  0.00    +0.000 C 
BRANCH   8  12
ATOM      9  N   UNL     1      10.463  12.748  20.226  0.00  0.00    +0.000 NA
ATOM     10  C   UNL     1       9.064  12.934  19.783  0.00  0.00    +0.000 C 
ATOM     11  C   UNL     1       8.826  12.620  18.288  0.00  0.00    +0.000 C 
ATOM     12  N   UNL     1       9.216  11.247  17.888  0.00  0.00    +0.000 NA
ATOM     13  C   UNL     1      10.621  11.034  18.327  0.00  0.00    +0.000 C 
ATOM     14  C   UNL     1      10.911  11.397  19.810  0.00  0.00    +0.000 C 
BRANCH   9  15
ATOM     15  C   UNL     1      11.378  13.783  19.698  0.00  0.00    +0.000 C 
BRANCH  15  16
ATOM     16  C   UNL     1      11.193  15.171  20.338  0.00  0.00    +0.000 C 
BRANCH  16  20
ATOM     17  C   UNL     1      10.653  18.258  17.381  0.00  0.00    +0.000 A 
ATOM     18  C   UNL     1      10.908  18.601  18.707  0.00  0.00    +0.000 A 
ATOM     19  C   UNL     1      11.083  17.600  19.663  0.00  0.00    +0.000 A 
ATOM     20  C   UNL     1      11.004  16.248  19.298  0.00  0.00    +0.000 A 
ATOM     21  C   UNL     1      10.740  15.912  17.965  0.00  0.00    +0.000 A 
ATOM     22  C   UNL     1      10.568  16.916  17.010  0.00  0.00    +0.000 A 
ENDBRANCH  16  20
ENDBRANCH  15  16
ENDBRANCH   9  15
ENDBRANCH   8  12
ENDBRANCH   7   8
ENDBRANCH   6   7
ENDBRANCH   1   6
BRANCH   5  23
ATOM     23  C   UNL     1       5.353   5.572  16.741  0.00  0.00    +0.000 C 
BRANCH  23  24
ATOM     24  C   UNL     1       5.834   5.085  15.369  0.00  0.00    +0.000 A 
ATOM     25  C   UNL     1       5.002   4.330  14.523  0.00  0.00    +0.000 A 
ATOM     26  C   UNL     1       5.466   3.840  13.303  0.00  0.00    +0.000 A 
ATOM     27  C   UNL     1       6.775   4.090  12.908  0.00  0.00    +0.000 A 
ATOM     28  C   UNL     1       7.612   4.852  13.720  0.00  0.00    +0.000 A 
ATOM     29  C   UNL     1       7.144   5.353  14.938  0.00  0.00    +0.000 A 
ENDBRANCH  23  24
BRANCH  23  30
ATOM     30  C   UNL     1       4.092   4.843  17.232  0.00  0.00    +0.000 A 
ATOM     31  C   UNL     1       3.005   5.582  17.738  0.00  0.00    +0.000 A 
ATOM     32  C   UNL     1       1.826   4.946  18.141  0.00  0.00    +0.000 A 
ATOM     33  C   UNL     1       1.707   3.563  18.042  0.00  0.00    +0.000 A 
ATOM     34  C   UNL     1       2.775   2.811  17.564  0.00  0.00    +0.000 A 
ATOM     35  C   UNL     1       3.957   3.444  17.173  0.00  0.00    +0.000 A 
ENDBRANCH  23  30
ENDBRANCH   5  23
TORSDOF 10
ENDMDL
MODEL 3
REMARK VINA RESULT:      -8.3      2.237      9.309
REMARK  Name = 
REMARK  10 active torsions:
REMARK  status: ('A' for Active; 'I' for Inactive)
REMARK    1  A    between atoms: C_4  and  C_5
REMARK    2  A    between atoms: C_5  and  C_6
REMARK    3  A    between atoms: C_6  and  N_7
REMARK    4  A    between atoms: N_10  and  C_11
REMARK    5  A    between atoms: C_11  and  C_12
REMARK    6  A    between atoms: C_12  and  C_13
REMARK    7  A    between atoms: C_13  and  N_14
REMARK    8  A    between atoms: C_18  and  C_19
REMARK    9  A    between atoms: C_19  and  C_20
REMARK   10  A    between atoms: C_19  and  C_26
REMARK                            x       y       z     vdW  Elec       q    Type
REMARK                         _______ _______ _______ _____ _____    ______ ____
ROOT
ATOM      1  N   UNL     1       0.244  10.272  22.026  0.00  0.00    +0.000 N 
ATOM      2  N   UNL     1      -0.327  10.452  23.233  0.00  0.00    +0.000 NA
ATOM      3  N   UNL     1      -1.297  11.328  23.039  0.00  0.00    +0.000 NA
ATOM      4  N   UNL     1      -1.331  11.735  21.734  0.00  0.00    +0.000 NA
ATOM      5  C   UNL     1      -0.354  11.101  21.107  0.00  0.00    +0.000 A 
ENDROOT
BRANCH   1   6
ATOM      6  C   UNL     1       1.323   9.313  21.907  0.00  0.00    +0.000 C 
BRANCH   6   7
ATOM      7  C   UNL     1       1.211   8.466  20.637  0.00  0.00    +0.000 C 
BRANCH   7   8
ATOM      8  C   UNL     1       1.020   6.969  20.923  0.00  0.00    +0.000 C 
BRANCH   8  12
ATOM      9  N   UNL     1       1.687   4.077  18.612  0.00  0.00    +0.000 NA
ATOM     10  C   UNL     1       1.149   3.994  19.988  0.00  0.00    +0.000 C 
ATOM     11  C   UNL     1       2.011   4.715  21.050  0.00  0.00    +0.000 C 
ATOM     12  N   UNL     1       2.237   6.153  20.772  0.00  0.00    +0.000 NA
ATOM     13  C   UNL     1       2.775   6.264  19.390  0.00  0.00    +0.000 C 
ATOM     14  C   UNL     1       1.967   5.500  18.304  0.00  0.00    +0.000 C 
BRANCH   9  15
ATOM     15  C   UNL     1       2.901   3.255  18.417  0.00  0.00    +0.000 C 
BRANCH  15  16
ATOM     16  C   UNL     1       3.484   3.326  16.994  0.00  0.00    +0.000 C 
BRANCH  16  20
ATOM     17  C   UNL     1       7.235   5.444  16.886  0.00  0.00    +0.000 A 
ATOM     18  C   UNL     1       6.486   5.295  15.721  0.00  0.00    +0.000 A 
ATOM     19  C   UNL     1       5.272   4.608  15.758  0.00  0.00    +0.000 A 
ATOM     20  C   UNL     1       4.798   4.069  16.962  0.00  0.00    +0.000 A 
ATOM     21  C   UNL     1       5.560   4.216  18.127  0.00  0.00    +0.000 A 
ATOM     22  C   UNL     1       6.774   4.905  18.087  0.00  0.00    +0.000 A 
ENDBRANCH  16  20
ENDBRANCH  15  16
ENDBRANCH   9  15
ENDBRANCH   8  12
ENDBRANCH   7   8
ENDBRANCH   6   7
ENDBRANCH   1   6
BRANCH   5  23
ATOM     23  C   UNL     1       0.001  11.200  19.644  0.00  0.00    +0.000 C 
BRANCH  23  24
ATOM     24  C   UNL     1      -1.232  10.999  18.754  0.00  0.00    +0.000 A 
ATOM     25  C   UNL     1      -2.417  11.727  18.964  0.00  0.00    +0.000 A 
ATOM     26  C   UNL     1      -3.552  11.496  18.188  0.00  0.00    +0.000 A 
ATOM     27  C   UNL     1      -3.527  10.528  17.192  0.00  0.00    +0.000 A 
ATOM     28  C   UNL     1      -2.359   9.808  16.953  0.00  0.00    +0.000 A 
ATOM     29  C   UNL     1      -1.216  10.046  17.722  0.00  0.00    +0.000 A 
ENDBRANCH  23  24
BRANCH  23  30
ATOM     30  C   UNL     1       0.815  12.450  19.273  0.00  0.00    +0.000 A 
ATOM     31  C   UNL     1       0.395  13.720  19.713  0.00  0.00    +0.000 A 
ATOM     32  C   UNL     1       1.148  14.865  19.434  0.00  0.00    +0.000 A 
ATOM     33  C   UNL     1       2.335  14.766  18.717  0.00  0.00    +0.000 A 
ATOM     34  C   UNL     1       2.761  13.525  18.255  0.00  0.00    +0.000 A 
ATOM     35  C   UNL     1       2.003  12.382  18.522  0.00  0.00    +0.000 A 
ENDBRANCH  23  30
ENDBRANCH   5  23
TORSDOF 10
ENDMDL
MODEL 4
REMARK VINA RESULT:      -8.3      2.350      4.587
REMARK  Name = 
REMARK  10 active torsions:
REMARK  status: ('A' for Active; 'I' for Inactive)
REMARK    1  A    between atoms: C_4  and  C_5
REMARK    2  A    between atoms: C_5  and  C_6
REMARK    3  A    between atoms: C_6  and  N_7
REMARK    4  A    between atoms: N_10  and  C_11
REMARK    5  A    between atoms: C_11  and  C_12
REMARK    6  A    between atoms: C_12  and  C_13
REMARK    7  A    between atoms: C_13  and  N_14
REMARK    8  A    between atoms: C_18  and  C_19
REMARK    9  A    between atoms: C_19  and  C_20
REMARK   10  A    between atoms: C_19  and  C_26
REMARK                            x       y       z     vdW  Elec       q    Type
REMARK                         _______ _______ _______ _____ _____    ______ ____
ROOT
ATOM      1  N   UNL     1       3.287   5.572  18.010  0.00  0.00    +0.000 N 
ATOM      2  N   UNL     1       2.522   4.599  18.541  0.00  0.00    +0.000 NA
ATOM      3  N   UNL     1       2.982   3.470  18.031  0.00  0.00    +0.000 NA
ATOM      4  N   UNL     1       4.005   3.711  17.157  0.00  0.00    +0.000 NA
ATOM      5  C   UNL     1       4.179   5.022  17.120  0.00  0.00    +0.000 A 
ENDROOT
BRANCH   1   6
ATOM      6  C   UNL     1       3.053   6.941  18.426  0.00  0.00    +0.000 C 
BRANCH   6   7
ATOM      7  C   UNL     1       2.104   7.029  19.624  0.00  0.00    +0.000 C 
BRANCH   7   8
ATOM      8  C   UNL     1       1.742   8.473  20.002  0.00  0.00    +0.000 C 
BRANCH   8  12
ATOM      9  N   UNL     1       0.243  10.763  22.583  0.00  0.00    +0.000 NA
ATOM     10  C   UNL     1       0.653   9.357  22.791  0.00  0.00    +0.000 C 
ATOM     11  C   UNL     1       0.037   8.361  21.781  0.00  0.00    +0.000 C 
ATOM     12  N   UNL     1       0.328   8.680  20.363  0.00  0.00    +0.000 NA
ATOM     13  C   UNL     1      -0.072  10.092  20.129  0.00  0.00    +0.000 C 
ATOM     14  C   UNL     1       0.479  11.114  21.162  0.00  0.00    +0.000 C 
BRANCH   9  15
ATOM     15  C   UNL     1      -1.168  11.014  22.951  0.00  0.00    +0.000 C 
BRANCH  15  16
ATOM     16  C   UNL     1      -1.625  12.467  22.730  0.00  0.00    +0.000 C 
BRANCH  16  20
ATOM     17  C   UNL     1      -5.889  12.883  23.196  0.00  0.00    +0.000 A 
ATOM     18  C   UNL     1      -5.083  12.676  24.313  0.00  0.00    +0.000 A 
ATOM     19  C   UNL     1      -3.702  12.541  24.161  0.00  0.00    +0.000 A 
ATOM     20  C   UNL     1      -3.119  12.615  22.888  0.00  0.00    +0.000 A 
ATOM     21  C   UNL     1      -3.936  12.815  21.769  0.00  0.00    +0.000 A 
ATOM     22  C   UNL     1      -5.317  12.951  21.926  0.00  0.00    +0.000 A 
ENDBRANCH  16  20
ENDBRANCH  15  16
ENDBRANCH   9  15
ENDBRANCH   8  12
ENDBRANCH   7   8
ENDBRANCH   6   7
ENDBRANCH   1   6
BRANCH   5  23
ATOM     23  C   UNL     1       5.207   5.780  16.316  0.00  0.00    +0.000 C 
BRANCH  23  24
ATOM     24  C   UNL     1       6.357   6.273  17.202  0.00  0.00    +0.000 A 
ATOM     25  C   UNL     1       6.895   5.469  18.222  0.00  0.00    +0.000 A 
ATOM     26  C   UNL     1       7.902   5.946  19.062  0.00  0.00    +0.000 A 
ATOM     27  C   UNL     1       8.384   7.239  18.901  0.00  0.00    +0.000 A 
ATOM     28  C   UNL     1       7.880   8.047  17.884  0.00  0.00    +0.000 A 
ATOM     29  C   UNL     1       6.879   7.566  17.034  0.00  0.00    +0.000 A 
ENDBRANCH  23  24
BRANCH  23  30
ATOM     30  C   UNL     1       5.688   5.049  15.052  0.00  0.00    +0.000 A 
ATOM     31  C   UNL     1       4.767   4.344  14.254  0.00  0.00    +0.000 A 
ATOM     32  C   UNL     1       5.171   3.715  13.071  0.00  0.00    +0.000 A 
ATOM     33  C   UNL     1       6.498   3.783  12.660  0.00  0.00    +0.000 A 
ATOM     34  C   UNL     1       7.429   4.457  13.442  0.00  0.00    +0.000 A 
ATOM     35  C   UNL     1       7.029   5.074  14.630  0.00  0.00    +0.000 A 
ENDBRANCH  23  30
ENDBRANCH   5  23
TORSDOF 10
ENDMDL
MODEL 5
REMARK VINA RESULT:      -8.3      2.581      4.398
REMARK  Name = 
REMARK  10 active torsions:
REMARK  status: ('A' for Active; 'I' for Inactive)
REMARK    1  A    between atoms: C_4  and  C_5
REMARK    2  A    between atoms: C_5  and  C_6
REMARK    3  A    between atoms: C_6  and  N_7
REMARK    4  A    between atoms: N_10  and  C_11
REMARK    5  A    between atoms: C_11  and  C_12
REMARK    6  A    between atoms: C_12  and  C_13
REMARK    7  A    between atoms: C_13  and  N_14
REMARK    8  A    between atoms: C_18  and  C_19
REMARK    9  A    between atoms: C_19  and  C_20
REMARK   10  A    between atoms: C_19  and  C_26
REMARK                            x       y       z     vdW  Elec       q    Type
REMARK                         _______ _______ _______ _____ _____    ______ ____
ROOT
ATOM      1  N   UNL     1       2.097   7.756  19.361  0.00  0.00    +0.000 N 
ATOM      2  N   UNL     1       1.765   8.804  18.582  0.00  0.00    +0.000 NA
ATOM      3  N   UNL     1       2.477   8.664  17.478  0.00  0.00    +0.000 NA
ATOM      4  N   UNL     1       3.283   7.563  17.554  0.00  0.00    +0.000 NA
ATOM      5  C   UNL     1       3.070   7.011  18.737  0.00  0.00    +0.000 A 
ENDROOT
BRANCH   1   6
ATOM      6  C   UNL     1       1.432   7.605  20.639  0.00  0.00    +0.000 C 
BRANCH   6   7
ATOM      7  C   UNL     1       1.464   8.892  21.467  0.00  0.00    +0.000 C 
BRANCH   7   8
ATOM      8  C   UNL     1       0.091   9.571  21.581  0.00  0.00    +0.000 C 
BRANCH   8  12
ATOM      9  N   UNL     1      -0.520  12.641  19.494  0.00  0.00    +0.000 NA
ATOM     10  C   UNL     1       0.783  11.978  19.718  0.00  0.00    +0.000 C 
ATOM     11  C   UNL     1       1.141  11.771  21.208  0.00  0.00    +0.000 C 
ATOM     12  N   UNL     1       0.137  10.992  21.969  0.00  0.00    +0.000 NA
ATOM     13  C   UNL     1      -1.186  11.637  21.757  0.00  0.00    +0.000 C 
ATOM     14  C   UNL     1      -1.553  11.916  20.273  0.00  0.00    +0.000 C 
BRANCH   9  15
ATOM     15  C   UNL     1      -0.509  14.075  19.857  0.00  0.00    +0.000 C 
BRANCH  15  16
ATOM     16  C   UNL     1      -0.118  15.011  18.700  0.00  0.00    +0.000 C 
BRANCH  16  20
ATOM     17  C   UNL     1       3.825  16.666  19.237  0.00  0.00    +0.000 A 
ATOM     18  C   UNL     1       2.719  17.311  19.784  0.00  0.00    +0.000 A 
ATOM     19  C   UNL     1       1.442  16.774  19.609  0.00  0.00    +0.000 A 
ATOM     20  C   UNL     1       1.266  15.586  18.886  0.00  0.00    +0.000 A 
ATOM     21  C   UNL     1       2.382  14.947  18.333  0.00  0.00    +0.000 A 
ATOM     22  C   UNL     1       3.658  15.487  18.512  0.00  0.00    +0.000 A 
ENDBRANCH  16  20
ENDBRANCH  15  16
ENDBRANCH   9  15
ENDBRANCH   8  12
ENDBRANCH   7   8
ENDBRANCH   6   7
ENDBRANCH   1   6
BRANCH   5  23
ATOM     23  C   UNL     1       3.710   5.758  19.283  0.00  0.00    +0.000 C 
BRANCH  23  24
ATOM     24  C   UNL     1       2.691   4.619  19.409  0.00  0.00    +0.000 A 
ATOM     25  C   UNL     1       1.951   4.169  18.300  0.00  0.00    +0.000 A 
ATOM     26  C   UNL     1       0.984   3.173  18.435  0.00  0.00    +0.000 A 
ATOM     27  C   UNL     1       0.734   2.612  19.681  0.00  0.00    +0.000 A 
ATOM     28  C   UNL     1       1.468   3.028  20.790  0.00  0.00    +0.000 A 
ATOM     29  C   UNL     1       2.446   4.018  20.654  0.00  0.00    +0.000 A 
ENDBRANCH  23  24
BRANCH  23  30
ATOM     30  C   UNL     1       4.999   5.338  18.560  0.00  0.00    +0.000 A 
ATOM     31  C   UNL     1       4.929   4.750  17.282  0.00  0.00    +0.000 A 
ATOM     32  C   UNL     1       6.090   4.408  16.581  0.00  0.00    +0.000 A 
ATOM     33  C   UNL     1       7.342   4.651  17.137  0.00  0.00    +0.000 A 
ATOM     34  C   UNL     1       7.436   5.213  18.406  0.00  0.00    +0.000 A 
ATOM     35  C   UNL     1       6.276   5.543  19.112  0.00  0.00    +0.000 A 
ENDBRANCH  23  30
ENDBRANCH   5  23
TORSDOF 10
ENDMDL
MODEL 6
REMARK VINA RESULT:      -8.2      2.106      3.548
REMARK  Name = 
REMARK  10 active torsions:
REMARK  status: ('A' for Active; 'I' for Inactive)
REMARK    1  A    between atoms: C_4  and  C_5
REMARK    2  A    between atoms: C_5  and  C_6
REMARK    3  A    between atoms: C_6  and  N_7
REMARK    4  A    between atoms: N_10  and  C_11
REMARK    5  A    between atoms: C_11  and  C_12
REMARK    6  A    between atoms: C_12  and  C_13
REMARK    7  A    between atoms: C_13  and  N_14
REMARK    8  A    between atoms: C_18  and  C_19
REMARK    9  A    between atoms: C_19  and  C_20
REMARK   10  A    between atoms: C_19  and  C_26
REMARK                            x       y       z     vdW  Elec       q    Type
REMARK                         _______ _______ _______ _____ _____    ______ ____
ROOT
ATOM      1  N   UNL     1       2.018   7.874  19.397  0.00  0.00    +0.000 N 
ATOM      2  N   UNL     1       1.663   8.934  18.646  0.00  0.00    +0.000 NA
ATOM      3  N   UNL     1       2.348   8.817  17.522  0.00  0.00    +0.000 NA
ATOM      4  N   UNL     1       3.159   7.717  17.558  0.00  0.00    +0.000 NA
ATOM      5  C   UNL     1       2.978   7.143  18.737  0.00  0.00    +0.000 A 
ENDROOT
BRANCH   1   6
ATOM      6  C   UNL     1       1.385   7.697  20.688  0.00  0.00    +0.000 C 
BRANCH   6   7
ATOM      7  C   UNL     1       1.497   8.947  21.566  0.00  0.00    +0.000 C 
BRANCH   7   8
ATOM      8  C   UNL     1       0.186   9.741  21.656  0.00  0.00    +0.000 C 
BRANCH   8  12
ATOM      9  N   UNL     1      -1.636  12.821  20.497  0.00  0.00    +0.000 NA
ATOM     10  C   UNL     1      -0.375  12.286  19.938  0.00  0.00    +0.000 C 
ATOM     11  C   UNL     1       0.734  12.051  20.989  0.00  0.00    +0.000 C 
ATOM     12  N   UNL     1       0.341  11.140  22.091  0.00  0.00    +0.000 NA
ATOM     13  C   UNL     1      -0.928  11.655  22.667  0.00  0.00    +0.000 C 
ATOM     14  C   UNL     1      -2.047  11.961  21.632  0.00  0.00    +0.000 C 
BRANCH   9  15
ATOM     15  C   UNL     1      -1.524  14.231  20.929  0.00  0.00    +0.000 C 
BRANCH  15  16
ATOM     16  C   UNL     1      -2.735  14.740  21.730  0.00  0.00    +0.000 C 
BRANCH  16  20
ATOM     17  C   UNL     1      -1.670  15.658  25.804  0.00  0.00    +0.000 A 
ATOM     18  C   UNL     1      -0.795  15.975  24.767  0.00  0.00    +0.000 A 
ATOM     19  C   UNL     1      -1.142  15.677  23.448  0.00  0.00    +0.000 A 
ATOM     20  C   UNL     1      -2.368  15.061  23.159  0.00  0.00    +0.000 A 
ATOM     21  C   UNL     1      -3.238  14.738  24.207  0.00  0.00    +0.000 A 
ATOM     22  C   UNL     1      -2.888  15.040  25.525  0.00  0.00    +0.000 A 
ENDBRANCH  16  20
ENDBRANCH  15  16
ENDBRANCH   9  15
ENDBRANCH   8  12
ENDBRANCH   7   8
ENDBRANCH   6   7
ENDBRANCH   1   6
BRANCH   5  23
ATOM     23  C   UNL     1       3.635   5.884  19.244  0.00  0.00    +0.000 C 
BRANCH  23  24
ATOM     24  C   UNL     1       2.613   4.756  19.430  0.00  0.00    +0.000 A 
ATOM     25  C   UNL     1       2.421   4.135  20.678  0.00  0.00    +0.000 A 
ATOM     26  C   UNL     1       1.533   3.070  20.825  0.00  0.00    +0.000 A 
ATOM     27  C   UNL     1       0.823   2.601  19.726  0.00  0.00    +0.000 A 
ATOM     28  C   UNL     1       0.982   3.213  18.484  0.00  0.00    +0.000 A 
ATOM     29  C   UNL     1       1.864   4.288  18.337  0.00  0.00    +0.000 A 
ENDBRANCH  23  24
BRANCH  23  30
ATOM     30  C   UNL     1       4.875   5.450  18.446  0.00  0.00    +0.000 A 
ATOM     31  C   UNL     1       6.158   5.583  19.012  0.00  0.00    +0.000 A 
ATOM     32  C   UNL     1       7.296   5.146  18.327  0.00  0.00    +0.000 A 
ATOM     33  C   UNL     1       7.178   4.563  17.070  0.00  0.00    +0.000 A 
ATOM     34  C   UNL     1       5.923   4.437  16.483  0.00  0.00    +0.000 A 
ATOM     35  C   UNL     1       4.786   4.885  17.161  0.00  0.00    +0.000 A 
ENDBRANCH  23  30
ENDBRANCH   5  23
TORSDOF 10
ENDMDL
MODEL 7
REMARK VINA RESULT:      -8.2      2.379      4.282
REMARK  Name = 
REMARK  10 active torsions:
REMARK  status: ('A' for Active; 'I' for Inactive)
REMARK    1  A    between atoms: C_4  and  C_5
REMARK    2  A    between atoms: C_5  and  C_6
REMARK    3  A    between atoms: C_6  and  N_7
REMARK    4  A    between atoms: N_10  and  C_11
REMARK    5  A    between atoms: C_11  and  C_12
REMARK    6  A    between atoms: C_12  and  C_13
REMARK    7  A    between atoms: C_13  and  N_14
REMARK    8  A    between atoms: C_18  and  C_19
REMARK    9  A    between atoms: C_19  and  C_20
REMARK   10  A    between atoms: C_19  and  C_26
REMARK                            x       y       z     vdW  Elec       q    Type
REMARK                         _______ _______ _______ _____ _____    ______ ____
ROOT
ATOM      1  N   UNL     1       2.216   7.828  19.166  0.00  0.00    +0.000 N 
ATOM      2  N   UNL     1       1.638   8.285  20.294  0.00  0.00    +0.000 NA
ATOM      3  N   UNL     1       1.612   7.255  21.121  0.00  0.00    +0.000 NA
ATOM      4  N   UNL     1       2.132   6.139  20.527  0.00  0.00    +0.000 NA
ATOM      5  C   UNL     1       2.484   6.486  19.299  0.00  0.00    +0.000 A 
ENDROOT
BRANCH   1   6
ATOM      6  C   UNL     1       2.434   8.756  18.075  0.00  0.00    +0.000 C 
BRANCH   6   7
ATOM      7  C   UNL     1       1.265   9.728  17.898  0.00  0.00    +0.000 C 
BRANCH   7   8
ATOM      8  C   UNL     1       1.568  11.140  18.419  0.00  0.00    +0.000 C 
BRANCH   8  12
ATOM      9  N   UNL     1       0.390  12.509  21.719  0.00  0.00    +0.000 NA
ATOM     10  C   UNL     1       0.016  11.207  21.126  0.00  0.00    +0.000 C 
ATOM     11  C   UNL     1      -0.540  11.302  19.687  0.00  0.00    +0.000 C 
ATOM     12  N   UNL     1       0.379  11.954  18.724  0.00  0.00    +0.000 NA
ATOM     13  C   UNL     1       0.774  13.267  19.300  0.00  0.00    +0.000 C 
ATOM     14  C   UNL     1       1.281  13.217  20.768  0.00  0.00    +0.000 C 
BRANCH   9  15
ATOM     15  C   UNL     1      -0.780  13.349  22.055  0.00  0.00    +0.000 C 
BRANCH  15  16
ATOM     16  C   UNL     1      -1.463  12.971  23.382  0.00  0.00    +0.000 C 
BRANCH  16  20
ATOM     17  C   UNL     1      -5.628  14.076  23.400  0.00  0.00    +0.000 A 
ATOM     18  C   UNL     1      -4.700  14.869  22.728  0.00  0.00    +0.000 A 
ATOM     19  C   UNL     1      -3.351  14.510  22.724  0.00  0.00    +0.000 A 
ATOM     20  C   UNL     1      -2.924  13.353  23.390  0.00  0.00    +0.000 A 
ATOM     21  C   UNL     1      -3.861  12.565  24.069  0.00  0.00    +0.000 A 
ATOM     22  C   UNL     1      -5.210  12.927  24.070  0.00  0.00    +0.000 A 
ENDBRANCH  16  20
ENDBRANCH  15  16
ENDBRANCH   9  15
ENDBRANCH   8  12
ENDBRANCH   7   8
ENDBRANCH   6   7
ENDBRANCH   1   6
BRANCH   5  23
ATOM     23  C   UNL     1       3.126   5.606  18.255  0.00  0.00    +0.000 C 
BRANCH  23  24
ATOM     24  C   UNL     1       4.642   5.827  18.194  0.00  0.00    +0.000 A 
ATOM     25  C   UNL     1       5.490   5.402  19.232  0.00  0.00    +0.000 A 
ATOM     26  C   UNL     1       6.860   5.660  19.196  0.00  0.00    +0.000 A 
ATOM     27  C   UNL     1       7.408   6.354  18.124  0.00  0.00    +0.000 A 
ATOM     28  C   UNL     1       6.591   6.767  17.074  0.00  0.00    +0.000 A 
ATOM     29  C   UNL     1       5.219   6.499  17.103  0.00  0.00    +0.000 A 
ENDBRANCH  23  24
BRANCH  23  30
ATOM     30  C   UNL     1       2.737   4.122  18.350  0.00  0.00    +0.000 A 
ATOM     31  C   UNL     1       1.396   3.760  18.587  0.00  0.00    +0.000 A 
ATOM     32  C   UNL     1       1.008   2.417  18.624  0.00  0.00    +0.000 A 
ATOM     33  C   UNL     1       1.945   1.410  18.421  0.00  0.00    +0.000 A 
ATOM     34  C   UNL     1       3.279   1.743  18.204  0.00  0.00    +0.000 A 
ATOM     35  C   UNL     1       3.670   3.084  18.179  0.00  0.00    +0.000 A 
ENDBRANCH  23  30
ENDBRANCH   5  23
TORSDOF 10
ENDMDL
MODEL 8
REMARK VINA RESULT:      -8.2      1.903      4.143
REMARK  Name = 
REMARK  10 active torsions:
REMARK  status: ('A' for Active; 'I' for Inactive)
REMARK    1  A    between atoms: C_4  and  C_5
REMARK    2  A    between atoms: C_5  and  C_6
REMARK    3  A    between atoms: C_6  and  N_7
REMARK    4  A    between atoms: N_10  and  C_11
REMARK    5  A    between atoms: C_11  and  C_12
REMARK    6  A    between atoms: C_12  and  C_13
REMARK    7  A    between atoms: C_13  and  N_14
REMARK    8  A    between atoms: C_18  and  C_19
REMARK    9  A    between atoms: C_19  and  C_20
REMARK   10  A    between atoms: C_19  and  C_26
REMARK                            x       y       z     vdW  Elec       q    Type
REMARK                         _______ _______ _______ _____ _____    ______ ____
ROOT
ATOM      1  N   UNL     1       1.999   8.086  19.013  0.00  0.00    +0.000 N 
ATOM      2  N   UNL     1       1.454   8.569  20.146  0.00  0.00    +0.000 NA
ATOM      3  N   UNL     1       1.556   7.594  21.032  0.00  0.00    +0.000 NA
ATOM      4  N   UNL     1       2.126   6.485  20.472  0.00  0.00    +0.000 NA
ATOM      5  C   UNL     1       2.377   6.778  19.207  0.00  0.00    +0.000 A 
ENDROOT
BRANCH   1   6
ATOM      6  C   UNL     1       2.080   8.956  17.857  0.00  0.00    +0.000 C 
BRANCH   6   7
ATOM      7  C   UNL     1       2.153  10.434  18.248  0.00  0.00    +0.000 C 
BRANCH   7   8
ATOM      8  C   UNL     1       0.839  11.190  18.001  0.00  0.00    +0.000 C 
BRANCH   8  12
ATOM      9  N   UNL     1      -1.682  12.040  20.661  0.00  0.00    +0.000 NA
ATOM     10  C   UNL     1      -1.818  12.297  19.210  0.00  0.00    +0.000 C 
ATOM     11  C   UNL     1      -0.635  13.077  18.591  0.00  0.00    +0.000 C 
ATOM     12  N   UNL     1       0.684  12.430  18.783  0.00  0.00    +0.000 NA
ATOM     13  C   UNL     1       0.843  12.157  20.235  0.00  0.00    +0.000 C 
ATOM     14  C   UNL     1      -0.354  11.427  20.905  0.00  0.00    +0.000 C 
BRANCH   9  15
ATOM     15  C   UNL     1      -1.848  13.260  21.481  0.00  0.00    +0.000 C 
BRANCH  15  16
ATOM     16  C   UNL     1      -2.151  12.982  22.964  0.00  0.00    +0.000 C 
BRANCH  16  20
ATOM     17  C   UNL     1      -6.384  12.698  23.724  0.00  0.00    +0.000 A 
ATOM     18  C   UNL     1      -5.473  12.385  24.731  0.00  0.00    +0.000 A 
ATOM     19  C   UNL     1      -4.102  12.478  24.483  0.00  0.00    +0.000 A 
ATOM     20  C   UNL     1      -3.635  12.886  23.225  0.00  0.00    +0.000 A 
ATOM     21  C   UNL     1      -4.556  13.191  22.216  0.00  0.00    +0.000 A 
ATOM     22  C   UNL     1      -5.927  13.099  22.469  0.00  0.00    +0.000 A 
ENDBRANCH  16  20
ENDBRANCH  15  16
ENDBRANCH   9  15
ENDBRANCH   8  12
ENDBRANCH   7   8
ENDBRANCH   6   7
ENDBRANCH   1   6
BRANCH   5  23
ATOM     23  C   UNL     1       3.025   5.883  18.178  0.00  0.00    +0.000 C 
BRANCH  23  24
ATOM     24  C   UNL     1       4.551   6.026  18.195  0.00  0.00    +0.000 A 
ATOM     25  C   UNL     1       5.234   6.736  17.191  0.00  0.00    +0.000 A 
ATOM     26  C   UNL     1       6.627   6.811  17.181  0.00  0.00    +0.000 A 
ATOM     27  C   UNL     1       7.363   6.172  18.171  0.00  0.00    +0.000 A 
ATOM     28  C   UNL     1       6.708   5.480  19.187  0.00  0.00    +0.000 A 
ATOM     29  C   UNL     1       5.311   5.413  19.205  0.00  0.00    +0.000 A 
ENDBRANCH  23  24
BRANCH  23  30
ATOM     30  C   UNL     1       2.554   4.420  18.225  0.00  0.00    +0.000 A 
ATOM     31  C   UNL     1       3.298   3.422  17.567  0.00  0.00    +0.000 A 
ATOM     32  C   UNL     1       2.920   2.077  17.639  0.00  0.00    +0.000 A 
ATOM     33  C   UNL     1       1.800   1.702  18.373  0.00  0.00    +0.000 A 
ATOM     34  C   UNL     1       1.040   2.673  19.016  0.00  0.00    +0.000 A 
ATOM     35  C   UNL     1       1.408   4.018  18.934  0.00  0.00    +0.000 A 
ENDBRANCH  23  30
ENDBRANCH   5  23
TORSDOF 10
ENDMDL
MODEL 9
REMARK VINA RESULT:      -8.2      2.583      4.544
REMARK  Name = 
REMARK  10 active torsions:
REMARK  status: ('A' for Active; 'I' for Inactive)
REMARK    1  A    between atoms: C_4  and  C_5
REMARK    2  A    between atoms: C_5  and  C_6
REMARK    3  A    between atoms: C_6  and  N_7
REMARK    4  A    between atoms: N_10  and  C_11
REMARK    5  A    between atoms: C_11  and  C_12
REMARK    6  A    between atoms: C_12  and  C_13
REMARK    7  A    between atoms: C_13  and  N_14
REMARK    8  A    between atoms: C_18  and  C_19
REMARK    9  A    between atoms: C_19  and  C_20
REMARK   10  A    between atoms: C_19  and  C_26
REMARK                            x       y       z     vdW  Elec       q    Type
REMARK                         _______ _______ _______ _____ _____    ______ ____
ROOT
ATOM      1  N   UNL     1       2.193   7.852  19.113  0.00  0.00    +0.000 N 
ATOM      2  N   UNL     1       1.610   8.289  20.246  0.00  0.00    +0.000 NA
ATOM      3  N   UNL     1       1.592   7.249  21.059  0.00  0.00    +0.000 NA
ATOM      4  N   UNL     1       2.123   6.146  20.451  0.00  0.00    +0.000 NA
ATOM      5  C   UNL     1       2.472   6.511  19.228  0.00  0.00    +0.000 A 
ENDROOT
BRANCH   1   6
ATOM      6  C   UNL     1       2.403   8.796  18.034  0.00  0.00    +0.000 C 
BRANCH   6   7
ATOM      7  C   UNL     1       1.179   9.683  17.791  0.00  0.00    +0.000 C 
BRANCH   7   8
ATOM      8  C   UNL     1       1.296  11.068  18.444  0.00  0.00    +0.000 C 
BRANCH   8  12
ATOM      9  N   UNL     1       0.689  14.256  20.346  0.00  0.00    +0.000 NA
ATOM     10  C   UNL     1       1.289  13.015  20.883  0.00  0.00    +0.000 C 
ATOM     11  C   UNL     1       0.435  11.747  20.652  0.00  0.00    +0.000 C 
ATOM     12  N   UNL     1       0.119  11.480  19.229  0.00  0.00    +0.000 NA
ATOM     13  C   UNL     1      -0.482  12.717  18.663  0.00  0.00    +0.000 C 
ATOM     14  C   UNL     1       0.320  14.022  18.929  0.00  0.00    +0.000 C 
BRANCH   9  15
ATOM     15  C   UNL     1      -0.486  14.712  21.120  0.00  0.00    +0.000 C 
BRANCH  15  16
ATOM     16  C   UNL     1      -0.308  14.617  22.645  0.00  0.00    +0.000 C 
BRANCH  16  20
ATOM     17  C   UNL     1      -3.855  13.103  24.568  0.00  0.00    +0.000 A 
ATOM     18  C   UNL     1      -3.289  12.406  23.502  0.00  0.00    +0.000 A 
ATOM     19  C   UNL     1      -2.140  12.898  22.881  0.00  0.00    +0.000 A 
ATOM     20  C   UNL     1      -1.550  14.090  23.324  0.00  0.00    +0.000 A 
ATOM     21  C   UNL     1      -2.129  14.789  24.389  0.00  0.00    +0.000 A 
ATOM     22  C   UNL     1      -3.278  14.293  25.010  0.00  0.00    +0.000 A 
ENDBRANCH  16  20
ENDBRANCH  15  16
ENDBRANCH   9  15
ENDBRANCH   8  12
ENDBRANCH   7   8
ENDBRANCH   6   7
ENDBRANCH   1   6
BRANCH   5  23
ATOM     23  C   UNL     1       3.124   5.650  18.174  0.00  0.00    +0.000 C 
BRANCH  23  24
ATOM     24  C   UNL     1       4.644   5.850  18.150  0.00  0.00    +0.000 A 
ATOM     25  C   UNL     1       5.462   5.385  19.195  0.00  0.00    +0.000 A 
ATOM     26  C   UNL     1       6.837   5.622  19.195  0.00  0.00    +0.000 A 
ATOM     27  C   UNL     1       7.418   6.334  18.153  0.00  0.00    +0.000 A 
ATOM     28  C   UNL     1       6.630   6.788  17.097  0.00  0.00    +0.000 A 
ATOM     29  C   UNL     1       5.254   6.541  17.090  0.00  0.00    +0.000 A 
ENDBRANCH  23  24
BRANCH  23  30
ATOM     30  C   UNL     1       2.710   4.170  18.219  0.00  0.00    +0.000 A 
ATOM     31  C   UNL     1       3.670   3.165  17.999  0.00  0.00    +0.000 A 
ATOM     32  C   UNL     1       3.330   1.811  18.088  0.00  0.00    +0.000 A 
ATOM     33  C   UNL     1       2.028   1.435  18.403  0.00  0.00    +0.000 A 
ATOM     34  C   UNL     1       1.057   2.411  18.605  0.00  0.00    +0.000 A 
ATOM     35  C   UNL     1       1.394   3.763  18.504  0.00  0.00    +0.000 A 
ENDBRANCH  23  30
ENDBRANCH   5  23
TORSDOF 10
ENDMDL
