MODEL 1
REMARK VINA RESULT:      -7.7      0.000      0.000
REMARK  Name = 
REMARK  5 active torsions:
REMARK  status: ('A' for Active; 'I' for Inactive)
REMARK    1  A    between atoms: C_4  and  C_5
REMARK    2  A    between atoms: C_7  and  C_8
REMARK    3  A    between atoms: C_14  and  C_15
REMARK    4  A    between atoms: C_15  and  C_16
REMARK    5  A    between atoms: C_16  and  C_17
REMARK                            x       y       z     vdW  Elec       q    Type
REMARK                         _______ _______ _______ _____ _____    ______ ____
ROOT
ATOM      1  C   UNL     1       1.916   8.643  18.407  0.00  0.00    +0.000 A 
ATOM      2  N   UNL     1       2.919   8.027  17.831  0.00  0.00    +0.000 NA
ATOM      3  C   UNL     1       3.152   6.886  18.570  0.00  0.00    +0.000 A 
ATOM      4  C   UNL     1       2.290   6.825  19.656  0.00  0.00    +0.000 A 
ATOM      5  N   UNL     1       1.511   7.956  19.519  0.00  0.00    +0.000 N 
ATOM      6  H   UNL     1       0.764   8.248  20.134  0.00  0.00    +0.000 HD
ENDROOT
BRANCH   1  10
ATOM      7  O   UNL     1      -0.922  12.485  19.014  0.00  0.00    +0.000 OA
ATOM      8  C   UNL     1       0.017  11.771  18.714  0.00  0.00    +0.000 C 
ATOM      9  C   UNL     1       0.056  10.268  18.813  0.00  0.00    +0.000 C 
ATOM     10  C   UNL     1       1.290   9.918  17.979  0.00  0.00    +0.000 C 
ATOM     11  C   UNL     1       2.186  11.137  18.165  0.00  0.00    +0.000 C 
ATOM     12  N   UNL     1       1.241  12.213  18.273  0.00  0.00    +0.000 N 
ATOM     13  H   UNL     1       1.467  13.201  18.283  0.00  0.00    +0.000 HD
ENDBRANCH   1  10
BRANCH   3  14
ATOM     14  C   UNL     1       4.180   5.946  18.149  0.00  0.00    +0.000 A 
ATOM     15  C   UNL     1       5.224   5.646  19.039  0.00  0.00    +0.000 A 
ATOM     16  C   UNL     1       6.309   4.864  18.637  0.00  0.00    +0.000 A 
ATOM     17  C   UNL     1       6.358   4.367  17.338  0.00  0.00    +0.000 A 
ATOM     18  C   UNL     1       5.318   4.637  16.451  0.00  0.00    +0.000 A 
ATOM     19  C   UNL     1       4.235   5.424  16.853  0.00  0.00    +0.000 A 
ENDBRANCH   3  14
BRANCH   4  20
ATOM     20  C   UNL     1       2.132   5.856  20.799  0.00  0.00    +0.000 C 
BRANCH  20  21
ATOM     21  C   UNL     1       1.311   4.607  20.439  0.00  0.00    +0.000 C 
BRANCH  21  22
ATOM     22  C   UNL     1       2.044   3.537  19.666  0.00  0.00    +0.000 A 
ATOM     23  C   UNL     1       1.654   3.188  18.366  0.00  0.00    +0.000 A 
ATOM     24  C   UNL     1       2.406   2.277  17.621  0.00  0.00    +0.000 A 
ATOM     25  C   UNL     1       3.558   1.708  18.164  0.00  0.00    +0.000 A 
ATOM     26  C   UNL     1       3.949   2.040  19.459  0.00  0.00    +0.000 A 
ATOM     27  C   UNL     1       3.197   2.948  20.205  0.00  0.00    +0.000 A 
ENDBRANCH  21  22
ENDBRANCH  20  21
ENDBRANCH   4  20
TORSDOF 5
ENDMDL
MODEL 2
REMARK VINA RESULT:      -7.4      3.553      7.000
REMARK  Name = 
REMARK  5 active torsions:
REMARK  status: ('A' for Active; 'I' for Inactive)
REMARK    1  A    between atoms: C_4  and  C_5
REMARK    2  A    between atoms: C_7  and  C_8
REMARK    3  A    between atoms: C_14  and  C_15
REMARK    4  A    between atoms: C_15  and  C_16
REMARK    5  A    between atoms: C_16  and  C_17
REMARK                            x       y       z     vdW  Elec       q    Type
REMARK                         _______ _______ _______ _____ _____    ______ ____
ROOT
ATOM      1  C   UNL     1       5.122   4.554  16.603  0.00  0.00    +0.000 A 
ATOM      2  N   UNL     1       4.612   3.733  17.486  0.00  0.00    +0.000 NA
ATOM      3  C   UNL     1       3.632   4.437  18.154  0.00  0.00    +0.000 A 
ATOM      4  C   UNL     1       3.571   5.744  17.691  0.00  0.00    +0.000 A 
ATOM      5  N   UNL     1       4.529   5.784  16.698  0.00  0.00    +0.000 N 
ATOM      6  H   UNL     1       4.771   6.584  16.129  0.00  0.00    +0.000 HD
ENDROOT
BRANCH   1  10
ATOM      7  O   UNL     1       6.989   4.170  12.181  0.00  0.00    +0.000 OA
ATOM      8  C   UNL     1       6.848   4.418  13.364  0.00  0.00    +0.000 C 
ATOM      9  C   UNL     1       5.676   4.016  14.221  0.00  0.00    +0.000 C 
ATOM     10  C   UNL     1       6.208   4.260  15.636  0.00  0.00    +0.000 C 
ATOM     11  C   UNL     1       7.188   5.411  15.440  0.00  0.00    +0.000 C 
ATOM     12  N   UNL     1       7.718   5.158  14.129  0.00  0.00    +0.000 N 
ATOM     13  H   UNL     1       8.494   5.648  13.700  0.00  0.00    +0.000 HD
ENDBRANCH   1  10
BRANCH   3  14
ATOM     14  C   UNL     1       2.829   3.777  19.173  0.00  0.00    +0.000 A 
ATOM     15  C   UNL     1       1.462   3.573  18.926  0.00  0.00    +0.000 A 
ATOM     16  C   UNL     1       0.619   3.075  19.922  0.00  0.00    +0.000 A 
ATOM     17  C   UNL     1       1.137   2.770  21.177  0.00  0.00    +0.000 A 
ATOM     18  C   UNL     1       2.497   2.945  21.429  0.00  0.00    +0.000 A 
ATOM     19  C   UNL     1       3.339   3.449  20.433  0.00  0.00    +0.000 A 
ENDBRANCH   3  14
BRANCH   4  20
ATOM     20  C   UNL     1       2.748   6.943  18.082  0.00  0.00    +0.000 C 
BRANCH  20  21
ATOM     21  C   UNL     1       2.554   7.090  19.599  0.00  0.00    +0.000 C 
BRANCH  21  22
ATOM     22  C   UNL     1       1.617   8.189  20.041  0.00  0.00    +0.000 A 
ATOM     23  C   UNL     1       1.309   9.261  19.193  0.00  0.00    +0.000 A 
ATOM     24  C   UNL     1       0.358  10.212  19.569  0.00  0.00    +0.000 A 
ATOM     25  C   UNL     1      -0.300  10.100  20.794  0.00  0.00    +0.000 A 
ATOM     26  C   UNL     1       0.005   9.043  21.649  0.00  0.00    +0.000 A 
ATOM     27  C   UNL     1       0.957   8.094  21.275  0.00  0.00    +0.000 A 
ENDBRANCH  21  22
ENDBRANCH  20  21
ENDBRANCH   4  20
TORSDOF 5
ENDMDL
MODEL 3
REMARK VINA RESULT:      -7.3      3.700      7.085
REMARK  Name = 
REMARK  5 active torsions:
REMARK  status: ('A' for Active; 'I' for Inactive)
REMARK    1  A    between atoms: C_4  and  C_5
REMARK    2  A    between atoms: C_7  and  C_8
REMARK    3  A    between atoms: C_14  and  C_15
REMARK    4  A    between atoms: C_15  and  C_16
REMARK    5  A    between atoms: C_16  and  C_17
REMARK                            x       y       z     vdW  Elec       q    Type
REMARK                         _______ _______ _______ _____ _____    ______ ____
ROOT
ATOM      1  C   UNL     1       5.166   4.634  16.162  0.00  0.00    +0.000 A 
ATOM      2  N   UNL     1       4.409   3.951  16.985  0.00  0.00    +0.000 NA
ATOM      3  C   UNL     1       3.726   4.876  17.747  0.00  0.00    +0.000 A 
ATOM      4  C   UNL     1       4.110   6.165  17.405  0.00  0.00    +0.000 A 
ATOM      5  N   UNL     1       5.023   5.976  16.387  0.00  0.00    +0.000 N 
ATOM      6  H   UNL     1       5.521   6.699  15.885  0.00  0.00    +0.000 HD
ENDROOT
BRANCH   1  10
ATOM      7  O   UNL     1       6.360   3.300  11.692  0.00  0.00    +0.000 OA
ATOM      8  C   UNL     1       6.402   3.773  12.813  0.00  0.00    +0.000 C 
ATOM      9  C   UNL     1       5.347   3.625  13.878  0.00  0.00    +0.000 C 
ATOM     10  C   UNL     1       6.087   4.086  15.136  0.00  0.00    +0.000 C 
ATOM     11  C   UNL     1       7.082   5.104  14.594  0.00  0.00    +0.000 C 
ATOM     12  N   UNL     1       7.407   4.575  13.299  0.00  0.00    +0.000 N 
ATOM     13  H   UNL     1       8.136   4.918  12.685  0.00  0.00    +0.000 HD
ENDBRANCH   1  10
BRANCH   3  14
ATOM     14  C   UNL     1       2.750   4.430  18.728  0.00  0.00    +0.000 A 
ATOM     15  C   UNL     1       3.029   4.619  20.092  0.00  0.00    +0.000 A 
ATOM     16  C   UNL     1       2.196   4.084  21.077  0.00  0.00    +0.000 A 
ATOM     17  C   UNL     1       1.068   3.358  20.708  0.00  0.00    +0.000 A 
ATOM     18  C   UNL     1       0.765   3.181  19.358  0.00  0.00    +0.000 A 
ATOM     19  C   UNL     1       1.603   3.713  18.373  0.00  0.00    +0.000 A 
ENDBRANCH   3  14
BRANCH   4  20
ATOM     20  C   UNL     1       3.741   7.528  17.930  0.00  0.00    +0.000 C 
BRANCH  20  21
ATOM     21  C   UNL     1       2.241   7.845  17.822  0.00  0.00    +0.000 C 
BRANCH  21  22
ATOM     22  C   UNL     1       1.617   8.499  19.032  0.00  0.00    +0.000 A 
ATOM     23  C   UNL     1       1.705   7.908  20.300  0.00  0.00    +0.000 A 
ATOM     24  C   UNL     1       1.221   8.575  21.428  0.00  0.00    +0.000 A 
ATOM     25  C   UNL     1       0.649   9.841  21.302  0.00  0.00    +0.000 A 
ATOM     26  C   UNL     1       0.548  10.434  20.046  0.00  0.00    +0.000 A 
ATOM     27  C   UNL     1       1.028   9.767  18.918  0.00  0.00    +0.000 A 
ENDBRANCH  21  22
ENDBRANCH  20  21
ENDBRANCH   4  20
TORSDOF 5
ENDMDL
MODEL 4
REMARK VINA RESULT:      -7.3      1.095      1.537
REMARK  Name = 
REMARK  5 active torsions:
REMARK  status: ('A' for Active; 'I' for Inactive)
REMARK    1  A    between atoms: C_4  and  C_5
REMARK    2  A    between atoms: C_7  and  C_8
REMARK    3  A    between atoms: C_14  and  C_15
REMARK    4  A    between atoms: C_15  and  C_16
REMARK    5  A    between atoms: C_16  and  C_17
REMARK                            x       y       z     vdW  Elec       q    Type
REMARK                         _______ _______ _______ _____ _____    ______ ____
ROOT
ATOM      1  C   UNL     1       1.483   8.623  19.390  0.00  0.00    +0.000 A 
ATOM      2  N   UNL     1       2.512   8.212  18.691  0.00  0.00    +0.000 NA
ATOM      3  C   UNL     1       2.826   6.954  19.161  0.00  0.00    +0.000 A 
ATOM      4  C   UNL     1       1.986   6.603  20.209  0.00  0.00    +0.000 A 
ATOM      5  N   UNL     1       1.137   7.685  20.325  0.00  0.00    +0.000 N 
ATOM      6  H   UNL     1       0.384   7.788  20.991  0.00  0.00    +0.000 HD
ENDROOT
BRANCH   1  10
ATOM      7  O   UNL     1      -1.924  11.522  17.608  0.00  0.00    +0.000 OA
ATOM      8  C   UNL     1      -1.155  10.966  18.370  0.00  0.00    +0.000 C 
ATOM      9  C   UNL     1      -0.080   9.983  17.984  0.00  0.00    +0.000 C 
ATOM     10  C   UNL     1       0.774   9.919  19.253  0.00  0.00    +0.000 C 
ATOM     11  C   UNL     1      -0.238  10.188  20.361  0.00  0.00    +0.000 C 
ATOM     12  N   UNL     1      -1.157  11.099  19.738  0.00  0.00    +0.000 N 
ATOM     13  H   UNL     1      -1.904  11.599  20.206  0.00  0.00    +0.000 HD
ENDBRANCH   1  10
BRANCH   3  14
ATOM     14  C   UNL     1       3.902   6.195  18.542  0.00  0.00    +0.000 A 
ATOM     15  C   UNL     1       3.903   6.042  17.146  0.00  0.00    +0.000 A 
ATOM     16  C   UNL     1       4.830   5.208  16.516  0.00  0.00    +0.000 A 
ATOM     17  C   UNL     1       5.770   4.521  17.276  0.00  0.00    +0.000 A 
ATOM     18  C   UNL     1       5.796   4.681  18.661  0.00  0.00    +0.000 A 
ATOM     19  C   UNL     1       4.865   5.512  19.292  0.00  0.00    +0.000 A 
ENDBRANCH   3  14
BRANCH   4  20
ATOM     20  C   UNL     1       1.905   5.400  21.111  0.00  0.00    +0.000 C 
BRANCH  20  21
ATOM     21  C   UNL     1       1.110   4.230  20.510  0.00  0.00    +0.000 C 
BRANCH  21  22
ATOM     22  C   UNL     1       1.883   3.308  19.597  0.00  0.00    +0.000 A 
ATOM     23  C   UNL     1       1.656   3.302  18.214  0.00  0.00    +0.000 A 
ATOM     24  C   UNL     1       2.453   2.526  17.369  0.00  0.00    +0.000 A 
ATOM     25  C   UNL     1       3.487   1.752  17.895  0.00  0.00    +0.000 A 
ATOM     26  C   UNL     1       3.715   1.743  19.269  0.00  0.00    +0.000 A 
ATOM     27  C   UNL     1       2.918   2.515  20.114  0.00  0.00    +0.000 A 
ENDBRANCH  21  22
ENDBRANCH  20  21
ENDBRANCH   4  20
TORSDOF 5
ENDMDL
MODEL 5
REMARK VINA RESULT:      -7.3      3.477      6.947
REMARK  Name = 
REMARK  5 active torsions:
REMARK  status: ('A' for Active; 'I' for Inactive)
REMARK    1  A    between atoms: C_4  and  C_5
REMARK    2  A    between atoms: C_7  and  C_8
REMARK    3  A    between atoms: C_14  and  C_15
REMARK    4  A    between atoms: C_15  and  C_16
REMARK    5  A    between atoms: C_16  and  C_17
REMARK                            x       y       z     vdW  Elec       q    Type
REMARK                         _______ _______ _______ _____ _____    ______ ____
ROOT
ATOM      1  C   UNL     1       4.976   4.661  16.866  0.00  0.00    +0.000 A 
ATOM      2  N   UNL     1       4.472   3.888  17.795  0.00  0.00    +0.000 NA
ATOM      3  C   UNL     1       3.474   4.616  18.409  0.00  0.00    +0.000 A 
ATOM      4  C   UNL     1       3.395   5.890  17.863  0.00  0.00    +0.000 A 
ATOM      5  N   UNL     1       4.361   5.883  16.877  0.00  0.00    +0.000 N 
ATOM      6  H   UNL     1       4.595   6.650  16.261  0.00  0.00    +0.000 HD
ENDROOT
BRANCH   1  10
ATOM      7  O   UNL     1       6.969   4.266  12.500  0.00  0.00    +0.000 OA
ATOM      8  C   UNL     1       6.802   4.496  13.684  0.00  0.00    +0.000 C 
ATOM      9  C   UNL     1       5.579   4.144  14.492  0.00  0.00    +0.000 C 
ATOM     10  C   UNL     1       6.076   4.325  15.928  0.00  0.00    +0.000 C 
ATOM     11  C   UNL     1       7.127   5.420  15.793  0.00  0.00    +0.000 C 
ATOM     12  N   UNL     1       7.686   5.166  14.495  0.00  0.00    +0.000 N 
ATOM     13  H   UNL     1       8.504   5.618  14.103  0.00  0.00    +0.000 HD
ENDBRANCH   1  10
BRANCH   3  14
ATOM     14  C   UNL     1       2.673   4.009  19.461  0.00  0.00    +0.000 A 
ATOM     15  C   UNL     1       3.328   3.473  20.583  0.00  0.00    +0.000 A 
ATOM     16  C   UNL     1       2.623   2.755  21.551  0.00  0.00    +0.000 A 
ATOM     17  C   UNL     1       1.251   2.569  21.410  0.00  0.00    +0.000 A 
ATOM     18  C   UNL     1       0.584   3.114  20.314  0.00  0.00    +0.000 A 
ATOM     19  C   UNL     1       1.292   3.828  19.343  0.00  0.00    +0.000 A 
ENDBRANCH   3  14
BRANCH   4  20
ATOM     20  C   UNL     1       2.548   7.097  18.170  0.00  0.00    +0.000 C 
BRANCH  20  21
ATOM     21  C   UNL     1       2.381   7.366  19.674  0.00  0.00    +0.000 C 
BRANCH  21  22
ATOM     22  C   UNL     1       1.439   8.488  20.042  0.00  0.00    +0.000 A 
ATOM     23  C   UNL     1       1.125   9.499  19.124  0.00  0.00    +0.000 A 
ATOM     24  C   UNL     1       0.169  10.469  19.436  0.00  0.00    +0.000 A 
ATOM     25  C   UNL     1      -0.487  10.436  20.668  0.00  0.00    +0.000 A 
ATOM     26  C   UNL     1      -0.175   9.441  21.591  0.00  0.00    +0.000 A 
ATOM     27  C   UNL     1       0.781   8.474  21.281  0.00  0.00    +0.000 A 
ENDBRANCH  21  22
ENDBRANCH  20  21
ENDBRANCH   4  20
TORSDOF 5
ENDMDL
MODEL 6
REMARK VINA RESULT:      -7.3      0.481      1.445
REMARK  Name = 
REMARK  5 active torsions:
REMARK  status: ('A' for Active; 'I' for Inactive)
REMARK    1  A    between atoms: C_4  and  C_5
REMARK    2  A    between atoms: C_7  and  C_8
REMARK    3  A    between atoms: C_14  and  C_15
REMARK    4  A    between atoms: C_15  and  C_16
REMARK    5  A    between atoms: C_16  and  C_17
REMARK                            x       y       z     vdW  Elec       q    Type
REMARK                         _______ _______ _______ _____ _____    ______ ____
ROOT
ATOM      1  C   UNL     1       1.807   8.861  18.508  0.00  0.00    +0.000 A 
ATOM      2  N   UNL     1       2.823   8.286  17.914  0.00  0.00    +0.000 NA
ATOM      3  C   UNL     1       3.089   7.133  18.622  0.00  0.00    +0.000 A 
ATOM      4  C   UNL     1       2.232   7.022  19.709  0.00  0.00    +0.000 A 
ATOM      5  N   UNL     1       1.424   8.135  19.603  0.00  0.00    +0.000 N 
ATOM      6  H   UNL     1       0.672   8.392  20.228  0.00  0.00    +0.000 HD
ENDROOT
BRANCH   1  10
ATOM      7  O   UNL     1      -1.840  12.005  18.461  0.00  0.00    +0.000 OA
ATOM      8  C   UNL     1      -0.723  11.522  18.513  0.00  0.00    +0.000 C 
ATOM      9  C   UNL     1      -0.372  10.073  18.292  0.00  0.00    +0.000 C 
ATOM     10  C   UNL     1       1.147  10.130  18.115  0.00  0.00    +0.000 C 
ATOM     11  C   UNL     1       1.548  11.324  18.973  0.00  0.00    +0.000 C 
ATOM     12  N   UNL     1       0.424  12.207  18.833  0.00  0.00    +0.000 N 
ATOM     13  H   UNL     1       0.377  13.164  19.165  0.00  0.00    +0.000 HD
ENDBRANCH   1  10
BRANCH   3  14
ATOM     14  C   UNL     1       4.139   6.231  18.175  0.00  0.00    +0.000 A 
ATOM     15  C   UNL     1       4.085   5.731  16.864  0.00  0.00    +0.000 A 
ATOM     16  C   UNL     1       4.985   4.755  16.430  0.00  0.00    +0.000 A 
ATOM     17  C   UNL     1       5.954   4.272  17.303  0.00  0.00    +0.000 A 
ATOM     18  C   UNL     1       6.035   4.775  18.600  0.00  0.00    +0.000 A 
ATOM     19  C   UNL     1       5.131   5.749  19.035  0.00  0.00    +0.000 A 
ENDBRANCH   3  14
BRANCH   4  20
ATOM     20  C   UNL     1       2.104   6.020  20.827  0.00  0.00    +0.000 C 
BRANCH  20  21
ATOM     21  C   UNL     1       1.341   4.746  20.428  0.00  0.00    +0.000 C 
BRANCH  21  22
ATOM     22  C   UNL     1       2.137   3.715  19.663  0.00  0.00    +0.000 A 
ATOM     23  C   UNL     1       3.233   3.067  20.248  0.00  0.00    +0.000 A 
ATOM     24  C   UNL     1       3.891   2.037  19.572  0.00  0.00    +0.000 A 
ATOM     25  C   UNL     1       3.459   1.641  18.306  0.00  0.00    +0.000 A 
ATOM     26  C   UNL     1       2.376   2.284  17.711  0.00  0.00    +0.000 A 
ATOM     27  C   UNL     1       1.720   3.315  18.385  0.00  0.00    +0.000 A 
ENDBRANCH  21  22
ENDBRANCH  20  21
ENDBRANCH   4  20
TORSDOF 5
ENDMDL
MODEL 7
REMARK VINA RESULT:      -7.2      2.089      3.863
REMARK  Name = 
REMARK  5 active torsions:
REMARK  status: ('A' for Active; 'I' for Inactive)
REMARK    1  A    between atoms: C_4  and  C_5
REMARK    2  A    between atoms: C_7  and  C_8
REMARK    3  A    between atoms: C_14  and  C_15
REMARK    4  A    between atoms: C_15  and  C_16
REMARK    5  A    between atoms: C_16  and  C_17
REMARK                            x       y       z     vdW  Elec       q    Type
REMARK                         _______ _______ _______ _____ _____    ______ ____
ROOT
ATOM      1  C   UNL     1       1.598   7.737  20.683  0.00  0.00    +0.000 A 
ATOM      2  N   UNL     1       1.735   6.438  20.585  0.00  0.00    +0.000 NA
ATOM      3  C   UNL     1       2.318   6.198  19.358  0.00  0.00    +0.000 A 
ATOM      4  C   UNL     1       2.505   7.388  18.668  0.00  0.00    +0.000 A 
ATOM      5  N   UNL     1       2.042   8.350  19.543  0.00  0.00    +0.000 N 
ATOM      6  H   UNL     1       2.020   9.347  19.381  0.00  0.00    +0.000 HD
ENDROOT
BRANCH   1  10
ATOM      7  O   UNL     1      -0.345  11.618  22.770  0.00  0.00    +0.000 OA
ATOM      8  C   UNL     1      -0.116  10.468  22.442  0.00  0.00    +0.000 C 
ATOM      9  C   UNL     1       1.040  10.001  21.595  0.00  0.00    +0.000 C 
ATOM     10  C   UNL     1       1.023   8.488  21.826  0.00  0.00    +0.000 C 
ATOM     11  C   UNL     1      -0.452   8.196  22.075  0.00  0.00    +0.000 C 
ATOM     12  N   UNL     1      -0.903   9.384  22.746  0.00  0.00    +0.000 N 
ATOM     13  H   UNL     1      -1.809   9.510  23.181  0.00  0.00    +0.000 HD
ENDBRANCH   1  10
BRANCH   3  14
ATOM     14  C   UNL     1       2.658   4.839  18.968  0.00  0.00    +0.000 A 
ATOM     15  C   UNL     1       3.767   4.222  19.570  0.00  0.00    +0.000 A 
ATOM     16  C   UNL     1       4.222   2.976  19.132  0.00  0.00    +0.000 A 
ATOM     17  C   UNL     1       3.566   2.329  18.090  0.00  0.00    +0.000 A 
ATOM     18  C   UNL     1       2.450   2.918  17.498  0.00  0.00    +0.000 A 
ATOM     19  C   UNL     1       1.999   4.168  17.933  0.00  0.00    +0.000 A 
ENDBRANCH   3  14
BRANCH   4  20
ATOM     20  C   UNL     1       3.037   7.717  17.298  0.00  0.00    +0.000 C 
BRANCH  20  21
ATOM     21  C   UNL     1       4.571   7.788  17.233  0.00  0.00    +0.000 C 
BRANCH  21  22
ATOM     22  C   UNL     1       5.283   6.473  17.019  0.00  0.00    +0.000 A 
ATOM     23  C   UNL     1       4.891   5.596  15.999  0.00  0.00    +0.000 A 
ATOM     24  C   UNL     1       5.625   4.436  15.739  0.00  0.00    +0.000 A 
ATOM     25  C   UNL     1       6.761   4.142  16.493  0.00  0.00    +0.000 A 
ATOM     26  C   UNL     1       7.155   5.003  17.516  0.00  0.00    +0.000 A 
ATOM     27  C   UNL     1       6.420   6.160  17.777  0.00  0.00    +0.000 A 
ENDBRANCH  21  22
ENDBRANCH  20  21
ENDBRANCH   4  20
TORSDOF 5
ENDMDL
MODEL 8
REMARK VINA RESULT:      -7.1      0.627      1.150
REMARK  Name = 
REMARK  5 active torsions:
REMARK  status: ('A' for Active; 'I' for Inactive)
REMARK    1  A    between atoms: C_4  and  C_5
REMARK    2  A    between atoms: C_7  and  C_8
REMARK    3  A    between atoms: C_14  and  C_15
REMARK    4  A    between atoms: C_15  and  C_16
REMARK    5  A    between atoms: C_16  and  C_17
REMARK                            x       y       z     vdW  Elec       q    Type
REMARK                         _______ _______ _______ _____ _____    ______ ____
ROOT
ATOM      1  C   UNL     1       1.822   8.669  18.864  0.00  0.00    +0.000 A 
ATOM      2  N   UNL     1       2.814   8.076  18.245  0.00  0.00    +0.000 NA
ATOM      3  C   UNL     1       2.991   6.859  18.869  0.00  0.00    +0.000 A 
ATOM      4  C   UNL     1       2.106   6.722  19.929  0.00  0.00    +0.000 A 
ATOM      5  N   UNL     1       1.370   7.890  19.894  0.00  0.00    +0.000 N 
ATOM      6  H   UNL     1       0.622   8.147  20.523  0.00  0.00    +0.000 HD
ENDROOT
BRANCH   1  10
ATOM      7  O   UNL     1       0.624  13.210  19.925  0.00  0.00    +0.000 OA
ATOM      8  C   UNL     1       1.033  12.223  19.341  0.00  0.00    +0.000 C 
ATOM      9  C   UNL     1       0.920  10.799  19.820  0.00  0.00    +0.000 C 
ATOM     10  C   UNL     1       1.251  10.003  18.556  0.00  0.00    +0.000 C 
ATOM     11  C   UNL     1       2.207  10.926  17.810  0.00  0.00    +0.000 C 
ATOM     12  N   UNL     1       1.719  12.233  18.151  0.00  0.00    +0.000 N 
ATOM     13  H   UNL     1       2.030  13.106  17.741  0.00  0.00    +0.000 HD
ENDBRANCH   1  10
BRANCH   3  14
ATOM     14  C   UNL     1       3.994   5.928  18.373  0.00  0.00    +0.000 A 
ATOM     15  C   UNL     1       5.104   5.639  19.183  0.00  0.00    +0.000 A 
ATOM     16  C   UNL     1       6.163   4.866  18.701  0.00  0.00    +0.000 A 
ATOM     17  C   UNL     1       6.120   4.369  17.402  0.00  0.00    +0.000 A 
ATOM     18  C   UNL     1       5.013   4.629  16.594  0.00  0.00    +0.000 A 
ATOM     19  C   UNL     1       3.956   5.407  17.076  0.00  0.00    +0.000 A 
ENDBRANCH   3  14
BRANCH   4  20
ATOM     20  C   UNL     1       1.891   5.651  20.966  0.00  0.00    +0.000 C 
BRANCH  20  21
ATOM     21  C   UNL     1       1.194   4.395  20.419  0.00  0.00    +0.000 C 
BRANCH  21  22
ATOM     22  C   UNL     1       2.072   3.436  19.649  0.00  0.00    +0.000 A 
ATOM     23  C   UNL     1       3.239   2.908  20.219  0.00  0.00    +0.000 A 
ATOM     24  C   UNL     1       3.982   1.939  19.541  0.00  0.00    +0.000 A 
ATOM     25  C   UNL     1       3.567   1.485  18.290  0.00  0.00    +0.000 A 
ATOM     26  C   UNL     1       2.414   2.010  17.710  0.00  0.00    +0.000 A 
ATOM     27  C   UNL     1       1.672   2.980  18.386  0.00  0.00    +0.000 A 
ENDBRANCH  21  22
ENDBRANCH  20  21
ENDBRANCH   4  20
TORSDOF 5
ENDMDL
MODEL 9
REMARK VINA RESULT:      -7.1      3.665      7.014
REMARK  Name = 
REMARK  5 active torsions:
REMARK  status: ('A' for Active; 'I' for Inactive)
REMARK    1  A    between atoms: C_4  and  C_5
REMARK    2  A    between atoms: C_7  and  C_8
REMARK    3  A    between atoms: C_14  and  C_15
REMARK    4  A    between atoms: C_15  and  C_16
REMARK    5  A    between atoms: C_16  and  C_17
REMARK                            x       y       z     vdW  Elec       q    Type
REMARK                         _______ _______ _______ _____ _____    ______ ____
ROOT
ATOM      1  C   UNL     1       5.198   4.473  16.276  0.00  0.00    +0.000 A 
ATOM      2  N   UNL     1       4.516   3.764  17.140  0.00  0.00    +0.000 NA
ATOM      3  C   UNL     1       3.861   4.664  17.954  0.00  0.00    +0.000 A 
ATOM      4  C   UNL     1       4.188   5.966  17.601  0.00  0.00    +0.000 A 
ATOM      5  N   UNL     1       5.036   5.809  16.523  0.00  0.00    +0.000 N 
ATOM      6  H   UNL     1       5.480   6.549  15.996  0.00  0.00    +0.000 HD
ENDROOT
BRANCH   1  10
ATOM      7  O   UNL     1       6.158   3.300  11.705  0.00  0.00    +0.000 OA
ATOM      8  C   UNL     1       6.260   3.730  12.839  0.00  0.00    +0.000 C 
ATOM      9  C   UNL     1       5.257   3.548  13.950  0.00  0.00    +0.000 C 
ATOM     10  C   UNL     1       6.063   3.958  15.186  0.00  0.00    +0.000 C 
ATOM     11  C   UNL     1       7.038   4.990  14.632  0.00  0.00    +0.000 C 
ATOM     12  N   UNL     1       7.293   4.507  13.304  0.00  0.00    +0.000 N 
ATOM     13  H   UNL     1       7.994   4.868  12.667  0.00  0.00    +0.000 HD
ENDBRANCH   1  10
BRANCH   3  14
ATOM     14  C   UNL     1       2.964   4.184  18.994  0.00  0.00    +0.000 A 
ATOM     15  C   UNL     1       3.513   3.530  20.109  0.00  0.00    +0.000 A 
ATOM     16  C   UNL     1       2.692   2.926  21.064  0.00  0.00    +0.000 A 
ATOM     17  C   UNL     1       1.310   2.975  20.917  0.00  0.00    +0.000 A 
ATOM     18  C   UNL     1       0.750   3.641  19.827  0.00  0.00    +0.000 A 
ATOM     19  C   UNL     1       1.573   4.241  18.869  0.00  0.00    +0.000 A 
ENDBRANCH   3  14
BRANCH   4  20
ATOM     20  C   UNL     1       3.820   7.315  18.162  0.00  0.00    +0.000 C 
BRANCH  20  21
ATOM     21  C   UNL     1       2.345   7.691  17.944  0.00  0.00    +0.000 C 
BRANCH  21  22
ATOM     22  C   UNL     1       1.674   8.416  19.087  0.00  0.00    +0.000 A 
ATOM     23  C   UNL     1       0.951   9.596  18.870  0.00  0.00    +0.000 A 
ATOM     24  C   UNL     1       0.243  10.196  19.914  0.00  0.00    +0.000 A 
ATOM     25  C   UNL     1       0.248   9.621  21.186  0.00  0.00    +0.000 A 
ATOM     26  C   UNL     1       0.971   8.453  21.415  0.00  0.00    +0.000 A 
ATOM     27  C   UNL     1       1.680   7.855  20.373  0.00  0.00    +0.000 A 
ENDBRANCH  21  22
ENDBRANCH  20  21
ENDBRANCH   4  20
TORSDOF 5
ENDMDL
