MODEL 1
REMARK VINA RESULT:      -7.7      0.000      0.000
REMARK  Name = 
REMARK  4 active torsions:
REMARK  status: ('A' for Active; 'I' for Inactive)
REMARK    1  A    between atoms: C_6  and  O_7
REMARK    2  A    between atoms: O_7  and  C_8
REMARK    3  A    between atoms: N_15  and  C_16
REMARK    4  A    between atoms: C_16  and  C_17
REMARK                            x       y       z     vdW  Elec       q    Type
REMARK                         _______ _______ _______ _____ _____    ______ ____
ROOT
ATOM      1  N   UNL     1       7.664   6.643  16.902  0.00  0.00    +0.000 NA
ATOM      2  C   UNL     1       6.713   5.877  17.293  0.00  0.00    +0.000 A 
ATOM      3  S   UNL     1       6.703   5.327  18.979  0.00  0.00    +0.000 S 
ATOM      4  C   UNL     1       5.169   4.465  18.692  0.00  0.00    +0.000 A 
ATOM      5  C   UNL     1       4.419   3.774  19.627  0.00  0.00    +0.000 A 
ATOM      6  C   UNL     1       3.234   3.165  19.221  0.00  0.00    +0.000 A 
ATOM      7  C   UNL     1       2.866   3.203  17.871  0.00  0.00    +0.000 A 
ATOM      8  C   UNL     1       3.625   3.929  16.937  0.00  0.00    +0.000 A 
ATOM      9  C   UNL     1       4.774   4.594  17.347  0.00  0.00    +0.000 A 
ATOM     10  N   UNL     1       5.634   5.394  16.585  0.00  0.00    +0.000 N 
ATOM     11  H   UNL     1       8.282   6.784  17.711  0.00  0.00    +0.000 HD
ENDROOT
BRANCH   6  12
ATOM     12  O   UNL     1       2.556   2.508  20.202  0.00  0.00    +0.000 OA
BRANCH  12  13
ATOM     13  C   UNL     1       1.353   3.060  20.718  0.00  0.00    +0.000 C 
ATOM     14  F   UNL     1       1.385   4.397  20.882  0.00  0.00    +0.000 F 
ATOM     15  F   UNL     1       0.333   2.749  19.888  0.00  0.00    +0.000 F 
ATOM     16  F   UNL     1       1.103   2.500  21.922  0.00  0.00    +0.000 F 
ENDBRANCH  12  13
ENDBRANCH   6  12
BRANCH  10  17
ATOM     17  C   UNL     1       5.285   5.904  15.268  0.00  0.00    +0.000 C 
BRANCH  17  18
ATOM     18  C   UNL     1       5.867   5.070  14.148  0.00  0.00    +0.000 A 
ATOM     19  C   UNL     1       7.167   5.314  13.679  0.00  0.00    +0.000 A 
ATOM     20  C   UNL     1       7.704   4.546  12.644  0.00  0.00    +0.000 A 
ATOM     21  C   UNL     1       6.953   3.519  12.075  0.00  0.00    +0.000 A 
ATOM     22  C   UNL     1       5.677   3.242  12.556  0.00  0.00    +0.000 A 
ATOM     23  C   UNL     1       5.139   4.007  13.593  0.00  0.00    +0.000 A 
ENDBRANCH  17  18
ENDBRANCH  10  17
TORSDOF 4
ENDMDL
MODEL 2
REMARK VINA RESULT:      -7.7      0.079      1.314
REMARK  Name = 
REMARK  4 active torsions:
REMARK  status: ('A' for Active; 'I' for Inactive)
REMARK    1  A    between atoms: C_6  and  O_7
REMARK    2  A    between atoms: O_7  and  C_8
REMARK    3  A    between atoms: N_15  and  C_16
REMARK    4  A    between atoms: C_16  and  C_17
REMARK                            x       y       z     vdW  Elec       q    Type
REMARK                         _______ _______ _______ _____ _____    ______ ____
ROOT
ATOM      1  N   UNL     1       7.673   6.662  16.923  0.00  0.00    +0.000 NA
ATOM      2  C   UNL     1       6.733   5.880  17.312  0.00  0.00    +0.000 A 
ATOM      3  S   UNL     1       6.730   5.330  18.998  0.00  0.00    +0.000 S 
ATOM      4  C   UNL     1       5.212   4.442  18.708  0.00  0.00    +0.000 A 
ATOM      5  C   UNL     1       4.472   3.739  19.643  0.00  0.00    +0.000 A 
ATOM      6  C   UNL     1       3.297   3.110  19.235  0.00  0.00    +0.000 A 
ATOM      7  C   UNL     1       2.931   3.142  17.884  0.00  0.00    +0.000 A 
ATOM      8  C   UNL     1       3.679   3.881  16.951  0.00  0.00    +0.000 A 
ATOM      9  C   UNL     1       4.817   4.565  17.364  0.00  0.00    +0.000 A 
ATOM     10  N   UNL     1       5.663   5.379  16.603  0.00  0.00    +0.000 N 
ATOM     11  H   UNL     1       8.287   6.813  17.733  0.00  0.00    +0.000 HD
ENDROOT
BRANCH   6  12
ATOM     12  O   UNL     1       2.630   2.441  20.215  0.00  0.00    +0.000 OA
BRANCH  12  13
ATOM     13  C   UNL     1       1.449   3.002  20.771  0.00  0.00    +0.000 C 
ATOM     14  F   UNL     1       1.107   2.490  21.970  0.00  0.00    +0.000 F 
ATOM     15  F   UNL     1       1.612   4.337  20.900  0.00  0.00    +0.000 F 
ATOM     16  F   UNL     1       0.424   2.782  19.919  0.00  0.00    +0.000 F 
ENDBRANCH  12  13
ENDBRANCH   6  12
BRANCH  10  17
ATOM     17  C   UNL     1       5.308   5.885  15.285  0.00  0.00    +0.000 C 
BRANCH  17  18
ATOM     18  C   UNL     1       5.879   5.043  14.166  0.00  0.00    +0.000 A 
ATOM     19  C   UNL     1       5.112   4.027  13.575  0.00  0.00    +0.000 A 
ATOM     20  C   UNL     1       5.639   3.249  12.542  0.00  0.00    +0.000 A 
ATOM     21  C   UNL     1       6.933   3.484  12.081  0.00  0.00    +0.000 A 
ATOM     22  C   UNL     1       7.691   4.513  12.632  0.00  0.00    +0.000 A 
ATOM     23  C   UNL     1       7.165   5.294  13.663  0.00  0.00    +0.000 A 
ENDBRANCH  17  18
ENDBRANCH  10  17
TORSDOF 4
ENDMDL
MODEL 3
REMARK VINA RESULT:      -7.3      4.835      7.052
REMARK  Name = 
REMARK  4 active torsions:
REMARK  status: ('A' for Active; 'I' for Inactive)
REMARK    1  A    between atoms: C_6  and  O_7
REMARK    2  A    between atoms: O_7  and  C_8
REMARK    3  A    between atoms: N_15  and  C_16
REMARK    4  A    between atoms: C_16  and  C_17
REMARK                            x       y       z     vdW  Elec       q    Type
REMARK                         _______ _______ _______ _____ _____    ______ ____
ROOT
ATOM      1  N   UNL     1       0.497   3.714  20.074  0.00  0.00    +0.000 NA
ATOM      2  C   UNL     1       1.634   3.874  19.502  0.00  0.00    +0.000 A 
ATOM      3  S   UNL     1       2.014   2.889  18.078  0.00  0.00    +0.000 S 
ATOM      4  C   UNL     1       3.580   3.725  17.914  0.00  0.00    +0.000 A 
ATOM      5  C   UNL     1       4.517   3.541  16.912  0.00  0.00    +0.000 A 
ATOM      6  C   UNL     1       5.689   4.293  16.941  0.00  0.00    +0.000 A 
ATOM      7  C   UNL     1       5.925   5.161  18.014  0.00  0.00    +0.000 A 
ATOM      8  C   UNL     1       4.954   5.355  19.011  0.00  0.00    +0.000 A 
ATOM      9  C   UNL     1       3.754   4.656  18.954  0.00  0.00    +0.000 A 
ATOM     10  N   UNL     1       2.658   4.739  19.820  0.00  0.00    +0.000 N 
ATOM     11  H   UNL     1       0.004   2.979  19.552  0.00  0.00    +0.000 HD
ENDROOT
BRANCH   6  12
ATOM     12  O   UNL     1       6.555   4.053  15.919  0.00  0.00    +0.000 OA
BRANCH  12  13
ATOM     13  C   UNL     1       6.326   4.645  14.648  0.00  0.00    +0.000 C 
ATOM     14  F   UNL     1       5.764   3.815  13.746  0.00  0.00    +0.000 F 
ATOM     15  F   UNL     1       5.529   5.724  14.800  0.00  0.00    +0.000 F 
ATOM     16  F   UNL     1       7.510   5.060  14.146  0.00  0.00    +0.000 F 
ENDBRANCH  12  13
ENDBRANCH   6  12
BRANCH  10  17
ATOM     17  C   UNL     1       2.484   5.818  20.782  0.00  0.00    +0.000 C 
BRANCH  17  18
ATOM     18  C   UNL     1       2.018   7.104  20.136  0.00  0.00    +0.000 A 
ATOM     19  C   UNL     1       1.320   8.064  20.883  0.00  0.00    +0.000 A 
ATOM     20  C   UNL     1       0.887   9.251  20.288  0.00  0.00    +0.000 A 
ATOM     21  C   UNL     1       1.159   9.497  18.943  0.00  0.00    +0.000 A 
ATOM     22  C   UNL     1       1.885   8.570  18.200  0.00  0.00    +0.000 A 
ATOM     23  C   UNL     1       2.320   7.384  18.795  0.00  0.00    +0.000 A 
ENDBRANCH  17  18
ENDBRANCH  10  17
TORSDOF 4
ENDMDL
MODEL 4
REMARK VINA RESULT:      -7.3      4.836      6.988
REMARK  Name = 
REMARK  4 active torsions:
REMARK  status: ('A' for Active; 'I' for Inactive)
REMARK    1  A    between atoms: C_6  and  O_7
REMARK    2  A    between atoms: O_7  and  C_8
REMARK    3  A    between atoms: N_15  and  C_16
REMARK    4  A    between atoms: C_16  and  C_17
REMARK                            x       y       z     vdW  Elec       q    Type
REMARK                         _______ _______ _______ _____ _____    ______ ____
ROOT
ATOM      1  N   UNL     1       0.570   3.638  19.888  0.00  0.00    +0.000 NA
ATOM      2  C   UNL     1       1.726   3.823  19.365  0.00  0.00    +0.000 A 
ATOM      3  S   UNL     1       2.184   2.856  17.951  0.00  0.00    +0.000 S 
ATOM      4  C   UNL     1       3.739   3.722  17.859  0.00  0.00    +0.000 A 
ATOM      5  C   UNL     1       4.720   3.563  16.895  0.00  0.00    +0.000 A 
ATOM      6  C   UNL     1       5.876   4.337  16.978  0.00  0.00    +0.000 A 
ATOM      7  C   UNL     1       6.050   5.201  18.067  0.00  0.00    +0.000 A 
ATOM      8  C   UNL     1       5.035   5.370  19.024  0.00  0.00    +0.000 A 
ATOM      9  C   UNL     1       3.852   4.648  18.911  0.00  0.00    +0.000 A 
ATOM     10  N   UNL     1       2.720   4.705  19.732  0.00  0.00    +0.000 N 
ATOM     11  H   UNL     1       0.113   2.898  19.341  0.00  0.00    +0.000 HD
ENDROOT
BRANCH   6  12
ATOM     12  O   UNL     1       6.788   4.121  15.992  0.00  0.00    +0.000 OA
BRANCH  12  13
ATOM     13  C   UNL     1       6.529   4.592  14.677  0.00  0.00    +0.000 C 
ATOM     14  F   UNL     1       5.524   5.488  14.600  0.00  0.00    +0.000 F 
ATOM     15  F   UNL     1       7.651   5.155  14.179  0.00  0.00    +0.000 F 
ATOM     16  F   UNL     1       6.203   3.537  13.898  0.00  0.00    +0.000 F 
ENDBRANCH  12  13
ENDBRANCH   6  12
BRANCH  10  17
ATOM     17  C   UNL     1       2.486   5.773  20.692  0.00  0.00    +0.000 C 
BRANCH  17  18
ATOM     18  C   UNL     1       2.065   7.067  20.033  0.00  0.00    +0.000 A 
ATOM     19  C   UNL     1       2.322   7.290  18.671  0.00  0.00    +0.000 A 
ATOM     20  C   UNL     1       1.936   8.486  18.062  0.00  0.00    +0.000 A 
ATOM     21  C   UNL     1       1.278   9.466  18.802  0.00  0.00    +0.000 A 
ATOM     22  C   UNL     1       0.982   9.242  20.143  0.00  0.00    +0.000 A 
ATOM     23  C   UNL     1       1.365   8.046  20.754  0.00  0.00    +0.000 A 
ENDBRANCH  17  18
ENDBRANCH  10  17
TORSDOF 4
ENDMDL
MODEL 5
REMARK VINA RESULT:      -7.3      6.839      8.259
REMARK  Name = 
REMARK  4 active torsions:
REMARK  status: ('A' for Active; 'I' for Inactive)
REMARK    1  A    between atoms: C_6  and  O_7
REMARK    2  A    between atoms: O_7  and  C_8
REMARK    3  A    between atoms: N_15  and  C_16
REMARK    4  A    between atoms: C_16  and  C_17
REMARK                            x       y       z     vdW  Elec       q    Type
REMARK                         _______ _______ _______ _____ _____    ______ ____
ROOT
ATOM      1  N   UNL     1      -0.305  11.052  21.788  0.00  0.00    +0.000 NA
ATOM      2  C   UNL     1       0.357  10.259  21.027  0.00  0.00    +0.000 A 
ATOM      3  S   UNL     1       0.939   8.725  21.700  0.00  0.00    +0.000 S 
ATOM      4  C   UNL     1       1.615   8.281  20.112  0.00  0.00    +0.000 A 
ATOM      5  C   UNL     1       2.237   7.090  19.780  0.00  0.00    +0.000 A 
ATOM      6  C   UNL     1       2.698   6.913  18.477  0.00  0.00    +0.000 A 
ATOM      7  C   UNL     1       2.589   7.964  17.559  0.00  0.00    +0.000 A 
ATOM      8  C   UNL     1       1.933   9.158  17.903  0.00  0.00    +0.000 A 
ATOM      9  C   UNL     1       1.412   9.317  19.182  0.00  0.00    +0.000 A 
ATOM     10  N   UNL     1       0.698  10.403  19.700  0.00  0.00    +0.000 N 
ATOM     11  H   UNL     1      -0.357  10.603  22.710  0.00  0.00    +0.000 HD
ENDROOT
BRANCH   6  12
ATOM     12  O   UNL     1       3.296   5.715  18.234  0.00  0.00    +0.000 OA
BRANCH  12  13
ATOM     13  C   UNL     1       2.501   4.589  17.888  0.00  0.00    +0.000 C 
ATOM     14  F   UNL     1       1.290   4.903  17.384  0.00  0.00    +0.000 F 
ATOM     15  F   UNL     1       3.166   3.839  16.983  0.00  0.00    +0.000 F 
ATOM     16  F   UNL     1       2.307   3.841  18.997  0.00  0.00    +0.000 F 
ENDBRANCH  12  13
ENDBRANCH   6  12
BRANCH  10  17
ATOM     17  C   UNL     1       0.122  11.447  18.865  0.00  0.00    +0.000 C 
BRANCH  17  18
ATOM     18  C   UNL     1      -1.300  11.142  18.451  0.00  0.00    +0.000 A 
ATOM     19  C   UNL     1      -2.362  11.938  18.908  0.00  0.00    +0.000 A 
ATOM     20  C   UNL     1      -3.676  11.656  18.527  0.00  0.00    +0.000 A 
ATOM     21  C   UNL     1      -3.942  10.585  17.677  0.00  0.00    +0.000 A 
ATOM     22  C   UNL     1      -2.894   9.811  17.185  0.00  0.00    +0.000 A 
ATOM     23  C   UNL     1      -1.580  10.093  17.562  0.00  0.00    +0.000 A 
ENDBRANCH  17  18
ENDBRANCH  10  17
TORSDOF 4
ENDMDL
MODEL 6
REMARK VINA RESULT:      -7.3      6.773      8.181
REMARK  Name = 
REMARK  4 active torsions:
REMARK  status: ('A' for Active; 'I' for Inactive)
REMARK    1  A    between atoms: C_6  and  O_7
REMARK    2  A    between atoms: O_7  and  C_8
REMARK    3  A    between atoms: N_15  and  C_16
REMARK    4  A    between atoms: C_16  and  C_17
REMARK                            x       y       z     vdW  Elec       q    Type
REMARK                         _______ _______ _______ _____ _____    ______ ____
ROOT
ATOM      1  N   UNL     1      -0.188  11.098  21.722  0.00  0.00    +0.000 NA
ATOM      2  C   UNL     1       0.444  10.265  20.979  0.00  0.00    +0.000 A 
ATOM      3  S   UNL     1       0.990   8.736  21.690  0.00  0.00    +0.000 S 
ATOM      4  C   UNL     1       1.638   8.229  20.109  0.00  0.00    +0.000 A 
ATOM      5  C   UNL     1       2.224   7.012  19.805  0.00  0.00    +0.000 A 
ATOM      6  C   UNL     1       2.669   6.787  18.504  0.00  0.00    +0.000 A 
ATOM      7  C   UNL     1       2.581   7.814  17.557  0.00  0.00    +0.000 A 
ATOM      8  C   UNL     1       1.961   9.036  17.874  0.00  0.00    +0.000 A 
ATOM      9  C   UNL     1       1.456   9.244  19.152  0.00  0.00    +0.000 A 
ATOM     10  N   UNL     1       0.778  10.364  19.645  0.00  0.00    +0.000 N 
ATOM     11  H   UNL     1      -0.245  10.676  22.657  0.00  0.00    +0.000 HD
ENDROOT
BRANCH   6  12
ATOM     12  O   UNL     1       3.231   5.566  18.289  0.00  0.00    +0.000 OA
BRANCH  12  13
ATOM     13  C   UNL     1       2.411   4.473  17.899  0.00  0.00    +0.000 C 
ATOM     14  F   UNL     1       1.220   4.834  17.382  0.00  0.00    +0.000 F 
ATOM     15  F   UNL     1       3.073   3.728  16.986  0.00  0.00    +0.000 F 
ATOM     16  F   UNL     1       2.175   3.702  18.983  0.00  0.00    +0.000 F 
ENDBRANCH  12  13
ENDBRANCH   6  12
BRANCH  10  17
ATOM     17  C   UNL     1       0.223  11.400  18.787  0.00  0.00    +0.000 C 
BRANCH  17  18
ATOM     18  C   UNL     1      -1.204  11.114  18.377  0.00  0.00    +0.000 A 
ATOM     19  C   UNL     1      -1.496  10.063  17.495  0.00  0.00    +0.000 A 
ATOM     20  C   UNL     1      -2.813   9.799  17.114  0.00  0.00    +0.000 A 
ATOM     21  C   UNL     1      -3.855  10.575  17.620  0.00  0.00    +0.000 A 
ATOM     22  C   UNL     1      -3.583  11.596  18.527  0.00  0.00    +0.000 A 
ATOM     23  C   UNL     1      -2.267  11.860  18.910  0.00  0.00    +0.000 A 
ENDBRANCH  17  18
ENDBRANCH  10  17
TORSDOF 4
ENDMDL
MODEL 7
REMARK VINA RESULT:      -7.3      3.731      5.085
REMARK  Name = 
REMARK  4 active torsions:
REMARK  status: ('A' for Active; 'I' for Inactive)
REMARK    1  A    between atoms: C_6  and  O_7
REMARK    2  A    between atoms: O_7  and  C_8
REMARK    3  A    between atoms: N_15  and  C_16
REMARK    4  A    between atoms: C_16  and  C_17
REMARK                            x       y       z     vdW  Elec       q    Type
REMARK                         _______ _______ _______ _____ _____    ______ ____
ROOT
ATOM      1  N   UNL     1       2.331   1.618  18.724  0.00  0.00    +0.000 NA
ATOM      2  C   UNL     1       2.215   2.873  18.964  0.00  0.00    +0.000 A 
ATOM      3  S   UNL     1       1.531   3.382  20.518  0.00  0.00    +0.000 S 
ATOM      4  C   UNL     1       1.778   5.089  20.072  0.00  0.00    +0.000 A 
ATOM      5  C   UNL     1       1.524   6.198  20.861  0.00  0.00    +0.000 A 
ATOM      6  C   UNL     1       1.787   7.465  20.346  0.00  0.00    +0.000 A 
ATOM      7  C   UNL     1       2.233   7.593  19.025  0.00  0.00    +0.000 A 
ATOM      8  C   UNL     1       2.510   6.458  18.244  0.00  0.00    +0.000 A 
ATOM      9  C   UNL     1       2.311   5.189  18.774  0.00  0.00    +0.000 A 
ATOM     10  N   UNL     1       2.563   3.949  18.176  0.00  0.00    +0.000 N 
ATOM     11  H   UNL     1       1.964   1.125  19.547  0.00  0.00    +0.000 HD
ENDROOT
BRANCH   6  12
ATOM     12  O   UNL     1       1.511   8.499  21.187  0.00  0.00    +0.000 OA
BRANCH  12  13
ATOM     13  C   UNL     1       0.175   8.965  21.315  0.00  0.00    +0.000 C 
ATOM     14  F   UNL     1      -0.727   7.993  21.559  0.00  0.00    +0.000 F 
ATOM     15  F   UNL     1       0.117   9.871  22.315  0.00  0.00    +0.000 F 
ATOM     16  F   UNL     1      -0.180   9.579  20.165  0.00  0.00    +0.000 F 
ENDBRANCH  12  13
ENDBRANCH   6  12
BRANCH  10  17
ATOM     17  C   UNL     1       3.370   3.795  16.975  0.00  0.00    +0.000 C 
BRANCH  17  18
ATOM     18  C   UNL     1       4.734   4.436  17.103  0.00  0.00    +0.000 A 
ATOM     19  C   UNL     1       5.230   5.267  16.087  0.00  0.00    +0.000 A 
ATOM     20  C   UNL     1       6.489   5.858  16.204  0.00  0.00    +0.000 A 
ATOM     21  C   UNL     1       7.262   5.636  17.342  0.00  0.00    +0.000 A 
ATOM     22  C   UNL     1       6.766   4.845  18.375  0.00  0.00    +0.000 A 
ATOM     23  C   UNL     1       5.506   4.255  18.261  0.00  0.00    +0.000 A 
ENDBRANCH  17  18
ENDBRANCH  10  17
TORSDOF 4
ENDMDL
MODEL 8
REMARK VINA RESULT:      -7.2      4.508      5.778
REMARK  Name = 
REMARK  4 active torsions:
REMARK  status: ('A' for Active; 'I' for Inactive)
REMARK    1  A    between atoms: C_6  and  O_7
REMARK    2  A    between atoms: O_7  and  C_8
REMARK    3  A    between atoms: N_15  and  C_16
REMARK    4  A    between atoms: C_16  and  C_17
REMARK                            x       y       z     vdW  Elec       q    Type
REMARK                         _______ _______ _______ _____ _____    ______ ____
ROOT
ATOM      1  N   UNL     1       3.614   3.081  19.522  0.00  0.00    +0.000 NA
ATOM      2  C   UNL     1       3.150   4.276  19.505  0.00  0.00    +0.000 A 
ATOM      3  S   UNL     1       2.162   4.823  20.873  0.00  0.00    +0.000 S 
ATOM      4  C   UNL     1       2.017   6.435  20.127  0.00  0.00    +0.000 A 
ATOM      5  C   UNL     1       1.386   7.544  20.665  0.00  0.00    +0.000 A 
ATOM      6  C   UNL     1       1.379   8.732  19.939  0.00  0.00    +0.000 A 
ATOM      7  C   UNL     1       1.944   8.760  18.658  0.00  0.00    +0.000 A 
ATOM      8  C   UNL     1       2.603   7.635  18.135  0.00  0.00    +0.000 A 
ATOM      9  C   UNL     1       2.670   6.464  18.882  0.00  0.00    +0.000 A 
ATOM     10  N   UNL     1       3.308   5.262  18.556  0.00  0.00    +0.000 N 
ATOM     11  H   UNL     1       3.283   2.646  20.392  0.00  0.00    +0.000 HD
ENDROOT
BRANCH   6  12
ATOM     12  O   UNL     1       0.740   9.773  20.539  0.00  0.00    +0.000 OA
BRANCH  12  13
ATOM     13  C   UNL     1      -0.186  10.554  19.796  0.00  0.00    +0.000 C 
ATOM     14  F   UNL     1       0.388  11.414  18.931  0.00  0.00    +0.000 F 
ATOM     15  F   UNL     1      -1.007   9.730  19.109  0.00  0.00    +0.000 F 
ATOM     16  F   UNL     1      -0.935  11.273  20.661  0.00  0.00    +0.000 F 
ENDBRANCH  12  13
ENDBRANCH   6  12
BRANCH  10  17
ATOM     17  C   UNL     1       4.277   5.143  17.476  0.00  0.00    +0.000 C 
BRANCH  17  18
ATOM     18  C   UNL     1       5.612   5.764  17.821  0.00  0.00    +0.000 A 
ATOM     19  C   UNL     1       6.068   6.899  17.134  0.00  0.00    +0.000 A 
ATOM     20  C   UNL     1       7.302   7.473  17.450  0.00  0.00    +0.000 A 
ATOM     21  C   UNL     1       8.087   6.925  18.463  0.00  0.00    +0.000 A 
ATOM     22  C   UNL     1       7.629   5.822  19.178  0.00  0.00    +0.000 A 
ATOM     23  C   UNL     1       6.395   5.249  18.865  0.00  0.00    +0.000 A 
ENDBRANCH  17  18
ENDBRANCH  10  17
TORSDOF 4
ENDMDL
MODEL 9
REMARK VINA RESULT:      -7.2      3.670      5.069
REMARK  Name = 
REMARK  4 active torsions:
REMARK  status: ('A' for Active; 'I' for Inactive)
REMARK    1  A    between atoms: C_6  and  O_7
REMARK    2  A    between atoms: O_7  and  C_8
REMARK    3  A    between atoms: N_15  and  C_16
REMARK    4  A    between atoms: C_16  and  C_17
REMARK                            x       y       z     vdW  Elec       q    Type
REMARK                         _______ _______ _______ _____ _____    ______ ____
ROOT
ATOM      1  N   UNL     1       2.478   1.658  18.446  0.00  0.00    +0.000 NA
ATOM      2  C   UNL     1       2.329   2.891  18.769  0.00  0.00    +0.000 A 
ATOM      3  S   UNL     1       1.572   3.274  20.326  0.00  0.00    +0.000 S 
ATOM      4  C   UNL     1       1.805   5.013  20.014  0.00  0.00    +0.000 A 
ATOM      5  C   UNL     1       1.498   6.057  20.870  0.00  0.00    +0.000 A 
ATOM      6  C   UNL     1       1.759   7.363  20.458  0.00  0.00    +0.000 A 
ATOM      7  C   UNL     1       2.255   7.593  19.170  0.00  0.00    +0.000 A 
ATOM      8  C   UNL     1       2.585   6.522  18.322  0.00  0.00    +0.000 A 
ATOM      9  C   UNL     1       2.389   5.215  18.750  0.00  0.00    +0.000 A 
ATOM     10  N   UNL     1       2.688   4.026  18.076  0.00  0.00    +0.000 N 
ATOM     11  H   UNL     1       2.087   1.101  19.215  0.00  0.00    +0.000 HD
ENDROOT
BRANCH   6  12
ATOM     12  O   UNL     1       1.429   8.329  21.358  0.00  0.00    +0.000 OA
BRANCH  12  13
ATOM     13  C   UNL     1       0.118   8.876  21.356  0.00  0.00    +0.000 C 
ATOM     14  F   UNL     1      -0.853   7.984  21.637  0.00  0.00    +0.000 F 
ATOM     15  F   UNL     1       0.057   9.882  22.255  0.00  0.00    +0.000 F 
ATOM     16  F   UNL     1      -0.133   9.388  20.131  0.00  0.00    +0.000 F 
ENDBRANCH  12  13
ENDBRANCH   6  12
BRANCH  10  17
ATOM     17  C   UNL     1       3.546   3.971  16.902  0.00  0.00    +0.000 C 
BRANCH  17  18
ATOM     18  C   UNL     1       4.880   4.650  17.124  0.00  0.00    +0.000 A 
ATOM     19  C   UNL     1       5.676   4.312  18.228  0.00  0.00    +0.000 A 
ATOM     20  C   UNL     1       6.907   4.940  18.435  0.00  0.00    +0.000 A 
ATOM     21  C   UNL     1       7.360   5.901  17.534  0.00  0.00    +0.000 A 
ATOM     22  C   UNL     1       6.598   6.218  16.413  0.00  0.00    +0.000 A 
ATOM     23  C   UNL     1       5.368   5.590  16.204  0.00  0.00    +0.000 A 
ENDBRANCH  17  18
ENDBRANCH  10  17
TORSDOF 4
ENDMDL
