MODEL 1
REMARK VINA RESULT:      -6.1      0.000      0.000
REMARK  Name = 
REMARK  3 active torsions:
REMARK  status: ('A' for Active; 'I' for Inactive)
REMARK    1  A    between atoms: C_1  and  C_2
REMARK    2  A    between atoms: C_5  and  S_6
REMARK    3  A    between atoms: S_6  and  N_9
REMARK                            x       y       z     vdW  Elec       q    Type
REMARK                         _______ _______ _______ _____ _____    ______ ____
ROOT
ATOM      1  C   UNL     1       1.499   4.154  17.920  0.00  0.00    +0.000 C 
ATOM      2  C   UNL     1       2.920   4.549  17.643  0.00  0.00    +0.000 A 
ATOM      3  C   UNL     1       3.800   3.650  17.035  0.00  0.00    +0.000 A 
ATOM      4  C   UNL     1       5.129   3.995  16.825  0.00  0.00    +0.000 A 
ATOM      5  C   UNL     1       5.564   5.258  17.221  0.00  0.00    +0.000 A 
ATOM      6  C   UNL     1       4.695   6.187  17.799  0.00  0.00    +0.000 A 
ATOM      7  C   UNL     1       3.365   5.830  18.006  0.00  0.00    +0.000 A 
ENDROOT
BRANCH   5   8
ATOM      8  S   UNL     1       7.334   5.638  17.132  0.00  0.00    +0.000 S 
ATOM      9  O   UNL     1       7.930   4.311  17.300  0.00  0.00    +0.000 OA
ATOM     10  O   UNL     1       7.408   6.113  15.749  0.00  0.00    +0.000 OA
BRANCH   8  11
ATOM     11  N   UNL     1       7.640   6.732  18.255  0.00  0.00    +0.000 NA
ATOM     12 CL   UNL     1       7.842   8.326  17.612  0.00  0.00    +0.000 Cl
ENDBRANCH   8  11
ENDBRANCH   5   8
TORSDOF 2
ENDMDL
MODEL 2
REMARK VINA RESULT:      -5.8      0.491      1.410
REMARK  Name = 
REMARK  3 active torsions:
REMARK  status: ('A' for Active; 'I' for Inactive)
REMARK    1  A    between atoms: C_1  and  C_2
REMARK    2  A    between atoms: C_5  and  S_6
REMARK    3  A    between atoms: S_6  and  N_9
REMARK                            x       y       z     vdW  Elec       q    Type
REMARK                         _______ _______ _______ _____ _____    ______ ____
ROOT
ATOM      1  C   UNL     1       1.463   4.449  17.789  0.00  0.00    +0.000 C 
ATOM      2  C   UNL     1       2.932   4.753  17.798  0.00  0.00    +0.000 A 
ATOM      3  C   UNL     1       3.383   6.072  17.716  0.00  0.00    +0.000 A 
ATOM      4  C   UNL     1       4.743   6.352  17.672  0.00  0.00    +0.000 A 
ATOM      5  C   UNL     1       5.647   5.293  17.725  0.00  0.00    +0.000 A 
ATOM      6  C   UNL     1       5.221   3.968  17.844  0.00  0.00    +0.000 A 
ATOM      7  C   UNL     1       3.855   3.699  17.885  0.00  0.00    +0.000 A 
ENDROOT
BRANCH   5   8
ATOM      8  S   UNL     1       7.408   5.637  17.469  0.00  0.00    +0.000 S 
ATOM      9  O   UNL     1       8.007   4.328  17.733  0.00  0.00    +0.000 OA
ATOM     10  O   UNL     1       7.384   5.964  16.042  0.00  0.00    +0.000 OA
BRANCH   8  11
ATOM     11  N   UNL     1       7.803   6.839  18.445  0.00  0.00    +0.000 NA
ATOM     12 CL   UNL     1       7.876   8.370  17.641  0.00  0.00    +0.000 Cl
ENDBRANCH   8  11
ENDBRANCH   5   8
TORSDOF 2
ENDMDL
MODEL 3
REMARK VINA RESULT:      -5.8      1.455      1.884
REMARK  Name = 
REMARK  3 active torsions:
REMARK  status: ('A' for Active; 'I' for Inactive)
REMARK    1  A    between atoms: C_1  and  C_2
REMARK    2  A    between atoms: C_5  and  S_6
REMARK    3  A    between atoms: S_6  and  N_9
REMARK                            x       y       z     vdW  Elec       q    Type
REMARK                         _______ _______ _______ _____ _____    ______ ____
ROOT
ATOM      1  C   UNL     1       1.857   3.056  18.035  0.00  0.00    +0.000 C 
ATOM      2  C   UNL     1       3.281   3.531  18.026  0.00  0.00    +0.000 A 
ATOM      3  C   UNL     1       4.004   3.624  19.218  0.00  0.00    +0.000 A 
ATOM      4  C   UNL     1       5.304   4.113  19.219  0.00  0.00    +0.000 A 
ATOM      5  C   UNL     1       5.877   4.496  18.007  0.00  0.00    +0.000 A 
ATOM      6  C   UNL     1       5.186   4.379  16.798  0.00  0.00    +0.000 A 
ATOM      7  C   UNL     1       3.882   3.890  16.810  0.00  0.00    +0.000 A 
ENDROOT
BRANCH   5   8
ATOM      8  S   UNL     1       7.493   5.316  18.028  0.00  0.00    +0.000 S 
ATOM      9  O   UNL     1       7.597   5.728  19.429  0.00  0.00    +0.000 OA
ATOM     10  O   UNL     1       8.348   4.169  17.717  0.00  0.00    +0.000 OA
BRANCH   8  11
ATOM     11  N   UNL     1       7.453   6.468  16.922  0.00  0.00    +0.000 NA
ATOM     12 CL   UNL     1       7.819   8.035  17.560  0.00  0.00    +0.000 Cl
ENDBRANCH   8  11
ENDBRANCH   5   8
TORSDOF 2
ENDMDL
MODEL 4
REMARK VINA RESULT:      -5.8      1.147      1.263
REMARK  Name = 
REMARK  3 active torsions:
REMARK  status: ('A' for Active; 'I' for Inactive)
REMARK    1  A    between atoms: C_1  and  C_2
REMARK    2  A    between atoms: C_5  and  S_6
REMARK    3  A    between atoms: S_6  and  N_9
REMARK                            x       y       z     vdW  Elec       q    Type
REMARK                         _______ _______ _______ _____ _____    ______ ____
ROOT
ATOM      1  C   UNL     1       2.045   2.684  18.391  0.00  0.00    +0.000 C 
ATOM      2  C   UNL     1       3.337   3.417  18.181  0.00  0.00    +0.000 A 
ATOM      3  C   UNL     1       3.713   3.838  16.904  0.00  0.00    +0.000 A 
ATOM      4  C   UNL     1       4.933   4.471  16.700  0.00  0.00    +0.000 A 
ATOM      5  C   UNL     1       5.767   4.688  17.794  0.00  0.00    +0.000 A 
ATOM      6  C   UNL     1       5.397   4.308  19.087  0.00  0.00    +0.000 A 
ATOM      7  C   UNL     1       4.173   3.673  19.280  0.00  0.00    +0.000 A 
ENDROOT
BRANCH   5   8
ATOM      8  S   UNL     1       7.436   5.331  17.504  0.00  0.00    +0.000 S 
ATOM      9  O   UNL     1       8.246   4.117  17.627  0.00  0.00    +0.000 OA
ATOM     10  O   UNL     1       7.288   5.766  16.114  0.00  0.00    +0.000 OA
BRANCH   8  11
ATOM     11  N   UNL     1       7.687   6.495  18.569  0.00  0.00    +0.000 NA
ATOM     12 CL   UNL     1       7.945   8.042  17.835  0.00  0.00    +0.000 Cl
ENDBRANCH   8  11
ENDBRANCH   5   8
TORSDOF 2
ENDMDL
MODEL 5
REMARK VINA RESULT:      -5.7      1.442      1.598
REMARK  Name = 
REMARK  3 active torsions:
REMARK  status: ('A' for Active; 'I' for Inactive)
REMARK    1  A    between atoms: C_1  and  C_2
REMARK    2  A    between atoms: C_5  and  S_6
REMARK    3  A    between atoms: S_6  and  N_9
REMARK                            x       y       z     vdW  Elec       q    Type
REMARK                         _______ _______ _______ _____ _____    ______ ____
ROOT
ATOM      1  C   UNL     1       1.984   4.252  19.512  0.00  0.00    +0.000 C 
ATOM      2  C   UNL     1       3.272   4.325  18.747  0.00  0.00    +0.000 A 
ATOM      3  C   UNL     1       4.495   4.148  19.399  0.00  0.00    +0.000 A 
ATOM      4  C   UNL     1       5.690   4.268  18.701  0.00  0.00    +0.000 A 
ATOM      5  C   UNL     1       5.646   4.553  17.338  0.00  0.00    +0.000 A 
ATOM      6  C   UNL     1       4.434   4.699  16.657  0.00  0.00    +0.000 A 
ATOM      7  C   UNL     1       3.242   4.579  17.366  0.00  0.00    +0.000 A 
ENDROOT
BRANCH   5   8
ATOM      8  S   UNL     1       7.197   4.905  16.470  0.00  0.00    +0.000 S 
ATOM      9  O   UNL     1       8.168   4.186  17.297  0.00  0.00    +0.000 OA
ATOM     10  O   UNL     1       6.925   4.220  15.205  0.00  0.00    +0.000 OA
BRANCH   8  11
ATOM     11  N   UNL     1       7.340   6.493  16.379  0.00  0.00    +0.000 NA
ATOM     12 CL   UNL     1       7.703   7.231  17.902  0.00  0.00    +0.000 Cl
ENDBRANCH   8  11
ENDBRANCH   5   8
TORSDOF 2
ENDMDL
MODEL 6
REMARK VINA RESULT:      -5.7      2.627      2.985
REMARK  Name = 
REMARK  3 active torsions:
REMARK  status: ('A' for Active; 'I' for Inactive)
REMARK    1  A    between atoms: C_1  and  C_2
REMARK    2  A    between atoms: C_5  and  S_6
REMARK    3  A    between atoms: S_6  and  N_9
REMARK                            x       y       z     vdW  Elec       q    Type
REMARK                         _______ _______ _______ _____ _____    ______ ____
ROOT
ATOM      1  C   UNL     1       2.341   6.427  19.781  0.00  0.00    +0.000 C 
ATOM      2  C   UNL     1       3.536   6.077  18.942  0.00  0.00    +0.000 A 
ATOM      3  C   UNL     1       3.759   6.723  17.724  0.00  0.00    +0.000 A 
ATOM      4  C   UNL     1       4.835   6.364  16.922  0.00  0.00    +0.000 A 
ATOM      5  C   UNL     1       5.694   5.359  17.362  0.00  0.00    +0.000 A 
ATOM      6  C   UNL     1       5.511   4.723  18.594  0.00  0.00    +0.000 A 
ATOM      7  C   UNL     1       4.428   5.090  19.388  0.00  0.00    +0.000 A 
ENDROOT
BRANCH   5   8
ATOM      8  S   UNL     1       6.977   4.753  16.235  0.00  0.00    +0.000 S 
ATOM      9  O   UNL     1       7.381   5.985  15.557  0.00  0.00    +0.000 OA
ATOM     10  O   UNL     1       7.967   4.305  17.217  0.00  0.00    +0.000 OA
BRANCH   8  11
ATOM     11  N   UNL     1       6.319   3.601  15.344  0.00  0.00    +0.000 NA
ATOM     12 CL   UNL     1       6.272   3.992  13.658  0.00  0.00    +0.000 Cl
ENDBRANCH   8  11
ENDBRANCH   5   8
TORSDOF 2
ENDMDL
MODEL 7
REMARK VINA RESULT:      -5.7      0.788      1.513
REMARK  Name = 
REMARK  3 active torsions:
REMARK  status: ('A' for Active; 'I' for Inactive)
REMARK    1  A    between atoms: C_1  and  C_2
REMARK    2  A    between atoms: C_5  and  S_6
REMARK    3  A    between atoms: S_6  and  N_9
REMARK                            x       y       z     vdW  Elec       q    Type
REMARK                         _______ _______ _______ _____ _____    ______ ____
ROOT
ATOM      1  C   UNL     1       1.485   3.647  18.645  0.00  0.00    +0.000 C 
ATOM      2  C   UNL     1       2.891   4.065  18.328  0.00  0.00    +0.000 A 
ATOM      3  C   UNL     1       3.566   4.965  19.157  0.00  0.00    +0.000 A 
ATOM      4  C   UNL     1       4.848   5.393  18.837  0.00  0.00    +0.000 A 
ATOM      5  C   UNL     1       5.452   4.900  17.683  0.00  0.00    +0.000 A 
ATOM      6  C   UNL     1       4.811   3.972  16.857  0.00  0.00    +0.000 A 
ATOM      7  C   UNL     1       3.525   3.551  17.186  0.00  0.00    +0.000 A 
ENDROOT
BRANCH   5   8
ATOM      8  S   UNL     1       7.037   5.604  17.158  0.00  0.00    +0.000 S 
ATOM      9  O   UNL     1       7.781   4.403  16.771  0.00  0.00    +0.000 OA
ATOM     10  O   UNL     1       6.585   6.379  16.001  0.00  0.00    +0.000 OA
BRANCH   8  11
ATOM     11  N   UNL     1       7.604   6.459  18.383  0.00  0.00    +0.000 NA
ATOM     12 CL   UNL     1       8.115   8.048  17.922  0.00  0.00    +0.000 Cl
ENDBRANCH   8  11
ENDBRANCH   5   8
TORSDOF 2
ENDMDL
MODEL 8
REMARK VINA RESULT:      -5.7      2.058      2.522
REMARK  Name = 
REMARK  3 active torsions:
REMARK  status: ('A' for Active; 'I' for Inactive)
REMARK    1  A    between atoms: C_1  and  C_2
REMARK    2  A    between atoms: C_5  and  S_6
REMARK    3  A    between atoms: S_6  and  N_9
REMARK                            x       y       z     vdW  Elec       q    Type
REMARK                         _______ _______ _______ _____ _____    ______ ____
ROOT
ATOM      1  C   UNL     1       1.706   4.369  19.901  0.00  0.00    +0.000 C 
ATOM      2  C   UNL     1       2.774   4.636  18.881  0.00  0.00    +0.000 A 
ATOM      3  C   UNL     1       3.426   5.871  18.845  0.00  0.00    +0.000 A 
ATOM      4  C   UNL     1       4.378   6.138  17.869  0.00  0.00    +0.000 A 
ATOM      5  C   UNL     1       4.679   5.148  16.936  0.00  0.00    +0.000 A 
ATOM      6  C   UNL     1       4.066   3.892  16.974  0.00  0.00    +0.000 A 
ATOM      7  C   UNL     1       3.111   3.636  17.955  0.00  0.00    +0.000 A 
ENDROOT
BRANCH   5   8
ATOM      8  S   UNL     1       5.769   5.559  15.548  0.00  0.00    +0.000 S 
ATOM      9  O   UNL     1       5.495   4.459  14.621  0.00  0.00    +0.000 OA
ATOM     10  O   UNL     1       5.151   6.816  15.122  0.00  0.00    +0.000 OA
BRANCH   8  11
ATOM     11  N   UNL     1       7.251   5.681  16.131  0.00  0.00    +0.000 NA
ATOM     12 CL   UNL     1       7.568   4.569  17.419  0.00  0.00    +0.000 Cl
ENDBRANCH   8  11
ENDBRANCH   5   8
TORSDOF 2
ENDMDL
MODEL 9
REMARK VINA RESULT:      -5.7      2.194      2.367
REMARK  Name = 
REMARK  3 active torsions:
REMARK  status: ('A' for Active; 'I' for Inactive)
REMARK    1  A    between atoms: C_1  and  C_2
REMARK    2  A    between atoms: C_5  and  S_6
REMARK    3  A    between atoms: S_6  and  N_9
REMARK                            x       y       z     vdW  Elec       q    Type
REMARK                         _______ _______ _______ _____ _____    ______ ____
ROOT
ATOM      1  C   UNL     1       1.865   4.645  19.010  0.00  0.00    +0.000 C 
ATOM      2  C   UNL     1       3.127   4.809  18.214  0.00  0.00    +0.000 A 
ATOM      3  C   UNL     1       3.967   3.716  17.985  0.00  0.00    +0.000 A 
ATOM      4  C   UNL     1       5.161   3.877  17.293  0.00  0.00    +0.000 A 
ATOM      5  C   UNL     1       5.498   5.144  16.822  0.00  0.00    +0.000 A 
ATOM      6  C   UNL     1       4.657   6.245  17.008  0.00  0.00    +0.000 A 
ATOM      7  C   UNL     1       3.463   6.073  17.705  0.00  0.00    +0.000 A 
ENDROOT
BRANCH   5   8
ATOM      8  S   UNL     1       7.139   5.397  16.097  0.00  0.00    +0.000 S 
ATOM      9  O   UNL     1       7.492   6.719  16.617  0.00  0.00    +0.000 OA
ATOM     10  O   UNL     1       7.867   4.319  16.769  0.00  0.00    +0.000 OA
BRANCH   8  11
ATOM     11  N   UNL     1       6.986   5.244  14.514  0.00  0.00    +0.000 NA
ATOM     12 CL   UNL     1       5.693   4.187  14.057  0.00  0.00    +0.000 Cl
ENDBRANCH   8  11
ENDBRANCH   5   8
TORSDOF 2
ENDMDL
