MODEL 1
REMARK VINA RESULT:      -7.6      0.000      0.000
REMARK  Name = 
REMARK  4 active torsions:
REMARK  status: ('A' for Active; 'I' for Inactive)
REMARK    1  A    between atoms: C_1  and  S_2
REMARK    2  A    between atoms: S_2  and  N_5
REMARK    3  A    between atoms: C_8  and  N_9
REMARK    4  A    between atoms: C_10  and  C_12
REMARK                            x       y       z     vdW  Elec       q    Type
REMARK                         _______ _______ _______ _____ _____    ______ ____
ROOT
ATOM      1  N   UNL     1       5.890   5.632  16.500  0.00  0.00    +0.000 N 
ATOM      2  C   UNL     1       6.984   4.962  15.994  0.00  0.00    +0.000 C 
ATOM      3  O   UNL     1       7.874   4.502  16.699  0.00  0.00    +0.000 OA
ATOM      4  H   UNL     1       5.108   5.797  15.881  0.00  0.00    +0.000 HD
ENDROOT
BRANCH   2   5
ATOM      5  C   UNL     1       7.032   4.781  14.514  0.00  0.00    +0.000 A 
ATOM      6  C   UNL     1       7.892   5.526  13.691  0.00  0.00    +0.000 A 
ATOM      7  C   UNL     1       7.907   5.309  12.311  0.00  0.00    +0.000 A 
ATOM      8  C   UNL     1       7.072   4.344  11.747  0.00  0.00    +0.000 A 
ATOM      9  C   UNL     1       6.228   3.594  12.567  0.00  0.00    +0.000 A 
ATOM     10 CL   UNL     1       5.206   2.400  11.868  0.00  0.00    +0.000 Cl
ATOM     11  C   UNL     1       6.206   3.805  13.944  0.00  0.00    +0.000 A 
ENDBRANCH   2   5
BRANCH   1  15
ATOM     12  N   UNL     1       3.143   4.497  18.555  0.00  0.00    +0.000 NA
ATOM     13  C   UNL     1       4.380   3.690  18.329  0.00  0.00    +0.000 C 
ATOM     14  C   UNL     1       5.623   4.486  18.698  0.00  0.00    +0.000 C 
ATOM     15  C   UNL     1       5.686   5.813  17.938  0.00  0.00    +0.000 C 
ATOM     16  C   UNL     1       4.414   6.611  18.217  0.00  0.00    +0.000 C 
ATOM     17  C   UNL     1       3.154   5.823  17.878  0.00  0.00    +0.000 C 
BRANCH  12  19
ATOM     18  C   UNL     1       2.330   2.016  17.869  0.00  0.00    +0.000 C 
ATOM     19  S   UNL     1       1.687   3.618  18.301  0.00  0.00    +0.000 S 
ATOM     20  O   UNL     1       1.015   4.185  17.152  0.00  0.00    +0.000 OA
ATOM     21  O   UNL     1       1.011   3.483  19.575  0.00  0.00    +0.000 OA
ENDBRANCH  12  19
ENDBRANCH   1  15
TORSDOF 3
ENDMDL
MODEL 2
REMARK VINA RESULT:      -7.4      4.433      7.377
REMARK  Name = 
REMARK  4 active torsions:
REMARK  status: ('A' for Active; 'I' for Inactive)
REMARK    1  A    between atoms: C_1  and  S_2
REMARK    2  A    between atoms: S_2  and  N_5
REMARK    3  A    between atoms: C_8  and  N_9
REMARK    4  A    between atoms: C_10  and  C_12
REMARK                            x       y       z     vdW  Elec       q    Type
REMARK                         _______ _______ _______ _____ _____    ______ ____
ROOT
ATOM      1  N   UNL     1       2.649   5.368  18.586  0.00  0.00    +0.000 N 
ATOM      2  C   UNL     1       2.197   5.940  19.757  0.00  0.00    +0.000 C 
ATOM      3  O   UNL     1       2.115   5.327  20.815  0.00  0.00    +0.000 OA
ATOM      4  H   UNL     1       2.880   5.982  17.817  0.00  0.00    +0.000 HD
ENDROOT
BRANCH   2   5
ATOM      5  C   UNL     1       1.832   7.385  19.698  0.00  0.00    +0.000 A 
ATOM      6  C   UNL     1       2.008   8.161  18.540  0.00  0.00    +0.000 A 
ATOM      7  C   UNL     1       1.638   9.508  18.534  0.00  0.00    +0.000 A 
ATOM      8  C   UNL     1       1.083  10.085  19.676  0.00  0.00    +0.000 A 
ATOM      9  C   UNL     1       0.894   9.310  20.821  0.00  0.00    +0.000 A 
ATOM     10 CL   UNL     1       0.202  10.024  22.225  0.00  0.00    +0.000 Cl
ATOM     11  C   UNL     1       1.262   7.967  20.837  0.00  0.00    +0.000 A 
ENDBRANCH   2   5
BRANCH   1  15
ATOM     12  N   UNL     1       5.881   4.094  17.594  0.00  0.00    +0.000 NA
ATOM     13  C   UNL     1       5.540   4.441  19.006  0.00  0.00    +0.000 C 
ATOM     14  C   UNL     1       4.288   3.705  19.460  0.00  0.00    +0.000 C 
ATOM     15  C   UNL     1       3.107   3.979  18.526  0.00  0.00    +0.000 C 
ATOM     16  C   UNL     1       3.494   3.589  17.101  0.00  0.00    +0.000 C 
ATOM     17  C   UNL     1       4.761   4.295  16.634  0.00  0.00    +0.000 C 
BRANCH  12  19
ATOM     18  C   UNL     1       7.248   6.418  17.717  0.00  0.00    +0.000 C 
ATOM     19  S   UNL     1       7.367   4.772  17.053  0.00  0.00    +0.000 S 
ATOM     20  O   UNL     1       7.331   4.839  15.609  0.00  0.00    +0.000 OA
ATOM     21  O   UNL     1       8.448   4.103  17.747  0.00  0.00    +0.000 OA
ENDBRANCH  12  19
ENDBRANCH   1  15
TORSDOF 3
ENDMDL
MODEL 3
REMARK VINA RESULT:      -7.3      4.369      7.402
REMARK  Name = 
REMARK  4 active torsions:
REMARK  status: ('A' for Active; 'I' for Inactive)
REMARK    1  A    between atoms: C_1  and  S_2
REMARK    2  A    between atoms: S_2  and  N_5
REMARK    3  A    between atoms: C_8  and  N_9
REMARK    4  A    between atoms: C_10  and  C_12
REMARK                            x       y       z     vdW  Elec       q    Type
REMARK                         _______ _______ _______ _____ _____    ______ ____
ROOT
ATOM      1  N   UNL     1       2.635   5.963  18.661  0.00  0.00    +0.000 N 
ATOM      2  C   UNL     1       2.061   6.657  19.707  0.00  0.00    +0.000 C 
ATOM      3  O   UNL     1       1.835   6.155  20.801  0.00  0.00    +0.000 OA
ATOM      4  H   UNL     1       2.973   6.493  17.870  0.00  0.00    +0.000 HD
ENDROOT
BRANCH   2   5
ATOM      5  C   UNL     1       1.744   8.094  19.461  0.00  0.00    +0.000 A 
ATOM      6  C   UNL     1       2.021   8.729  18.240  0.00  0.00    +0.000 A 
ATOM      7  C   UNL     1       1.693  10.075  18.058  0.00  0.00    +0.000 A 
ATOM      8  C   UNL     1       1.079  10.790  19.086  0.00  0.00    +0.000 A 
ATOM      9  C   UNL     1       0.791  10.154  20.295  0.00  0.00    +0.000 A 
ATOM     10 CL   UNL     1       0.028  11.038  21.558  0.00  0.00    +0.000 Cl
ATOM     11  C   UNL     1       1.117   8.813  20.486  0.00  0.00    +0.000 A 
ENDBRANCH   2   5
BRANCH   1  15
ATOM     12  N   UNL     1       5.645   4.388  17.432  0.00  0.00    +0.000 NA
ATOM     13  C   UNL     1       5.544   5.006  18.788  0.00  0.00    +0.000 C 
ATOM     14  C   UNL     1       4.374   4.422  19.566  0.00  0.00    +0.000 C 
ATOM     15  C   UNL     1       3.060   4.569  18.795  0.00  0.00    +0.000 C 
ATOM     16  C   UNL     1       3.203   3.904  17.428  0.00  0.00    +0.000 C 
ATOM     17  C   UNL     1       4.386   4.456  16.640  0.00  0.00    +0.000 C 
BRANCH  12  19
ATOM     18  C   UNL     1       6.650   4.242  14.931  0.00  0.00    +0.000 C 
ATOM     19  S   UNL     1       7.031   4.889  16.544  0.00  0.00    +0.000 S 
ATOM     20  O   UNL     1       8.181   4.192  17.075  0.00  0.00    +0.000 OA
ATOM     21  O   UNL     1       7.007   6.334  16.447  0.00  0.00    +0.000 OA
ENDBRANCH  12  19
ENDBRANCH   1  15
TORSDOF 3
ENDMDL
MODEL 4
REMARK VINA RESULT:      -7.3      3.690      7.211
REMARK  Name = 
REMARK  4 active torsions:
REMARK  status: ('A' for Active; 'I' for Inactive)
REMARK    1  A    between atoms: C_1  and  S_2
REMARK    2  A    between atoms: S_2  and  N_5
REMARK    3  A    between atoms: C_8  and  N_9
REMARK    4  A    between atoms: C_10  and  C_12
REMARK                            x       y       z     vdW  Elec       q    Type
REMARK                         _______ _______ _______ _____ _____    ______ ____
ROOT
ATOM      1  N   UNL     1       2.605   5.154  18.940  0.00  0.00    +0.000 N 
ATOM      2  C   UNL     1       2.152   5.619  20.157  0.00  0.00    +0.000 C 
ATOM      3  O   UNL     1       2.118   4.930  21.169  0.00  0.00    +0.000 OA
ATOM      4  H   UNL     1       2.793   5.831  18.213  0.00  0.00    +0.000 HD
ENDROOT
BRANCH   2   5
ATOM      5  C   UNL     1       1.720   7.046  20.207  0.00  0.00    +0.000 A 
ATOM      6  C   UNL     1       1.062   7.596  21.320  0.00  0.00    +0.000 A 
ATOM      7  C   UNL     1       0.689   8.942  21.321  0.00  0.00    +0.000 A 
ATOM      8  C   UNL     1       0.977   9.747  20.219  0.00  0.00    +0.000 A 
ATOM      9  C   UNL     1       1.644   9.204  19.120  0.00  0.00    +0.000 A 
ATOM     10 CL   UNL     1       2.003  10.203  17.766  0.00  0.00    +0.000 Cl
ATOM     11  C   UNL     1       2.017   7.863  19.109  0.00  0.00    +0.000 A 
ENDBRANCH   2   5
BRANCH   1  15
ATOM     12  N   UNL     1       5.591   4.070  17.216  0.00  0.00    +0.000 NA
ATOM     13  C   UNL     1       5.568   4.416  18.669  0.00  0.00    +0.000 C 
ATOM     14  C   UNL     1       4.507   3.609  19.403  0.00  0.00    +0.000 C 
ATOM     15  C   UNL     1       3.126   3.796  18.773  0.00  0.00    +0.000 C 
ATOM     16  C   UNL     1       3.191   3.410  17.297  0.00  0.00    +0.000 C 
ATOM     17  C   UNL     1       4.266   4.187  16.546  0.00  0.00    +0.000 C 
BRANCH  12  19
ATOM     18  C   UNL     1       6.547   4.231  14.697  0.00  0.00    +0.000 C 
ATOM     19  S   UNL     1       6.861   4.832  16.342  0.00  0.00    +0.000 S 
ATOM     20  O   UNL     1       8.117   4.293  16.813  0.00  0.00    +0.000 OA
ATOM     21  O   UNL     1       6.612   6.259  16.335  0.00  0.00    +0.000 OA
ENDBRANCH  12  19
ENDBRANCH   1  15
TORSDOF 3
ENDMDL
MODEL 5
REMARK VINA RESULT:      -7.3      1.249      1.360
REMARK  Name = 
REMARK  4 active torsions:
REMARK  status: ('A' for Active; 'I' for Inactive)
REMARK    1  A    between atoms: C_1  and  S_2
REMARK    2  A    between atoms: S_2  and  N_5
REMARK    3  A    between atoms: C_8  and  N_9
REMARK    4  A    between atoms: C_10  and  C_12
REMARK                            x       y       z     vdW  Elec       q    Type
REMARK                         _______ _______ _______ _____ _____    ______ ____
ROOT
ATOM      1  N   UNL     1       5.219   5.483  16.399  0.00  0.00    +0.000 N 
ATOM      2  C   UNL     1       6.458   5.622  15.809  0.00  0.00    +0.000 C 
ATOM      3  O   UNL     1       7.415   6.141  16.371  0.00  0.00    +0.000 OA
ATOM      4  H   UNL     1       4.549   4.869  15.956  0.00  0.00    +0.000 HD
ENDROOT
BRANCH   2   5
ATOM      5  C   UNL     1       6.607   5.073  14.430  0.00  0.00    +0.000 A 
ATOM      6  C   UNL     1       7.776   5.244  13.672  0.00  0.00    +0.000 A 
ATOM      7  C   UNL     1       7.868   4.699  12.389  0.00  0.00    +0.000 A 
ATOM      8  C   UNL     1       6.801   3.973  11.861  0.00  0.00    +0.000 A 
ATOM      9  C   UNL     1       5.644   3.790  12.620  0.00  0.00    +0.000 A 
ATOM     10 CL   UNL     1       4.333   2.889  11.966  0.00  0.00    +0.000 Cl
ATOM     11  C   UNL     1       5.543   4.333  13.899  0.00  0.00    +0.000 A 
ENDBRANCH   2   5
BRANCH   1  15
ATOM     12  N   UNL     1       3.085   3.958  18.885  0.00  0.00    +0.000 NA
ATOM     13  C   UNL     1       4.533   3.622  18.736  0.00  0.00    +0.000 C 
ATOM     14  C   UNL     1       5.393   4.875  18.811  0.00  0.00    +0.000 C 
ATOM     15  C   UNL     1       4.961   5.914  17.774  0.00  0.00    +0.000 C 
ATOM     16  C   UNL     1       3.484   6.243  17.980  0.00  0.00    +0.000 C 
ATOM     17  C   UNL     1       2.605   4.998  17.934  0.00  0.00    +0.000 C 
BRANCH  12  19
ATOM     18  C   UNL     1       1.595   2.596  20.676  0.00  0.00    +0.000 C 
ATOM     19  S   UNL     1       2.058   2.581  18.958  0.00  0.00    +0.000 S 
ATOM     20  O   UNL     1       2.860   1.407  18.694  0.00  0.00    +0.000 OA
ATOM     21  O   UNL     1       0.865   2.865  18.187  0.00  0.00    +0.000 OA
ENDBRANCH  12  19
ENDBRANCH   1  15
TORSDOF 3
ENDMDL
MODEL 6
REMARK VINA RESULT:      -7.3      4.388      7.507
REMARK  Name = 
REMARK  4 active torsions:
REMARK  status: ('A' for Active; 'I' for Inactive)
REMARK    1  A    between atoms: C_1  and  S_2
REMARK    2  A    between atoms: S_2  and  N_5
REMARK    3  A    between atoms: C_8  and  N_9
REMARK    4  A    between atoms: C_10  and  C_12
REMARK                            x       y       z     vdW  Elec       q    Type
REMARK                         _______ _______ _______ _____ _____    ______ ____
ROOT
ATOM      1  N   UNL     1       3.602   5.961  19.320  0.00  0.00    +0.000 N 
ATOM      2  C   UNL     1       2.451   6.094  20.068  0.00  0.00    +0.000 C 
ATOM      3  O   UNL     1       1.965   5.178  20.721  0.00  0.00    +0.000 OA
ATOM      4  H   UNL     1       4.048   6.802  18.981  0.00  0.00    +0.000 HD
ENDROOT
BRANCH   2   5
ATOM      5  C   UNL     1       1.816   7.444  20.082  0.00  0.00    +0.000 A 
ATOM      6  C   UNL     1       1.855   8.307  18.975  0.00  0.00    +0.000 A 
ATOM      7  C   UNL     1       1.233   9.557  19.036  0.00  0.00    +0.000 A 
ATOM      8  C   UNL     1       0.562   9.947  20.195  0.00  0.00    +0.000 A 
ATOM      9  C   UNL     1       0.511   9.083  21.290  0.00  0.00    +0.000 A 
ATOM     10 CL   UNL     1      -0.323   9.566  22.715  0.00  0.00    +0.000 Cl
ATOM     11  C   UNL     1       1.130   7.836  21.238  0.00  0.00    +0.000 A 
ENDBRANCH   2   5
BRANCH   1  15
ATOM     12  N   UNL     1       5.763   4.708  16.709  0.00  0.00    +0.000 NA
ATOM     13  C   UNL     1       6.255   5.549  17.840  0.00  0.00    +0.000 C 
ATOM     14  C   UNL     1       5.872   4.938  19.180  0.00  0.00    +0.000 C 
ATOM     15  C   UNL     1       4.362   4.710  19.281  0.00  0.00    +0.000 C 
ATOM     16  C   UNL     1       3.909   3.828  18.120  0.00  0.00    +0.000 C 
ATOM     17  C   UNL     1       4.305   4.409  16.767  0.00  0.00    +0.000 C 
BRANCH  12  19
ATOM     18  C   UNL     1       5.819   3.870  14.143  0.00  0.00    +0.000 C 
ATOM     19  S   UNL     1       6.281   5.254  15.162  0.00  0.00    +0.000 S 
ATOM     20  O   UNL     1       7.722   5.366  15.185  0.00  0.00    +0.000 OA
ATOM     21  O   UNL     1       5.447   6.373  14.775  0.00  0.00    +0.000 OA
ENDBRANCH  12  19
ENDBRANCH   1  15
TORSDOF 3
ENDMDL
MODEL 7
REMARK VINA RESULT:      -7.1      3.981      7.302
REMARK  Name = 
REMARK  4 active torsions:
REMARK  status: ('A' for Active; 'I' for Inactive)
REMARK    1  A    between atoms: C_1  and  S_2
REMARK    2  A    between atoms: S_2  and  N_5
REMARK    3  A    between atoms: C_8  and  N_9
REMARK    4  A    between atoms: C_10  and  C_12
REMARK                            x       y       z     vdW  Elec       q    Type
REMARK                         _______ _______ _______ _____ _____    ______ ____
ROOT
ATOM      1  N   UNL     1       2.588   5.328  18.933  0.00  0.00    +0.000 N 
ATOM      2  C   UNL     1       2.079   5.756  20.142  0.00  0.00    +0.000 C 
ATOM      3  O   UNL     1       1.992   5.032  21.127  0.00  0.00    +0.000 OA
ATOM      4  H   UNL     1       2.815   6.028  18.240  0.00  0.00    +0.000 HD
ENDROOT
BRANCH   2   5
ATOM      5  C   UNL     1       1.655   7.183  20.221  0.00  0.00    +0.000 A 
ATOM      6  C   UNL     1       1.004   7.715  21.346  0.00  0.00    +0.000 A 
ATOM      7  C   UNL     1       0.638   9.064  21.373  0.00  0.00    +0.000 A 
ATOM      8  C   UNL     1       0.927   9.888  20.286  0.00  0.00    +0.000 A 
ATOM      9  C   UNL     1       1.587   9.362  19.175  0.00  0.00    +0.000 A 
ATOM     10 CL   UNL     1       1.948  10.385  17.839  0.00  0.00    +0.000 Cl
ATOM     11  C   UNL     1       1.954   8.019  19.138  0.00  0.00    +0.000 A 
ENDBRANCH   2   5
BRANCH   1  15
ATOM     12  N   UNL     1       5.696   4.285  17.414  0.00  0.00    +0.000 NA
ATOM     13  C   UNL     1       5.555   4.561  18.875  0.00  0.00    +0.000 C 
ATOM     14  C   UNL     1       4.428   3.736  19.478  0.00  0.00    +0.000 C 
ATOM     15  C   UNL     1       3.106   3.972  18.744  0.00  0.00    +0.000 C 
ATOM     16  C   UNL     1       3.292   3.656  17.262  0.00  0.00    +0.000 C 
ATOM     17  C   UNL     1       4.434   4.453  16.642  0.00  0.00    +0.000 C 
BRANCH  12  19
ATOM     18  C   UNL     1       7.213   6.493  17.741  0.00  0.00    +0.000 C 
ATOM     19  S   UNL     1       7.044   5.069  16.687  0.00  0.00    +0.000 S 
ATOM     20  O   UNL     1       6.652   5.501  15.364  0.00  0.00    +0.000 OA
ATOM     21  O   UNL     1       8.214   4.239  16.891  0.00  0.00    +0.000 OA
ENDBRANCH  12  19
ENDBRANCH   1  15
TORSDOF 3
ENDMDL
MODEL 8
REMARK VINA RESULT:      -6.9      1.897      2.364
REMARK  Name = 
REMARK  4 active torsions:
REMARK  status: ('A' for Active; 'I' for Inactive)
REMARK    1  A    between atoms: C_1  and  S_2
REMARK    2  A    between atoms: S_2  and  N_5
REMARK    3  A    between atoms: C_8  and  N_9
REMARK    4  A    between atoms: C_10  and  C_12
REMARK                            x       y       z     vdW  Elec       q    Type
REMARK                         _______ _______ _______ _____ _____    ______ ____
ROOT
ATOM      1  N   UNL     1       5.761   5.085  15.015  0.00  0.00    +0.000 N 
ATOM      2  C   UNL     1       6.717   4.897  14.038  0.00  0.00    +0.000 C 
ATOM      3  O   UNL     1       7.801   5.467  14.042  0.00  0.00    +0.000 OA
ATOM      4  H   UNL     1       4.988   4.435  15.053  0.00  0.00    +0.000 HD
ENDROOT
BRANCH   2   5
ATOM      5  C   UNL     1       6.387   3.921  12.959  0.00  0.00    +0.000 A 
ATOM      6  C   UNL     1       7.348   3.065  12.398  0.00  0.00    +0.000 A 
ATOM      7  C   UNL     1       6.983   2.160  11.397  0.00  0.00    +0.000 A 
ATOM      8  C   UNL     1       5.661   2.098  10.959  0.00  0.00    +0.000 A 
ATOM      9  C   UNL     1       4.703   2.940  11.528  0.00  0.00    +0.000 A 
ATOM     10 CL   UNL     1       3.072   2.856  10.989  0.00  0.00    +0.000 Cl
ATOM     11  C   UNL     1       5.058   3.846  12.524  0.00  0.00    +0.000 A 
ENDBRANCH   2   5
BRANCH   1  15
ATOM     12  N   UNL     1       4.808   4.579  18.463  0.00  0.00    +0.000 NA
ATOM     13  C   UNL     1       6.123   4.140  17.908  0.00  0.00    +0.000 C 
ATOM     14  C   UNL     1       6.850   5.303  17.247  0.00  0.00    +0.000 C 
ATOM     15  C   UNL     1       5.989   5.959  16.166  0.00  0.00    +0.000 C 
ATOM     16  C   UNL     1       4.668   6.411  16.783  0.00  0.00    +0.000 C 
ATOM     17  C   UNL     1       3.934   5.267  17.474  0.00  0.00    +0.000 C 
BRANCH  12  19
ATOM     18  C   UNL     1       3.303   2.380  18.036  0.00  0.00    +0.000 C 
ATOM     19  S   UNL     1       3.990   3.357  19.355  0.00  0.00    +0.000 S 
ATOM     20  O   UNL     1       2.915   3.982  20.093  0.00  0.00    +0.000 OA
ATOM     21  O   UNL     1       4.985   2.542  20.023  0.00  0.00    +0.000 OA
ENDBRANCH  12  19
ENDBRANCH   1  15
TORSDOF 3
ENDMDL
MODEL 9
REMARK VINA RESULT:      -6.9      4.178      7.245
REMARK  Name = 
REMARK  4 active torsions:
REMARK  status: ('A' for Active; 'I' for Inactive)
REMARK    1  A    between atoms: C_1  and  S_2
REMARK    2  A    between atoms: S_2  and  N_5
REMARK    3  A    between atoms: C_8  and  N_9
REMARK    4  A    between atoms: C_10  and  C_12
REMARK                            x       y       z     vdW  Elec       q    Type
REMARK                         _______ _______ _______ _____ _____    ______ ____
ROOT
ATOM      1  N   UNL     1       4.068   5.859  19.154  0.00  0.00    +0.000 N 
ATOM      2  C   UNL     1       2.880   5.980  19.844  0.00  0.00    +0.000 C 
ATOM      3  O   UNL     1       2.419   5.089  20.547  0.00  0.00    +0.000 OA
ATOM      4  H   UNL     1       4.480   6.698  18.767  0.00  0.00    +0.000 HD
ENDROOT
BRANCH   2   5
ATOM      5  C   UNL     1       2.170   7.286  19.728  0.00  0.00    +0.000 A 
ATOM      6  C   UNL     1       2.149   8.030  18.537  0.00  0.00    +0.000 A 
ATOM      7  C   UNL     1       1.457   9.243  18.478  0.00  0.00    +0.000 A 
ATOM      8  C   UNL     1       0.778   9.715  19.601  0.00  0.00    +0.000 A 
ATOM      9  C   UNL     1       0.787   8.968  20.780  0.00  0.00    +0.000 A 
ATOM     10 CL   UNL     1      -0.059   9.551  22.161  0.00  0.00    +0.000 Cl
ATOM     11  C   UNL     1       1.475   7.759  20.848  0.00  0.00    +0.000 A 
ENDBRANCH   2   5
BRANCH   1  15
ATOM     12  N   UNL     1       6.131   4.343  16.603  0.00  0.00    +0.000 NA
ATOM     13  C   UNL     1       6.642   5.368  17.563  0.00  0.00    +0.000 C 
ATOM     14  C   UNL     1       6.383   4.943  19.001  0.00  0.00    +0.000 C 
ATOM     15  C   UNL     1       4.899   4.657  19.241  0.00  0.00    +0.000 C 
ATOM     16  C   UNL     1       4.428   3.590  18.256  0.00  0.00    +0.000 C 
ATOM     17  C   UNL     1       4.701   3.983  16.808  0.00  0.00    +0.000 C 
BRANCH  12  19
ATOM     18  C   UNL     1       5.276   5.891  14.565  0.00  0.00    +0.000 C 
ATOM     19  S   UNL     1       6.517   4.679  14.961  0.00  0.00    +0.000 S 
ATOM     20  O   UNL     1       6.274   3.481  14.188  0.00  0.00    +0.000 OA
ATOM     21  O   UNL     1       7.801   5.349  14.926  0.00  0.00    +0.000 OA
ENDBRANCH  12  19
ENDBRANCH   1  15
TORSDOF 3
ENDMDL
