MODEL 1
REMARK VINA RESULT:      -8.8      0.000      0.000
REMARK  Name = 
REMARK  7 active torsions:
REMARK  status: ('A' for Active; 'I' for Inactive)
REMARK    1  A    between atoms: C_1  and  C_2
REMARK    2  A    between atoms: N_4  and  C_5
REMARK    3  A    between atoms: N_8  and  C_9
REMARK    4  A    between atoms: C_11  and  C_12
REMARK    5  A    between atoms: C_15  and  C_16
REMARK    6  A    between atoms: C_20  and  N_21
REMARK    7  A    between atoms: C_28  and  C_29
REMARK                            x       y       z     vdW  Elec       q    Type
REMARK                         _______ _______ _______ _____ _____    ______ ____
ROOT
ATOM      1  C   UNL     1       3.611   5.339  18.428  0.00  0.00    +0.000 A 
ATOM      2  C   UNL     1       3.246   4.461  19.379  0.00  0.00    +0.000 A 
ATOM      3  C   UNL     1       2.396   4.899  20.512  0.00  0.00    +0.000 A 
ATOM      4  C   UNL     1       2.079   3.876  21.576  0.00  0.00    +0.000 C 
ATOM      5  N   UNL     1       1.911   6.088  20.658  0.00  0.00    +0.000 NA
ATOM      6  N   UNL     1       2.252   6.948  19.651  0.00  0.00    +0.000 N 
ATOM      7  C   UNL     1       1.840   8.269  19.549  0.00  0.00    +0.000 A 
ATOM      8  C   UNL     1       2.449   8.723  18.380  0.00  0.00    +0.000 A 
ATOM      9  C   UNL     1       2.389  10.040  17.702  0.00  0.00    +0.000 C 
ATOM     10  N   UNL     1       3.206   7.735  17.797  0.00  0.00    +0.000 NA
ATOM     11  C   UNL     1       3.073   6.670  18.565  0.00  0.00    +0.000 A 
ENDROOT
BRANCH   7  12
ATOM     12  C   UNL     1       0.976   8.947  20.531  0.00  0.00    +0.000 A 
ATOM     13  C   UNL     1       0.973   8.599  21.885  0.00  0.00    +0.000 A 
ATOM     14  C   UNL     1       0.189   9.304  22.797  0.00  0.00    +0.000 A 
ATOM     15  C   UNL     1      -0.643  10.334  22.356  0.00  0.00    +0.000 A 
ATOM     16  C   UNL     1      -0.718  10.680  21.004  0.00  0.00    +0.000 A 
ATOM     17  C   UNL     1       0.134   9.991  20.124  0.00  0.00    +0.000 A 
BRANCH  16  18
ATOM     18  N   UNL     1      -1.571  11.654  20.539  0.00  0.00    +0.000 N 
ATOM     19  C   UNL     1      -2.169  12.669  21.420  0.00  0.00    +0.000 C 
ATOM     20  C   UNL     1      -3.688  12.689  21.209  0.00  0.00    +0.000 C 
ATOM     21  O   UNL     1      -4.020  12.910  19.826  0.00  0.00    +0.000 OA
ATOM     22  C   UNL     1      -3.456  11.873  19.003  0.00  0.00    +0.000 C 
ATOM     23  C   UNL     1      -1.922  11.808  19.124  0.00  0.00    +0.000 C 
ENDBRANCH  16  18
ENDBRANCH   7  12
BRANCH   1  27
ATOM     24  C   UNL     1       5.900   5.241  15.448  0.00  0.00    +0.000 C 
ATOM     25  C   UNL     1       6.632   4.524  16.577  0.00  0.00    +0.000 C 
ATOM     26  C   UNL     1       5.491   3.942  17.395  0.00  0.00    +0.000 C 
ATOM     27  N   UNL     1       4.470   4.991  17.371  0.00  0.00    +0.000 N 
ATOM     28  C   UNL     1       4.689   5.855  16.190  0.00  0.00    +0.000 C 
BRANCH  24  32
ATOM     29  C   UNL     1       5.594   3.273  12.221  0.00  0.00    +0.000 C 
ATOM     30  C   UNL     1       6.264   4.137  13.253  0.00  0.00    +0.000 C 
ATOM     31  O   UNL     1       7.381   4.615  13.091  0.00  0.00    +0.000 OA
ATOM     32  N   UNL     1       5.497   4.327  14.379  0.00  0.00    +0.000 N 
ATOM     33  H   UNL     1       4.532   4.022  14.358  0.00  0.00    +0.000 HD
ENDBRANCH  24  32
ENDBRANCH   1  27
TORSDOF 4
ENDMDL
MODEL 2
REMARK VINA RESULT:      -8.8      3.175     10.611
REMARK  Name = 
REMARK  7 active torsions:
REMARK  status: ('A' for Active; 'I' for Inactive)
REMARK    1  A    between atoms: C_1  and  C_2
REMARK    2  A    between atoms: N_4  and  C_5
REMARK    3  A    between atoms: N_8  and  C_9
REMARK    4  A    between atoms: C_11  and  C_12
REMARK    5  A    between atoms: C_15  and  C_16
REMARK    6  A    between atoms: C_20  and  N_21
REMARK    7  A    between atoms: C_28  and  C_29
REMARK                            x       y       z     vdW  Elec       q    Type
REMARK                         _______ _______ _______ _____ _____    ______ ____
ROOT
ATOM      1  C   UNL     1      -1.884  11.999  20.735  0.00  0.00    +0.000 A 
ATOM      2  C   UNL     1      -2.362  12.004  19.478  0.00  0.00    +0.000 A 
ATOM      3  C   UNL     1      -1.715  11.178  18.430  0.00  0.00    +0.000 A 
ATOM      4  C   UNL     1      -2.264  11.282  17.028  0.00  0.00    +0.000 C 
ATOM      5  N   UNL     1      -0.717  10.380  18.628  0.00  0.00    +0.000 NA
ATOM      6  N   UNL     1      -0.283  10.352  19.924  0.00  0.00    +0.000 N 
ATOM      7  C   UNL     1       0.749   9.562  20.409  0.00  0.00    +0.000 A 
ATOM      8  C   UNL     1       0.820   9.893  21.761  0.00  0.00    +0.000 A 
ATOM      9  C   UNL     1       1.697   9.380  22.842  0.00  0.00    +0.000 C 
ATOM     10  N   UNL     1      -0.113  10.846  22.091  0.00  0.00    +0.000 NA
ATOM     11  C   UNL     1      -0.777  11.108  20.980  0.00  0.00    +0.000 A 
ENDROOT
BRANCH   7  12
ATOM     12  C   UNL     1       1.543   8.636  19.583  0.00  0.00    +0.000 A 
ATOM     13  C   UNL     1       2.002   8.983  18.309  0.00  0.00    +0.000 A 
ATOM     14  C   UNL     1       2.804   8.106  17.581  0.00  0.00    +0.000 A 
ATOM     15  C   UNL     1       3.116   6.848  18.098  0.00  0.00    +0.000 A 
ATOM     16  C   UNL     1       2.634   6.434  19.344  0.00  0.00    +0.000 A 
ATOM     17  C   UNL     1       1.882   7.368  20.076  0.00  0.00    +0.000 A 
BRANCH  16  18
ATOM     18  N   UNL     1       2.883   5.179  19.849  0.00  0.00    +0.000 N 
ATOM     19  C   UNL     1       4.000   4.344  19.382  0.00  0.00    +0.000 C 
ATOM     20  C   UNL     1       3.469   2.957  18.998  0.00  0.00    +0.000 C 
ATOM     21  O   UNL     1       2.759   2.349  20.093  0.00  0.00    +0.000 OA
ATOM     22  C   UNL     1       1.648   3.172  20.490  0.00  0.00    +0.000 C 
ATOM     23  C   UNL     1       2.098   4.578  20.932  0.00  0.00    +0.000 C 
ENDBRANCH  16  18
ENDBRANCH   7  12
BRANCH   1  27
ATOM     24  C   UNL     1      -3.304  13.464  23.892  0.00  0.00    +0.000 C 
ATOM     25  C   UNL     1      -2.105  14.328  23.518  0.00  0.00    +0.000 C 
ATOM     26  C   UNL     1      -2.075  14.215  22.003  0.00  0.00    +0.000 C 
ATOM     27  N   UNL     1      -2.419  12.815  21.747  0.00  0.00    +0.000 N 
ATOM     28  C   UNL     1      -3.166  12.279  22.907  0.00  0.00    +0.000 C 
BRANCH  24  32
ATOM     29  C   UNL     1      -6.955  14.433  23.554  0.00  0.00    +0.000 C 
ATOM     30  C   UNL     1      -5.787  13.555  23.906  0.00  0.00    +0.000 C 
ATOM     31  O   UNL     1      -5.921  12.404  24.304  0.00  0.00    +0.000 OA
ATOM     32  N   UNL     1      -4.572  14.177  23.736  0.00  0.00    +0.000 N 
ATOM     33  H   UNL     1      -4.554  15.071  23.260  0.00  0.00    +0.000 HD
ENDBRANCH  24  32
ENDBRANCH   1  27
TORSDOF 4
ENDMDL
MODEL 3
REMARK VINA RESULT:      -8.7      3.327     10.674
REMARK  Name = 
REMARK  7 active torsions:
REMARK  status: ('A' for Active; 'I' for Inactive)
REMARK    1  A    between atoms: C_1  and  C_2
REMARK    2  A    between atoms: N_4  and  C_5
REMARK    3  A    between atoms: N_8  and  C_9
REMARK    4  A    between atoms: C_11  and  C_12
REMARK    5  A    between atoms: C_15  and  C_16
REMARK    6  A    between atoms: C_20  and  N_21
REMARK    7  A    between atoms: C_28  and  C_29
REMARK                            x       y       z     vdW  Elec       q    Type
REMARK                         _______ _______ _______ _____ _____    ______ ____
ROOT
ATOM      1  C   UNL     1      -1.709  12.004  20.621  0.00  0.00    +0.000 A 
ATOM      2  C   UNL     1      -2.220  11.957  19.377  0.00  0.00    +0.000 A 
ATOM      3  C   UNL     1      -1.624  11.058  18.359  0.00  0.00    +0.000 A 
ATOM      4  C   UNL     1      -2.207  11.105  16.967  0.00  0.00    +0.000 C 
ATOM      5  N   UNL     1      -0.644  10.243  18.573  0.00  0.00    +0.000 NA
ATOM      6  N   UNL     1      -0.177  10.270  19.858  0.00  0.00    +0.000 N 
ATOM      7  C   UNL     1       0.845   9.476  20.359  0.00  0.00    +0.000 A 
ATOM      8  C   UNL     1       0.961   9.875  21.689  0.00  0.00    +0.000 A 
ATOM      9  C   UNL     1       1.852   9.394  22.773  0.00  0.00    +0.000 C 
ATOM     10  N   UNL     1       0.064  10.872  21.991  0.00  0.00    +0.000 NA
ATOM     11  C   UNL     1      -0.621  11.095  20.885  0.00  0.00    +0.000 A 
ENDROOT
BRANCH   7  12
ATOM     12  C   UNL     1       1.591   8.486  19.563  0.00  0.00    +0.000 A 
ATOM     13  C   UNL     1       2.136   8.793  18.313  0.00  0.00    +0.000 A 
ATOM     14  C   UNL     1       2.890   7.850  17.616  0.00  0.00    +0.000 A 
ATOM     15  C   UNL     1       3.065   6.568  18.139  0.00  0.00    +0.000 A 
ATOM     16  C   UNL     1       2.491   6.195  19.358  0.00  0.00    +0.000 A 
ATOM     17  C   UNL     1       1.792   7.191  20.062  0.00  0.00    +0.000 A 
BRANCH  16  18
ATOM     18  N   UNL     1       2.603   4.921  19.866  0.00  0.00    +0.000 N 
ATOM     19  C   UNL     1       3.551   3.935  19.327  0.00  0.00    +0.000 C 
ATOM     20  C   UNL     1       2.802   2.633  19.013  0.00  0.00    +0.000 C 
ATOM     21  O   UNL     1       2.107   2.138  20.172  0.00  0.00    +0.000 OA
ATOM     22  C   UNL     1       1.158   3.113  20.642  0.00  0.00    +0.000 C 
ATOM     23  C   UNL     1       1.834   4.445  21.019  0.00  0.00    +0.000 C 
ENDBRANCH  16  18
ENDBRANCH   7  12
BRANCH   1  27
ATOM     24  C   UNL     1      -3.169  13.651  23.667  0.00  0.00    +0.000 C 
ATOM     25  C   UNL     1      -1.803  14.291  23.445  0.00  0.00    +0.000 C 
ATOM     26  C   UNL     1      -1.635  14.198  21.937  0.00  0.00    +0.000 C 
ATOM     27  N   UNL     1      -2.193  12.887  21.601  0.00  0.00    +0.000 N 
ATOM     28  C   UNL     1      -3.140  12.476  22.661  0.00  0.00    +0.000 C 
BRANCH  24  32
ATOM     29  C   UNL     1      -5.807  16.367  23.882  0.00  0.00    +0.000 C 
ATOM     30  C   UNL     1      -4.554  15.628  24.257  0.00  0.00    +0.000 C 
ATOM     31  O   UNL     1      -3.867  15.938  25.224  0.00  0.00    +0.000 OA
ATOM     32  N   UNL     1      -4.267  14.583  23.409  0.00  0.00    +0.000 N 
ATOM     33  H   UNL     1      -4.969  14.309  22.733  0.00  0.00    +0.000 HD
ENDBRANCH  24  32
ENDBRANCH   1  27
TORSDOF 4
ENDMDL
MODEL 4
REMARK VINA RESULT:      -8.7      3.217     10.443
REMARK  Name = 
REMARK  7 active torsions:
REMARK  status: ('A' for Active; 'I' for Inactive)
REMARK    1  A    between atoms: C_1  and  C_2
REMARK    2  A    between atoms: N_4  and  C_5
REMARK    3  A    between atoms: N_8  and  C_9
REMARK    4  A    between atoms: C_11  and  C_12
REMARK    5  A    between atoms: C_15  and  C_16
REMARK    6  A    between atoms: C_20  and  N_21
REMARK    7  A    between atoms: C_28  and  C_29
REMARK                            x       y       z     vdW  Elec       q    Type
REMARK                         _______ _______ _______ _____ _____    ______ ____
ROOT
ATOM      1  C   UNL     1      -2.010  11.809  20.113  0.00  0.00    +0.000 A 
ATOM      2  C   UNL     1      -2.445  11.714  18.844  0.00  0.00    +0.000 A 
ATOM      3  C   UNL     1      -1.738  10.841  17.876  0.00  0.00    +0.000 A 
ATOM      4  C   UNL     1      -2.242  10.833  16.453  0.00  0.00    +0.000 C 
ATOM      5  N   UNL     1      -0.724  10.091  18.159  0.00  0.00    +0.000 NA
ATOM      6  N   UNL     1      -0.333  10.163  19.467  0.00  0.00    +0.000 N 
ATOM      7  C   UNL     1       0.704   9.441  20.038  0.00  0.00    +0.000 A 
ATOM      8  C   UNL     1       0.720   9.863  21.365  0.00  0.00    +0.000 A 
ATOM      9  C   UNL     1       1.575   9.453  22.506  0.00  0.00    +0.000 C 
ATOM     10  N   UNL     1      -0.252  10.807  21.600  0.00  0.00    +0.000 NA
ATOM     11  C   UNL     1      -0.885  10.972  20.453  0.00  0.00    +0.000 A 
ENDROOT
BRANCH   7  12
ATOM     12  C   UNL     1       1.554   8.488  19.302  0.00  0.00    +0.000 A 
ATOM     13  C   UNL     1       2.336   8.878  18.210  0.00  0.00    +0.000 A 
ATOM     14  C   UNL     1       3.176   7.963  17.578  0.00  0.00    +0.000 A 
ATOM     15  C   UNL     1       3.205   6.632  17.996  0.00  0.00    +0.000 A 
ATOM     16  C   UNL     1       2.399   6.182  19.046  0.00  0.00    +0.000 A 
ATOM     17  C   UNL     1       1.613   7.146  19.701  0.00  0.00    +0.000 A 
BRANCH  16  18
ATOM     18  N   UNL     1       2.370   4.864  19.440  0.00  0.00    +0.000 N 
ATOM     19  C   UNL     1       1.434   4.362  20.457  0.00  0.00    +0.000 C 
ATOM     20  C   UNL     1       2.217   3.592  21.528  0.00  0.00    +0.000 C 
ATOM     21  O   UNL     1       2.999   2.534  20.944  0.00  0.00    +0.000 OA
ATOM     22  C   UNL     1       3.933   3.071  19.989  0.00  0.00    +0.000 C 
ATOM     23  C   UNL     1       3.226   3.830  18.851  0.00  0.00    +0.000 C 
ENDBRANCH  16  18
ENDBRANCH   7  12
BRANCH   1  27
ATOM     24  C   UNL     1      -3.248  13.590  23.182  0.00  0.00    +0.000 C 
ATOM     25  C   UNL     1      -2.525  14.636  22.340  0.00  0.00    +0.000 C 
ATOM     26  C   UNL     1      -2.737  14.125  20.924  0.00  0.00    +0.000 C 
ATOM     27  N   UNL     1      -2.603  12.673  21.050  0.00  0.00    +0.000 N 
ATOM     28  C   UNL     1      -2.883  12.279  22.449  0.00  0.00    +0.000 C 
BRANCH  24  32
ATOM     29  C   UNL     1      -6.988  13.342  23.756  0.00  0.00    +0.000 C 
ATOM     30  C   UNL     1      -5.536  13.018  23.964  0.00  0.00    +0.000 C 
ATOM     31  O   UNL     1      -5.158  12.125  24.714  0.00  0.00    +0.000 OA
ATOM     32  N   UNL     1      -4.692  13.821  23.232  0.00  0.00    +0.000 N 
ATOM     33  H   UNL     1      -5.098  14.426  22.528  0.00  0.00    +0.000 HD
ENDBRANCH  24  32
ENDBRANCH   1  27
TORSDOF 4
ENDMDL
MODEL 5
REMARK VINA RESULT:      -8.7      3.298     10.553
REMARK  Name = 
REMARK  7 active torsions:
REMARK  status: ('A' for Active; 'I' for Inactive)
REMARK    1  A    between atoms: C_1  and  C_2
REMARK    2  A    between atoms: N_4  and  C_5
REMARK    3  A    between atoms: N_8  and  C_9
REMARK    4  A    between atoms: C_11  and  C_12
REMARK    5  A    between atoms: C_15  and  C_16
REMARK    6  A    between atoms: C_20  and  N_21
REMARK    7  A    between atoms: C_28  and  C_29
REMARK                            x       y       z     vdW  Elec       q    Type
REMARK                         _______ _______ _______ _____ _____    ______ ____
ROOT
ATOM      1  C   UNL     1      -1.937  12.015  20.467  0.00  0.00    +0.000 A 
ATOM      2  C   UNL     1      -2.395  11.968  19.203  0.00  0.00    +0.000 A 
ATOM      3  C   UNL     1      -1.734  11.098  18.201  0.00  0.00    +0.000 A 
ATOM      4  C   UNL     1      -2.260  11.144  16.788  0.00  0.00    +0.000 C 
ATOM      5  N   UNL     1      -0.742  10.307  18.448  0.00  0.00    +0.000 NA
ATOM      6  N   UNL     1      -0.327  10.332  19.751  0.00  0.00    +0.000 N 
ATOM      7  C   UNL     1       0.694   9.560  20.285  0.00  0.00    +0.000 A 
ATOM      8  C   UNL     1       0.745   9.947  21.622  0.00  0.00    +0.000 A 
ATOM      9  C   UNL     1       1.604   9.479  22.737  0.00  0.00    +0.000 C 
ATOM     10  N   UNL     1      -0.190  10.916  21.897  0.00  0.00    +0.000 NA
ATOM     11  C   UNL     1      -0.835  11.133  20.766  0.00  0.00    +0.000 A 
ENDROOT
BRANCH   7  12
ATOM     12  C   UNL     1       1.499   8.600  19.510  0.00  0.00    +0.000 A 
ATOM     13  C   UNL     1       2.011   8.906  18.246  0.00  0.00    +0.000 A 
ATOM     14  C   UNL     1       2.821   7.996  17.569  0.00  0.00    +0.000 A 
ATOM     15  C   UNL     1       3.087   6.744  18.127  0.00  0.00    +0.000 A 
ATOM     16  C   UNL     1       2.551   6.370  19.363  0.00  0.00    +0.000 A 
ATOM     17  C   UNL     1       1.792   7.337  20.045  0.00  0.00    +0.000 A 
BRANCH  16  18
ATOM     18  N   UNL     1       2.754   5.123  19.907  0.00  0.00    +0.000 N 
ATOM     19  C   UNL     1       3.839   4.234  19.465  0.00  0.00    +0.000 C 
ATOM     20  C   UNL     1       3.257   2.856  19.123  0.00  0.00    +0.000 C 
ATOM     21  O   UNL     1       2.527   2.307  20.236  0.00  0.00    +0.000 OA
ATOM     22  C   UNL     1       1.447   3.183  20.608  0.00  0.00    +0.000 C 
ATOM     23  C   UNL     1       1.949   4.585  21.007  0.00  0.00    +0.000 C 
ENDBRANCH  16  18
ENDBRANCH   7  12
BRANCH   1  27
ATOM     24  C   UNL     1      -3.050  14.917  22.579  0.00  0.00    +0.000 C 
ATOM     25  C   UNL     1      -4.304  14.109  22.263  0.00  0.00    +0.000 C 
ATOM     26  C   UNL     1      -3.762  12.696  22.128  0.00  0.00    +0.000 C 
ATOM     27  N   UNL     1      -2.484  12.874  21.436  0.00  0.00    +0.000 N 
ATOM     28  C   UNL     1      -2.000  14.255  21.657  0.00  0.00    +0.000 C 
BRANCH  24  32
ATOM     29  C   UNL     1      -1.609  15.509  26.037  0.00  0.00    +0.000 C 
ATOM     30  C   UNL     1      -2.016  15.859  24.633  0.00  0.00    +0.000 C 
ATOM     31  O   UNL     1      -1.772  16.947  24.124  0.00  0.00    +0.000 OA
ATOM     32  N   UNL     1      -2.683  14.839  23.994  0.00  0.00    +0.000 N 
ATOM     33  H   UNL     1      -2.704  13.929  24.437  0.00  0.00    +0.000 HD
ENDBRANCH  24  32
ENDBRANCH   1  27
TORSDOF 4
ENDMDL
MODEL 6
REMARK VINA RESULT:      -8.6      0.770      1.205
REMARK  Name = 
REMARK  7 active torsions:
REMARK  status: ('A' for Active; 'I' for Inactive)
REMARK    1  A    between atoms: C_1  and  C_2
REMARK    2  A    between atoms: N_4  and  C_5
REMARK    3  A    between atoms: N_8  and  C_9
REMARK    4  A    between atoms: C_11  and  C_12
REMARK    5  A    between atoms: C_15  and  C_16
REMARK    6  A    between atoms: C_20  and  N_21
REMARK    7  A    between atoms: C_28  and  C_29
REMARK                            x       y       z     vdW  Elec       q    Type
REMARK                         _______ _______ _______ _____ _____    ______ ____
ROOT
ATOM      1  C   UNL     1       3.626   5.360  18.448  0.00  0.00    +0.000 A 
ATOM      2  C   UNL     1       3.268   4.473  19.393  0.00  0.00    +0.000 A 
ATOM      3  C   UNL     1       2.403   4.893  20.521  0.00  0.00    +0.000 A 
ATOM      4  C   UNL     1       2.094   3.862  21.580  0.00  0.00    +0.000 C 
ATOM      5  N   UNL     1       1.897   6.074  20.667  0.00  0.00    +0.000 NA
ATOM      6  N   UNL     1       2.231   6.943  19.665  0.00  0.00    +0.000 N 
ATOM      7  C   UNL     1       1.799   8.258  19.564  0.00  0.00    +0.000 A 
ATOM      8  C   UNL     1       2.409   8.725  18.402  0.00  0.00    +0.000 A 
ATOM      9  C   UNL     1       2.332  10.043  17.727  0.00  0.00    +0.000 C 
ATOM     10  N   UNL     1       3.187   7.751  17.821  0.00  0.00    +0.000 NA
ATOM     11  C   UNL     1       3.065   6.682  18.585  0.00  0.00    +0.000 A 
ENDROOT
BRANCH   7  12
ATOM     12  C   UNL     1       0.916   8.918  20.542  0.00  0.00    +0.000 A 
ATOM     13  C   UNL     1       0.720   8.410  21.829  0.00  0.00    +0.000 A 
ATOM     14  C   UNL     1      -0.073   9.094  22.748  0.00  0.00    +0.000 A 
ATOM     15  C   UNL     1      -0.723  10.272  22.374  0.00  0.00    +0.000 A 
ATOM     16  C   UNL     1      -0.602  10.789  21.081  0.00  0.00    +0.000 A 
ATOM     17  C   UNL     1       0.256  10.107  20.201  0.00  0.00    +0.000 A 
BRANCH  16  18
ATOM     18  N   UNL     1      -1.276  11.917  20.673  0.00  0.00    +0.000 N 
ATOM     19  C   UNL     1      -0.990  12.593  19.399  0.00  0.00    +0.000 C 
ATOM     20  C   UNL     1      -0.749  14.085  19.661  0.00  0.00    +0.000 C 
ATOM     21  O   UNL     1      -1.864  14.680  20.351  0.00  0.00    +0.000 OA
ATOM     22  C   UNL     1      -2.083  14.022  21.612  0.00  0.00    +0.000 C 
ATOM     23  C   UNL     1      -2.373  12.518  21.437  0.00  0.00    +0.000 C 
ENDBRANCH  16  18
ENDBRANCH   7  12
BRANCH   1  27
ATOM     24  C   UNL     1       5.922   5.307  15.472  0.00  0.00    +0.000 C 
ATOM     25  C   UNL     1       6.678   4.631  16.611  0.00  0.00    +0.000 C 
ATOM     26  C   UNL     1       5.557   4.019  17.435  0.00  0.00    +0.000 C 
ATOM     27  N   UNL     1       4.499   5.030  17.397  0.00  0.00    +0.000 N 
ATOM     28  C   UNL     1       4.689   5.886  16.205  0.00  0.00    +0.000 C 
BRANCH  24  32
ATOM     29  C   UNL     1       5.687   3.293  12.268  0.00  0.00    +0.000 C 
ATOM     30  C   UNL     1       6.324   4.196  13.287  0.00  0.00    +0.000 C 
ATOM     31  O   UNL     1       7.419   4.719  13.115  0.00  0.00    +0.000 OA
ATOM     32  N   UNL     1       5.555   4.365  14.415  0.00  0.00    +0.000 N 
ATOM     33  H   UNL     1       4.603   4.019  14.402  0.00  0.00    +0.000 HD
ENDBRANCH  24  32
ENDBRANCH   1  27
TORSDOF 4
ENDMDL
MODEL 7
REMARK VINA RESULT:      -8.5      3.246     10.570
REMARK  Name = 
REMARK  7 active torsions:
REMARK  status: ('A' for Active; 'I' for Inactive)
REMARK    1  A    between atoms: C_1  and  C_2
REMARK    2  A    between atoms: N_4  and  C_5
REMARK    3  A    between atoms: N_8  and  C_9
REMARK    4  A    between atoms: C_11  and  C_12
REMARK    5  A    between atoms: C_15  and  C_16
REMARK    6  A    between atoms: C_20  and  N_21
REMARK    7  A    between atoms: C_28  and  C_29
REMARK                            x       y       z     vdW  Elec       q    Type
REMARK                         _______ _______ _______ _____ _____    ______ ____
ROOT
ATOM      1  C   UNL     1      -2.235  11.861  19.604  0.00  0.00    +0.000 A 
ATOM      2  C   UNL     1      -2.654  11.606  18.352  0.00  0.00    +0.000 A 
ATOM      3  C   UNL     1      -1.899  10.665  17.489  0.00  0.00    +0.000 A 
ATOM      4  C   UNL     1      -2.390  10.476  16.074  0.00  0.00    +0.000 C 
ATOM      5  N   UNL     1      -0.855   9.999  17.857  0.00  0.00    +0.000 NA
ATOM      6  N   UNL     1      -0.479  10.234  19.151  0.00  0.00    +0.000 N 
ATOM      7  C   UNL     1       0.586   9.628  19.802  0.00  0.00    +0.000 A 
ATOM      8  C   UNL     1       0.570  10.196  21.074  0.00  0.00    +0.000 A 
ATOM      9  C   UNL     1       1.434   9.955  22.256  0.00  0.00    +0.000 C 
ATOM     10  N   UNL     1      -0.446  11.113  21.199  0.00  0.00    +0.000 NA
ATOM     11  C   UNL     1      -1.076  11.121  20.039  0.00  0.00    +0.000 A 
ENDROOT
BRANCH   7  12
ATOM     12  C   UNL     1       1.485   8.641  19.179  0.00  0.00    +0.000 A 
ATOM     13  C   UNL     1       2.166   8.902  17.987  0.00  0.00    +0.000 A 
ATOM     14  C   UNL     1       3.057   7.969  17.460  0.00  0.00    +0.000 A 
ATOM     15  C   UNL     1       3.239   6.738  18.093  0.00  0.00    +0.000 A 
ATOM     16  C   UNL     1       2.537   6.408  19.257  0.00  0.00    +0.000 A 
ATOM     17  C   UNL     1       1.697   7.399  19.793  0.00  0.00    +0.000 A 
BRANCH  16  18
ATOM     18  N   UNL     1       2.659   5.181  19.867  0.00  0.00    +0.000 N 
ATOM     19  C   UNL     1       3.749   4.246  19.553  0.00  0.00    +0.000 C 
ATOM     20  C   UNL     1       3.155   2.870  19.224  0.00  0.00    +0.000 C 
ATOM     21  O   UNL     1       2.323   2.391  20.295  0.00  0.00    +0.000 OA
ATOM     22  C   UNL     1       1.243   3.310  20.541  0.00  0.00    +0.000 C 
ATOM     23  C   UNL     1       1.752   4.714  20.920  0.00  0.00    +0.000 C 
ENDBRANCH  16  18
ENDBRANCH   7  12
BRANCH   1  27
ATOM     24  C   UNL     1      -3.498  14.922  21.383  0.00  0.00    +0.000 C 
ATOM     25  C   UNL     1      -4.731  14.153  20.922  0.00  0.00    +0.000 C 
ATOM     26  C   UNL     1      -4.248  12.712  20.938  0.00  0.00    +0.000 C 
ATOM     27  N   UNL     1      -2.875  12.795  20.437  0.00  0.00    +0.000 N 
ATOM     28  C   UNL     1      -2.359  14.164  20.661  0.00  0.00    +0.000 C 
BRANCH  24  32
ATOM     29  C   UNL     1      -3.511  15.746  25.084  0.00  0.00    +0.000 C 
ATOM     30  C   UNL     1      -3.913  15.869  23.642  0.00  0.00    +0.000 C 
ATOM     31  O   UNL     1      -4.671  16.744  23.239  0.00  0.00    +0.000 OA
ATOM     32  N   UNL     1      -3.347  14.907  22.838  0.00  0.00    +0.000 N 
ATOM     33  H   UNL     1      -2.618  14.323  23.231  0.00  0.00    +0.000 HD
ENDBRANCH  24  32
ENDBRANCH   1  27
TORSDOF 4
ENDMDL
MODEL 8
REMARK VINA RESULT:      -8.5      3.369     10.678
REMARK  Name = 
REMARK  7 active torsions:
REMARK  status: ('A' for Active; 'I' for Inactive)
REMARK    1  A    between atoms: C_1  and  C_2
REMARK    2  A    between atoms: N_4  and  C_5
REMARK    3  A    between atoms: N_8  and  C_9
REMARK    4  A    between atoms: C_11  and  C_12
REMARK    5  A    between atoms: C_15  and  C_16
REMARK    6  A    between atoms: C_20  and  N_21
REMARK    7  A    between atoms: C_28  and  C_29
REMARK                            x       y       z     vdW  Elec       q    Type
REMARK                         _______ _______ _______ _____ _____    ______ ____
ROOT
ATOM      1  C   UNL     1      -1.643  11.970  21.117  0.00  0.00    +0.000 A 
ATOM      2  C   UNL     1      -2.183  12.051  19.888  0.00  0.00    +0.000 A 
ATOM      3  C   UNL     1      -1.636  11.235  18.777  0.00  0.00    +0.000 A 
ATOM      4  C   UNL     1      -2.249  11.425  17.410  0.00  0.00    +0.000 C 
ATOM      5  N   UNL     1      -0.676  10.378  18.892  0.00  0.00    +0.000 NA
ATOM      6  N   UNL     1      -0.179  10.274  20.162  0.00  0.00    +0.000 N 
ATOM      7  C   UNL     1       0.830   9.410  20.562  0.00  0.00    +0.000 A 
ATOM      8  C   UNL     1       0.987   9.682  21.919  0.00  0.00    +0.000 A 
ATOM      9  C   UNL     1       1.888   9.079  22.932  0.00  0.00    +0.000 C 
ATOM     10  N   UNL     1       0.127  10.670  22.333  0.00  0.00    +0.000 NA
ATOM     11  C   UNL     1      -0.576  11.012  21.270  0.00  0.00    +0.000 A 
ENDROOT
BRANCH   7  12
ATOM     12  C   UNL     1       1.529   8.478  19.660  0.00  0.00    +0.000 A 
ATOM     13  C   UNL     1       2.113   8.898  18.462  0.00  0.00    +0.000 A 
ATOM     14  C   UNL     1       2.821   8.000  17.665  0.00  0.00    +0.000 A 
ATOM     15  C   UNL     1       2.910   6.656  18.031  0.00  0.00    +0.000 A 
ATOM     16  C   UNL     1       2.295   6.177  19.192  0.00  0.00    +0.000 A 
ATOM     17  C   UNL     1       1.645   7.123  20.003  0.00  0.00    +0.000 A 
BRANCH  16  18
ATOM     18  N   UNL     1       2.323   4.848  19.545  0.00  0.00    +0.000 N 
ATOM     19  C   UNL     1       1.427   4.280  20.563  0.00  0.00    +0.000 C 
ATOM     20  C   UNL     1       2.258   3.508  21.595  0.00  0.00    +0.000 C 
ATOM     21  O   UNL     1       3.068   2.499  20.964  0.00  0.00    +0.000 OA
ATOM     22  C   UNL     1       3.962   3.099  20.009  0.00  0.00    +0.000 C 
ATOM     23  C   UNL     1       3.205   3.865  18.908  0.00  0.00    +0.000 C 
ENDBRANCH  16  18
ENDBRANCH   7  12
BRANCH   1  27
ATOM     24  C   UNL     1      -2.818  14.725  23.388  0.00  0.00    +0.000 C 
ATOM     25  C   UNL     1      -3.820  13.586  23.540  0.00  0.00    +0.000 C 
ATOM     26  C   UNL     1      -2.966  12.357  23.274  0.00  0.00    +0.000 C 
ATOM     27  N   UNL     1      -2.080  12.772  22.186  0.00  0.00    +0.000 N 
ATOM     28  C   UNL     1      -1.969  14.248  22.186  0.00  0.00    +0.000 C 
BRANCH  24  32
ATOM     29  C   UNL     1      -1.098  16.127  26.463  0.00  0.00    +0.000 C 
ATOM     30  C   UNL     1      -2.112  16.067  25.356  0.00  0.00    +0.000 C 
ATOM     31  O   UNL     1      -2.935  16.956  25.164  0.00  0.00    +0.000 OA
ATOM     32  N   UNL     1      -2.017  14.924  24.596  0.00  0.00    +0.000 N 
ATOM     33  H   UNL     1      -1.213  14.324  24.733  0.00  0.00    +0.000 HD
ENDBRANCH  24  32
ENDBRANCH   1  27
TORSDOF 4
ENDMDL
MODEL 9
REMARK VINA RESULT:      -8.1      3.187     10.480
REMARK  Name = 
REMARK  7 active torsions:
REMARK  status: ('A' for Active; 'I' for Inactive)
REMARK    1  A    between atoms: C_1  and  C_2
REMARK    2  A    between atoms: N_4  and  C_5
REMARK    3  A    between atoms: N_8  and  C_9
REMARK    4  A    between atoms: C_11  and  C_12
REMARK    5  A    between atoms: C_15  and  C_16
REMARK    6  A    between atoms: C_20  and  N_21
REMARK    7  A    between atoms: C_28  and  C_29
REMARK                            x       y       z     vdW  Elec       q    Type
REMARK                         _______ _______ _______ _____ _____    ______ ____
ROOT
ATOM      1  C   UNL     1      -2.160  11.798  19.593  0.00  0.00    +0.000 A 
ATOM      2  C   UNL     1      -2.589  11.562  18.341  0.00  0.00    +0.000 A 
ATOM      3  C   UNL     1      -1.851  10.622  17.463  0.00  0.00    +0.000 A 
ATOM      4  C   UNL     1      -2.352  10.456  16.049  0.00  0.00    +0.000 C 
ATOM      5  N   UNL     1      -0.813   9.939  17.817  0.00  0.00    +0.000 NA
ATOM      6  N   UNL     1      -0.427  10.154  19.111  0.00  0.00    +0.000 N 
ATOM      7  C   UNL     1       0.634   9.528  19.749  0.00  0.00    +0.000 A 
ATOM      8  C   UNL     1       0.633  10.081  21.028  0.00  0.00    +0.000 A 
ATOM      9  C   UNL     1       1.500   9.815  22.202  0.00  0.00    +0.000 C 
ATOM     10  N   UNL     1      -0.371  11.009  21.169  0.00  0.00    +0.000 NA
ATOM     11  C   UNL     1      -1.008  11.038  20.013  0.00  0.00    +0.000 A 
ENDROOT
BRANCH   7  12
ATOM     12  C   UNL     1       1.517   8.537  19.110  0.00  0.00    +0.000 A 
ATOM     13  C   UNL     1       2.379   8.873  18.062  0.00  0.00    +0.000 A 
ATOM     14  C   UNL     1       3.245   7.924  17.524  0.00  0.00    +0.000 A 
ATOM     15  C   UNL     1       3.224   6.609  17.993  0.00  0.00    +0.000 A 
ATOM     16  C   UNL     1       2.339   6.211  19.000  0.00  0.00    +0.000 A 
ATOM     17  C   UNL     1       1.526   7.210  19.562  0.00  0.00    +0.000 A 
BRANCH  16  18
ATOM     18  N   UNL     1       2.262   4.910  19.439  0.00  0.00    +0.000 N 
ATOM     19  C   UNL     1       1.374   4.496  20.536  0.00  0.00    +0.000 C 
ATOM     20  C   UNL     1       2.185   3.712  21.575  0.00  0.00    +0.000 C 
ATOM     21  O   UNL     1       2.860   2.592  20.974  0.00  0.00    +0.000 OA
ATOM     22  C   UNL     1       3.753   3.041  19.938  0.00  0.00    +0.000 C 
ATOM     23  C   UNL     1       3.010   3.808  18.826  0.00  0.00    +0.000 C 
ENDBRANCH  16  18
ENDBRANCH   7  12
BRANCH   1  27
ATOM     24  C   UNL     1      -4.289  13.622  22.096  0.00  0.00    +0.000 C 
ATOM     25  C   UNL     1      -2.840  13.915  22.469  0.00  0.00    +0.000 C 
ATOM     26  C   UNL     1      -2.132  13.848  21.127  0.00  0.00    +0.000 C 
ATOM     27  N   UNL     1      -2.783  12.730  20.440  0.00  0.00    +0.000 N 
ATOM     28  C   UNL     1      -4.128  12.521  21.022  0.00  0.00    +0.000 C 
BRANCH  24  32
ATOM     29  C   UNL     1      -6.852  16.142  20.886  0.00  0.00    +0.000 C 
ATOM     30  C   UNL     1      -6.352  14.912  21.590  0.00  0.00    +0.000 C 
ATOM     31  O   UNL     1      -7.103  14.096  22.111  0.00  0.00    +0.000 OA
ATOM     32  N   UNL     1      -4.980  14.807  21.585  0.00  0.00    +0.000 N 
ATOM     33  H   UNL     1      -4.453  15.445  21.001  0.00  0.00    +0.000 HD
ENDBRANCH  24  32
ENDBRANCH   1  27
TORSDOF 4
ENDMDL
