MODEL 1
REMARK VINA RESULT:      -7.6      0.000      0.000
REMARK  Name = 
REMARK  9 active torsions:
REMARK  status: ('A' for Active; 'I' for Inactive)
REMARK    1  A    between atoms: C_1  and  C_2
REMARK    2  A    between atoms: C_5  and  N_6
REMARK    3  A    between atoms: C_7  and  C_9
REMARK    4  A    between atoms: C_9  and  C_10
REMARK    5  A    between atoms: C_10  and  C_11
REMARK    6  A    between atoms: N_13  and  N_14
REMARK    7  A    between atoms: C_15  and  C_16
REMARK    8  A    between atoms: C_19  and  N_20
REMARK    9  A    between atoms: C_25  and  C_26
REMARK                            x       y       z     vdW  Elec       q    Type
REMARK                         _______ _______ _______ _____ _____    ______ ____
ROOT
ATOM      1  C   UNL     1       8.011   8.467  17.497  0.00  0.00    +0.000 C 
ENDROOT
BRANCH   1   2
ATOM      2  C   UNL     1       7.085   7.275  17.446  0.00  0.00    +0.000 C 
ATOM      3  O   UNL     1       6.301   7.135  16.508  0.00  0.00    +0.000 OA
ATOM      4  N   UNL     1       7.198   6.400  18.520  0.00  0.00    +0.000 N 
ATOM      5  H   UNL     1       7.825   6.584  19.297  0.00  0.00    +0.000 HD
BRANCH   4   6
ATOM      6  N   UNL     1       6.364   5.320  18.549  0.00  0.00    +0.000 NA
ATOM      7  C   UNL     1       5.331   5.350  19.328  0.00  0.00    +0.000 C 
BRANCH   7   8
ATOM      8  C   UNL     1       4.442   4.217  19.324  0.00  0.00    +0.000 A 
ATOM      9  C   UNL     1       4.455   3.061  18.558  0.00  0.00    +0.000 A 
ATOM     10  C   UNL     1       3.336   2.289  18.946  0.00  0.00    +0.000 A 
ATOM     11  C   UNL     1       2.716   3.022  19.927  0.00  0.00    +0.000 A 
ATOM     12  O   UNL     1       3.371   4.194  20.180  0.00  0.00    +0.000 OA
BRANCH  11  13
ATOM     13  N   UNL     1       1.533   2.764  20.691  0.00  0.00    +0.000 N 
ATOM     14  O   UNL     1       1.711   2.402  21.863  0.00  0.00    +0.000 OA
ATOM     15  O   UNL     1       0.440   2.918  20.134  0.00  0.00    +0.000 OA
ENDBRANCH  11  13
ENDBRANCH   7   8
ENDBRANCH   4   6
ENDBRANCH   1   2
BRANCH   1  16
ATOM     16  C   UNL     1       8.693   8.610  18.847  0.00  0.00    +0.000 C 
BRANCH  16  18
ATOM     17  N   UNL     1       9.287  10.766  17.875  0.00  0.00    +0.000 N 
ATOM     18  C   UNL     1       9.135  10.045  19.048  0.00  0.00    +0.000 C 
ATOM     19  O   UNL     1       9.285  10.457  20.195  0.00  0.00    +0.000 OA
ATOM     20  H   UNL     1       9.109  10.283  17.001  0.00  0.00    +0.000 HD
BRANCH  17  25
ATOM     21  C   UNL     1      10.785  16.314  17.508  0.00  0.00    +0.000 C 
ATOM     22  C   UNL     1      10.361  14.873  17.592  0.00  0.00    +0.000 A 
ATOM     23  C   UNL     1      11.297  13.874  17.306  0.00  0.00    +0.000 A 
ATOM     24  C   UNL     1      10.957  12.522  17.388  0.00  0.00    +0.000 A 
ATOM     25  C   UNL     1       9.676  12.125  17.762  0.00  0.00    +0.000 A 
ATOM     26  C   UNL     1       8.727  13.123  18.039  0.00  0.00    +0.000 A 
ATOM     27  C   UNL     1       9.054  14.496  17.954  0.00  0.00    +0.000 A 
ATOM     28  C   UNL     1       8.011  15.541  18.248  0.00  0.00    +0.000 C 
ENDBRANCH  17  25
ENDBRANCH  16  18
ENDBRANCH   1  16
TORSDOF 7
ENDMDL
MODEL 2
REMARK VINA RESULT:      -7.5      2.867     10.940
REMARK  Name = 
REMARK  9 active torsions:
REMARK  status: ('A' for Active; 'I' for Inactive)
REMARK    1  A    between atoms: C_1  and  C_2
REMARK    2  A    between atoms: C_5  and  N_6
REMARK    3  A    between atoms: C_7  and  C_9
REMARK    4  A    between atoms: C_9  and  C_10
REMARK    5  A    between atoms: C_10  and  C_11
REMARK    6  A    between atoms: N_13  and  N_14
REMARK    7  A    between atoms: C_15  and  C_16
REMARK    8  A    between atoms: C_19  and  N_20
REMARK    9  A    between atoms: C_25  and  C_26
REMARK                            x       y       z     vdW  Elec       q    Type
REMARK                         _______ _______ _______ _____ _____    ______ ____
ROOT
ATOM      1  C   UNL     1       7.778   5.775  18.415  0.00  0.00    +0.000 C 
ENDROOT
BRANCH   1   2
ATOM      2  C   UNL     1       7.750   7.230  18.008  0.00  0.00    +0.000 C 
ATOM      3  O   UNL     1       7.075   7.596  17.048  0.00  0.00    +0.000 OA
ATOM      4  N   UNL     1       8.535   8.071  18.789  0.00  0.00    +0.000 N 
ATOM      5  H   UNL     1       9.116   7.715  19.542  0.00  0.00    +0.000 HD
BRANCH   4   6
ATOM      6  N   UNL     1       8.580   9.392  18.452  0.00  0.00    +0.000 NA
ATOM      7  C   UNL     1       9.280  10.199  19.180  0.00  0.00    +0.000 C 
BRANCH   7   8
ATOM      8  C   UNL     1       9.344  11.585  18.792  0.00  0.00    +0.000 A 
ATOM      9  C   UNL     1       8.776  12.249  17.716  0.00  0.00    +0.000 A 
ATOM     10  C   UNL     1       9.178  13.602  17.800  0.00  0.00    +0.000 A 
ATOM     11  C   UNL     1       9.962  13.676  18.924  0.00  0.00    +0.000 A 
ATOM     12  O   UNL     1      10.074  12.466  19.548  0.00  0.00    +0.000 OA
BRANCH  11  13
ATOM     13  N   UNL     1      10.659  14.777  19.515  0.00  0.00    +0.000 N 
ATOM     14  O   UNL     1      11.151  14.571  20.635  0.00  0.00    +0.000 OA
ATOM     15  O   UNL     1      10.717  15.835  18.878  0.00  0.00    +0.000 OA
ENDBRANCH  11  13
ENDBRANCH   7   8
ENDBRANCH   4   6
ENDBRANCH   1   2
BRANCH   1  16
ATOM     16  C   UNL     1       7.763   4.842  17.217  0.00  0.00    +0.000 C 
BRANCH  16  18
ATOM     17  N   UNL     1       5.652   4.184  18.248  0.00  0.00    +0.000 N 
ATOM     18  C   UNL     1       6.392   4.212  17.077  0.00  0.00    +0.000 C 
ATOM     19  O   UNL     1       6.037   3.820  15.969  0.00  0.00    +0.000 OA
ATOM     20  H   UNL     1       6.083   4.565  19.084  0.00  0.00    +0.000 HD
BRANCH  17  25
ATOM     21  C   UNL     1       0.306   2.179  18.991  0.00  0.00    +0.000 C 
ATOM     22  C   UNL     1       1.711   2.691  18.829  0.00  0.00    +0.000 A 
ATOM     23  C   UNL     1       2.300   2.663  17.561  0.00  0.00    +0.000 A 
ATOM     24  C   UNL     1       3.596   3.143  17.357  0.00  0.00    +0.000 A 
ATOM     25  C   UNL     1       4.341   3.670  18.408  0.00  0.00    +0.000 A 
ATOM     26  C   UNL     1       3.760   3.690  19.688  0.00  0.00    +0.000 A 
ATOM     27  C   UNL     1       2.452   3.201  19.912  0.00  0.00    +0.000 A 
ATOM     28  C   UNL     1       1.862   3.228  21.297  0.00  0.00    +0.000 C 
ENDBRANCH  17  25
ENDBRANCH  16  18
ENDBRANCH   1  16
TORSDOF 7
ENDMDL
MODEL 3
REMARK VINA RESULT:      -7.5      6.424      8.368
REMARK  Name = 
REMARK  9 active torsions:
REMARK  status: ('A' for Active; 'I' for Inactive)
REMARK    1  A    between atoms: C_1  and  C_2
REMARK    2  A    between atoms: C_5  and  N_6
REMARK    3  A    between atoms: C_7  and  C_9
REMARK    4  A    between atoms: C_9  and  C_10
REMARK    5  A    between atoms: C_10  and  C_11
REMARK    6  A    between atoms: N_13  and  N_14
REMARK    7  A    between atoms: C_15  and  C_16
REMARK    8  A    between atoms: C_19  and  N_20
REMARK    9  A    between atoms: C_25  and  C_26
REMARK                            x       y       z     vdW  Elec       q    Type
REMARK                         _______ _______ _______ _____ _____    ______ ____
ROOT
ATOM      1  C   UNL     1       4.573   4.366  19.735  0.00  0.00    +0.000 C 
ENDROOT
BRANCH   1   2
ATOM      2  C   UNL     1       4.665   4.110  18.249  0.00  0.00    +0.000 C 
ATOM      3  O   UNL     1       4.262   3.050  17.773  0.00  0.00    +0.000 OA
ATOM      4  N   UNL     1       5.233   5.143  17.511  0.00  0.00    +0.000 N 
ATOM      5  H   UNL     1       5.597   5.980  17.954  0.00  0.00    +0.000 HD
BRANCH   4   6
ATOM      6  N   UNL     1       5.376   4.958  16.167  0.00  0.00    +0.000 NA
ATOM      7  C   UNL     1       6.507   4.528  15.712  0.00  0.00    +0.000 C 
BRANCH   7   8
ATOM      8  C   UNL     1       6.633   4.307  14.295  0.00  0.00    +0.000 A 
ATOM      9  C   UNL     1       7.428   4.937  13.350  0.00  0.00    +0.000 A 
ATOM     10  C   UNL     1       7.142   4.344  12.099  0.00  0.00    +0.000 A 
ATOM     11  C   UNL     1       6.193   3.387  12.363  0.00  0.00    +0.000 A 
ATOM     12  O   UNL     1       5.872   3.340  13.690  0.00  0.00    +0.000 OA
BRANCH  11  13
ATOM     13  N   UNL     1       5.510   2.473  11.498  0.00  0.00    +0.000 N 
ATOM     14  O   UNL     1       6.177   1.511  11.090  0.00  0.00    +0.000 OA
ATOM     15  O   UNL     1       4.328   2.708  11.227  0.00  0.00    +0.000 OA
ENDBRANCH  11  13
ENDBRANCH   7   8
ENDBRANCH   4   6
ENDBRANCH   1   2
BRANCH   1  16
ATOM     16  C   UNL     1       3.214   3.990  20.301  0.00  0.00    +0.000 C 
BRANCH  16  18
ATOM     17  N   UNL     1       2.805   6.348  19.825  0.00  0.00    +0.000 N 
ATOM     18  C   UNL     1       2.226   5.108  20.041  0.00  0.00    +0.000 C 
ATOM     19  O   UNL     1       1.028   4.836  20.006  0.00  0.00    +0.000 OA
ATOM     20  H   UNL     1       3.818   6.406  19.872  0.00  0.00    +0.000 HD
BRANCH  17  25
ATOM     21  C   UNL     1       0.086  11.320  18.810  0.00  0.00    +0.000 C 
ATOM     22  C   UNL     1       0.771  10.013  19.100  0.00  0.00    +0.000 A 
ATOM     23  C   UNL     1       1.398   9.331  18.052  0.00  0.00    +0.000 A 
ATOM     24  C   UNL     1       2.063   8.123  18.274  0.00  0.00    +0.000 A 
ATOM     25  C   UNL     1       2.129   7.562  19.547  0.00  0.00    +0.000 A 
ATOM     26  C   UNL     1       1.491   8.236  20.602  0.00  0.00    +0.000 A 
ATOM     27  C   UNL     1       0.808   9.456  20.392  0.00  0.00    +0.000 A 
ATOM     28  C   UNL     1       0.126  10.149  21.542  0.00  0.00    +0.000 C 
ENDBRANCH  17  25
ENDBRANCH  16  18
ENDBRANCH   1  16
TORSDOF 7
ENDMDL
MODEL 4
REMARK VINA RESULT:      -7.5      6.252      8.652
REMARK  Name = 
REMARK  9 active torsions:
REMARK  status: ('A' for Active; 'I' for Inactive)
REMARK    1  A    between atoms: C_1  and  C_2
REMARK    2  A    between atoms: C_5  and  N_6
REMARK    3  A    between atoms: C_7  and  C_9
REMARK    4  A    between atoms: C_9  and  C_10
REMARK    5  A    between atoms: C_10  and  C_11
REMARK    6  A    between atoms: N_13  and  N_14
REMARK    7  A    between atoms: C_15  and  C_16
REMARK    8  A    between atoms: C_19  and  N_20
REMARK    9  A    between atoms: C_25  and  C_26
REMARK                            x       y       z     vdW  Elec       q    Type
REMARK                         _______ _______ _______ _____ _____    ______ ____
ROOT
ATOM      1  C   UNL     1       2.393   2.368  20.523  0.00  0.00    +0.000 C 
ENDROOT
BRANCH   1   2
ATOM      2  C   UNL     1       3.546   2.564  19.567  0.00  0.00    +0.000 C 
ATOM      3  O   UNL     1       4.441   1.724  19.490  0.00  0.00    +0.000 OA
ATOM      4  N   UNL     1       3.497   3.739  18.825  0.00  0.00    +0.000 N 
ATOM      5  H   UNL     1       2.763   4.427  18.959  0.00  0.00    +0.000 HD
BRANCH   4   6
ATOM      6  N   UNL     1       4.528   3.991  17.968  0.00  0.00    +0.000 NA
ATOM      7  C   UNL     1       4.355   3.780  16.704  0.00  0.00    +0.000 C 
BRANCH   7   8
ATOM      8  C   UNL     1       5.442   4.081  15.807  0.00  0.00    +0.000 A 
ATOM      9  C   UNL     1       6.663   4.693  16.042  0.00  0.00    +0.000 A 
ATOM     10  C   UNL     1       7.343   4.759  14.805  0.00  0.00    +0.000 A 
ATOM     11  C   UNL     1       6.493   4.181  13.895  0.00  0.00    +0.000 A 
ATOM     12  O   UNL     1       5.334   3.755  14.480  0.00  0.00    +0.000 OA
BRANCH  11  13
ATOM     13  N   UNL     1       6.623   3.970  12.485  0.00  0.00    +0.000 N 
ATOM     14  O   UNL     1       5.852   3.137  11.988  0.00  0.00    +0.000 OA
ATOM     15  O   UNL     1       7.481   4.622  11.880  0.00  0.00    +0.000 OA
ENDBRANCH  11  13
ENDBRANCH   7   8
ENDBRANCH   4   6
ENDBRANCH   1   2
BRANCH   1  16
ATOM     16  C   UNL     1       2.281   3.500  21.531  0.00  0.00    +0.000 C 
BRANCH  16  18
ATOM     17  N   UNL     1       2.093   5.908  21.190  0.00  0.00    +0.000 N 
ATOM     18  C   UNL     1       1.544   4.668  20.908  0.00  0.00    +0.000 C 
ATOM     19  O   UNL     1       0.572   4.434  20.195  0.00  0.00    +0.000 OA
ATOM     20  H   UNL     1       2.913   5.933  21.787  0.00  0.00    +0.000 HD
BRANCH  17  25
ATOM     21  C   UNL     1       0.192  10.971  19.215  0.00  0.00    +0.000 C 
ATOM     22  C   UNL     1       0.721   9.655  19.716  0.00  0.00    +0.000 A 
ATOM     23  C   UNL     1       0.297   9.186  20.963  0.00  0.00    +0.000 A 
ATOM     24  C   UNL     1       0.745   7.961  21.463  0.00  0.00    +0.000 A 
ATOM     25  C   UNL     1       1.624   7.165  20.733  0.00  0.00    +0.000 A 
ATOM     26  C   UNL     1       2.063   7.636  19.484  0.00  0.00    +0.000 A 
ATOM     27  C   UNL     1       1.624   8.876  18.968  0.00  0.00    +0.000 A 
ATOM     28  C   UNL     1       2.121   9.356  17.630  0.00  0.00    +0.000 C 
ENDBRANCH  17  25
ENDBRANCH  16  18
ENDBRANCH   1  16
TORSDOF 7
ENDMDL
MODEL 5
REMARK VINA RESULT:      -7.5      2.747     10.670
REMARK  Name = 
REMARK  9 active torsions:
REMARK  status: ('A' for Active; 'I' for Inactive)
REMARK    1  A    between atoms: C_1  and  C_2
REMARK    2  A    between atoms: C_5  and  N_6
REMARK    3  A    between atoms: C_7  and  C_9
REMARK    4  A    between atoms: C_9  and  C_10
REMARK    5  A    between atoms: C_10  and  C_11
REMARK    6  A    between atoms: N_13  and  N_14
REMARK    7  A    between atoms: C_15  and  C_16
REMARK    8  A    between atoms: C_19  and  N_20
REMARK    9  A    between atoms: C_25  and  C_26
REMARK                            x       y       z     vdW  Elec       q    Type
REMARK                         _______ _______ _______ _____ _____    ______ ____
ROOT
ATOM      1  C   UNL     1       7.906   6.791  18.154  0.00  0.00    +0.000 C 
ENDROOT
BRANCH   1   2
ATOM      2  C   UNL     1       8.030   8.295  18.079  0.00  0.00    +0.000 C 
ATOM      3  O   UNL     1       7.459   8.923  17.188  0.00  0.00    +0.000 OA
ATOM      4  N   UNL     1       8.822   8.868  19.067  0.00  0.00    +0.000 N 
ATOM      5  H   UNL     1       9.314   8.304  19.753  0.00  0.00    +0.000 HD
BRANCH   4   6
ATOM      6  N   UNL     1       9.001  10.220  19.033  0.00  0.00    +0.000 NA
ATOM      7  C   UNL     1      10.141  10.709  19.400  0.00  0.00    +0.000 C 
BRANCH   7   8
ATOM      8  C   UNL     1      10.325  12.136  19.328  0.00  0.00    +0.000 A 
ATOM      9  C   UNL     1      11.225  12.964  19.981  0.00  0.00    +0.000 A 
ATOM     10  C   UNL     1      10.957  14.287  19.561  0.00  0.00    +0.000 A 
ATOM     11  C   UNL     1       9.913  14.179  18.676  0.00  0.00    +0.000 A 
ATOM     12  O   UNL     1       9.515  12.883  18.513  0.00  0.00    +0.000 OA
BRANCH  11  13
ATOM     13  N   UNL     1       9.200  15.175  17.935  0.00  0.00    +0.000 N 
ATOM     14  O   UNL     1       9.876  16.123  17.509  0.00  0.00    +0.000 OA
ATOM     15  O   UNL     1       7.984  15.019  17.778  0.00  0.00    +0.000 OA
ENDBRANCH  11  13
ENDBRANCH   7   8
ENDBRANCH   4   6
ENDBRANCH   1   2
BRANCH   1  16
ATOM     16  C   UNL     1       7.263   6.203  16.911  0.00  0.00    +0.000 C 
BRANCH  16  18
ATOM     17  N   UNL     1       5.827   5.235  18.629  0.00  0.00    +0.000 N 
ATOM     18  C   UNL     1       5.958   5.529  17.282  0.00  0.00    +0.000 C 
ATOM     19  O   UNL     1       5.127   5.333  16.398  0.00  0.00    +0.000 OA
ATOM     20  H   UNL     1       6.602   5.476  19.239  0.00  0.00    +0.000 HD
BRANCH  17  25
ATOM     21  C   UNL     1       1.233   2.831  21.134  0.00  0.00    +0.000 C 
ATOM     22  C   UNL     1       2.430   3.487  20.501  0.00  0.00    +0.000 A 
ATOM     23  C   UNL     1       3.491   2.686  20.067  0.00  0.00    +0.000 A 
ATOM     24  C   UNL     1       4.616   3.247  19.458  0.00  0.00    +0.000 A 
ATOM     25  C   UNL     1       4.714   4.621  19.257  0.00  0.00    +0.000 A 
ATOM     26  C   UNL     1       3.657   5.433  19.702  0.00  0.00    +0.000 A 
ATOM     27  C   UNL     1       2.515   4.882  20.327  0.00  0.00    +0.000 A 
ATOM     28  C   UNL     1       1.404   5.781  20.800  0.00  0.00    +0.000 C 
ENDBRANCH  17  25
ENDBRANCH  16  18
ENDBRANCH   1  16
TORSDOF 7
ENDMDL
MODEL 6
REMARK VINA RESULT:      -7.3      3.490      9.160
REMARK  Name = 
REMARK  9 active torsions:
REMARK  status: ('A' for Active; 'I' for Inactive)
REMARK    1  A    between atoms: C_1  and  C_2
REMARK    2  A    between atoms: C_5  and  N_6
REMARK    3  A    between atoms: C_7  and  C_9
REMARK    4  A    between atoms: C_9  and  C_10
REMARK    5  A    between atoms: C_10  and  C_11
REMARK    6  A    between atoms: N_13  and  N_14
REMARK    7  A    between atoms: C_15  and  C_16
REMARK    8  A    between atoms: C_19  and  N_20
REMARK    9  A    between atoms: C_25  and  C_26
REMARK                            x       y       z     vdW  Elec       q    Type
REMARK                         _______ _______ _______ _____ _____    ______ ____
ROOT
ATOM      1  C   UNL     1       6.153   4.601  18.299  0.00  0.00    +0.000 C 
ENDROOT
BRANCH   1   2
ATOM      2  C   UNL     1       7.064   5.670  18.857  0.00  0.00    +0.000 C 
ATOM      3  O   UNL     1       7.452   5.611  20.022  0.00  0.00    +0.000 OA
ATOM      4  N   UNL     1       7.396   6.681  17.963  0.00  0.00    +0.000 N 
ATOM      5  H   UNL     1       7.010   6.714  17.024  0.00  0.00    +0.000 HD
BRANCH   4   6
ATOM      6  N   UNL     1       8.188   7.695  18.416  0.00  0.00    +0.000 NA
ATOM      7  C   UNL     1       8.022   8.883  17.932  0.00  0.00    +0.000 C 
BRANCH   7   8
ATOM      8  C   UNL     1       8.844   9.949  18.444  0.00  0.00    +0.000 A 
ATOM      9  C   UNL     1       9.407  10.133  19.698  0.00  0.00    +0.000 A 
ATOM     10  C   UNL     1      10.103  11.363  19.668  0.00  0.00    +0.000 A 
ATOM     11  C   UNL     1       9.921  11.848  18.396  0.00  0.00    +0.000 A 
ATOM     12  O   UNL     1       9.166  11.005  17.632  0.00  0.00    +0.000 OA
BRANCH  11  13
ATOM     13  N   UNL     1      10.376  13.055  17.774  0.00  0.00    +0.000 N 
ATOM     14  O   UNL     1      11.045  12.914  16.740  0.00  0.00    +0.000 OA
ATOM     15  O   UNL     1      10.075  14.129  18.307  0.00  0.00    +0.000 OA
ENDBRANCH  11  13
ENDBRANCH   7   8
ENDBRANCH   4   6
ENDBRANCH   1   2
BRANCH   1  16
ATOM     16  C   UNL     1       5.624   4.958  16.921  0.00  0.00    +0.000 C 
BRANCH  16  18
ATOM     17  N   UNL     1       3.862   6.199  18.064  0.00  0.00    +0.000 N 
ATOM     18  C   UNL     1       4.761   6.200  17.011  0.00  0.00    +0.000 C 
ATOM     19  O   UNL     1       4.943   7.100  16.194  0.00  0.00    +0.000 OA
ATOM     20  H   UNL     1       3.845   5.381  18.665  0.00  0.00    +0.000 HD
BRANCH  17  25
ATOM     21  C   UNL     1       0.185  10.379  19.532  0.00  0.00    +0.000 C 
ATOM     22  C   UNL     1       1.128   9.265  19.170  0.00  0.00    +0.000 A 
ATOM     23  C   UNL     1       1.652   9.215  17.874  0.00  0.00    +0.000 A 
ATOM     24  C   UNL     1       2.544   8.210  17.495  0.00  0.00    +0.000 A 
ATOM     25  C   UNL     1       2.946   7.228  18.397  0.00  0.00    +0.000 A 
ATOM     26  C   UNL     1       2.414   7.265  19.697  0.00  0.00    +0.000 A 
ATOM     27  C   UNL     1       1.504   8.271  20.093  0.00  0.00    +0.000 A 
ATOM     28  C   UNL     1       0.945   8.276  21.492  0.00  0.00    +0.000 C 
ENDBRANCH  17  25
ENDBRANCH  16  18
ENDBRANCH   1  16
TORSDOF 7
ENDMDL
MODEL 7
REMARK VINA RESULT:      -7.3      3.433      9.182
REMARK  Name = 
REMARK  9 active torsions:
REMARK  status: ('A' for Active; 'I' for Inactive)
REMARK    1  A    between atoms: C_1  and  C_2
REMARK    2  A    between atoms: C_5  and  N_6
REMARK    3  A    between atoms: C_7  and  C_9
REMARK    4  A    between atoms: C_9  and  C_10
REMARK    5  A    between atoms: C_10  and  C_11
REMARK    6  A    between atoms: N_13  and  N_14
REMARK    7  A    between atoms: C_15  and  C_16
REMARK    8  A    between atoms: C_19  and  N_20
REMARK    9  A    between atoms: C_25  and  C_26
REMARK                            x       y       z     vdW  Elec       q    Type
REMARK                         _______ _______ _______ _____ _____    ______ ____
ROOT
ATOM      1  C   UNL     1       5.858   5.031  16.142  0.00  0.00    +0.000 C 
ENDROOT
BRANCH   1   2
ATOM      2  C   UNL     1       6.967   5.798  16.824  0.00  0.00    +0.000 C 
ATOM      3  O   UNL     1       7.885   5.201  17.383  0.00  0.00    +0.000 OA
ATOM      4  N   UNL     1       6.844   7.181  16.763  0.00  0.00    +0.000 N 
ATOM      5  H   UNL     1       6.041   7.629  16.333  0.00  0.00    +0.000 HD
BRANCH   4   6
ATOM      6  N   UNL     1       7.797   7.931  17.390  0.00  0.00    +0.000 NA
ATOM      7  C   UNL     1       7.568   9.187  17.595  0.00  0.00    +0.000 C 
BRANCH   7   8
ATOM      8  C   UNL     1       8.569   9.958  18.287  0.00  0.00    +0.000 A 
ATOM      9  C   UNL     1       9.250   9.703  19.467  0.00  0.00    +0.000 A 
ATOM     10  C   UNL     1      10.106  10.803  19.703  0.00  0.00    +0.000 A 
ATOM     11  C   UNL     1       9.893  11.657  18.649  0.00  0.00    +0.000 A 
ATOM     12  O   UNL     1       8.969  11.164  17.772  0.00  0.00    +0.000 OA
BRANCH  11  13
ATOM     13  N   UNL     1      10.461  12.935  18.342  0.00  0.00    +0.000 N 
ATOM     14  O   UNL     1      10.146  13.419  17.246  0.00  0.00    +0.000 OA
ATOM     15  O   UNL     1      11.211  13.450  19.178  0.00  0.00    +0.000 OA
ENDBRANCH  11  13
ENDBRANCH   7   8
ENDBRANCH   4   6
ENDBRANCH   1   2
BRANCH   1  16
ATOM     16  C   UNL     1       4.952   4.324  17.136  0.00  0.00    +0.000 C 
BRANCH  16  18
ATOM     17  N   UNL     1       3.256   5.898  17.908  0.00  0.00    +0.000 N 
ATOM     18  C   UNL     1       4.479   5.308  18.186  0.00  0.00    +0.000 C 
ATOM     19  O   UNL     1       5.171   5.475  19.186  0.00  0.00    +0.000 OA
ATOM     20  H   UNL     1       2.797   5.640  17.041  0.00  0.00    +0.000 HD
BRANCH  17  25
ATOM     21  C   UNL     1       0.412   9.771  21.080  0.00  0.00    +0.000 C 
ATOM     22  C   UNL     1       1.174   8.786  20.237  0.00  0.00    +0.000 A 
ATOM     23  C   UNL     1       1.458   7.521  20.764  0.00  0.00    +0.000 A 
ATOM     24  C   UNL     1       2.147   6.566  20.013  0.00  0.00    +0.000 A 
ATOM     25  C   UNL     1       2.569   6.839  18.715  0.00  0.00    +0.000 A 
ATOM     26  C   UNL     1       2.298   8.112  18.184  0.00  0.00    +0.000 A 
ATOM     27  C   UNL     1       1.608   9.092  18.933  0.00  0.00    +0.000 A 
ATOM     28  C   UNL     1       1.342  10.450  18.339  0.00  0.00    +0.000 C 
ENDBRANCH  17  25
ENDBRANCH  16  18
ENDBRANCH   1  16
TORSDOF 7
ENDMDL
MODEL 8
REMARK VINA RESULT:      -7.3      6.060      8.570
REMARK  Name = 
REMARK  9 active torsions:
REMARK  status: ('A' for Active; 'I' for Inactive)
REMARK    1  A    between atoms: C_1  and  C_2
REMARK    2  A    between atoms: C_5  and  N_6
REMARK    3  A    between atoms: C_7  and  C_9
REMARK    4  A    between atoms: C_9  and  C_10
REMARK    5  A    between atoms: C_10  and  C_11
REMARK    6  A    between atoms: N_13  and  N_14
REMARK    7  A    between atoms: C_15  and  C_16
REMARK    8  A    between atoms: C_19  and  N_20
REMARK    9  A    between atoms: C_25  and  C_26
REMARK                            x       y       z     vdW  Elec       q    Type
REMARK                         _______ _______ _______ _____ _____    ______ ____
ROOT
ATOM      1  C   UNL     1       3.804   2.656  20.666  0.00  0.00    +0.000 C 
ENDROOT
BRANCH   1   2
ATOM      2  C   UNL     1       4.183   2.505  19.212  0.00  0.00    +0.000 C 
ATOM      3  O   UNL     1       3.858   1.498  18.584  0.00  0.00    +0.000 OA
ATOM      4  N   UNL     1       4.909   3.566  18.683  0.00  0.00    +0.000 N 
ATOM      5  H   UNL     1       5.198   4.354  19.254  0.00  0.00    +0.000 HD
BRANCH   4   6
ATOM      6  N   UNL     1       5.311   3.475  17.383  0.00  0.00    +0.000 NA
ATOM      7  C   UNL     1       5.546   4.563  16.724  0.00  0.00    +0.000 C 
BRANCH   7   8
ATOM      8  C   UNL     1       6.001   4.450  15.362  0.00  0.00    +0.000 A 
ATOM      9  C   UNL     1       5.662   3.543  14.368  0.00  0.00    +0.000 A 
ATOM     10  C   UNL     1       6.422   3.874  13.223  0.00  0.00    +0.000 A 
ATOM     11  C   UNL     1       7.173   4.962  13.592  0.00  0.00    +0.000 A 
ATOM     12  O   UNL     1       6.931   5.335  14.883  0.00  0.00    +0.000 OA
BRANCH  11  13
ATOM     13  N   UNL     1       8.137   5.731  12.865  0.00  0.00    +0.000 N 
ATOM     14  O   UNL     1       7.747   6.219  11.794  0.00  0.00    +0.000 OA
ATOM     15  O   UNL     1       9.269   5.848  13.349  0.00  0.00    +0.000 OA
ENDBRANCH  11  13
ENDBRANCH   7   8
ENDBRANCH   4   6
ENDBRANCH   1   2
BRANCH   1  16
ATOM     16  C   UNL     1       2.336   2.999  20.847  0.00  0.00    +0.000 C 
BRANCH  16  18
ATOM     17  N   UNL     1       2.349   5.418  20.528  0.00  0.00    +0.000 N 
ATOM     18  C   UNL     1       1.982   4.196  19.988  0.00  0.00    +0.000 C 
ATOM     19  O   UNL     1       1.449   3.999  18.899  0.00  0.00    +0.000 OA
ATOM     20  H   UNL     1       2.800   5.412  21.437  0.00  0.00    +0.000 HD
BRANCH  17  25
ATOM     21  C   UNL     1       1.571  10.653  18.261  0.00  0.00    +0.000 C 
ATOM     22  C   UNL     1       1.742   9.288  18.869  0.00  0.00    +0.000 A 
ATOM     23  C   UNL     1       2.434   8.308  18.149  0.00  0.00    +0.000 A 
ATOM     24  C   UNL     1       2.633   7.031  18.678  0.00  0.00    +0.000 A 
ATOM     25  C   UNL     1       2.156   6.694  19.942  0.00  0.00    +0.000 A 
ATOM     26  C   UNL     1       1.451   7.669  20.665  0.00  0.00    +0.000 A 
ATOM     27  C   UNL     1       1.233   8.964  20.141  0.00  0.00    +0.000 A 
ATOM     28  C   UNL     1       0.465   9.984  20.939  0.00  0.00    +0.000 C 
ENDBRANCH  17  25
ENDBRANCH  16  18
ENDBRANCH   1  16
TORSDOF 7
ENDMDL
MODEL 9
REMARK VINA RESULT:      -7.3      3.170     11.227
REMARK  Name = 
REMARK  9 active torsions:
REMARK  status: ('A' for Active; 'I' for Inactive)
REMARK    1  A    between atoms: C_1  and  C_2
REMARK    2  A    between atoms: C_5  and  N_6
REMARK    3  A    between atoms: C_7  and  C_9
REMARK    4  A    between atoms: C_9  and  C_10
REMARK    5  A    between atoms: C_10  and  C_11
REMARK    6  A    between atoms: N_13  and  N_14
REMARK    7  A    between atoms: C_15  and  C_16
REMARK    8  A    between atoms: C_19  and  N_20
REMARK    9  A    between atoms: C_25  and  C_26
REMARK                            x       y       z     vdW  Elec       q    Type
REMARK                         _______ _______ _______ _____ _____    ______ ____
ROOT
ATOM      1  C   UNL     1       8.425   7.838  18.560  0.00  0.00    +0.000 C 
ENDROOT
BRANCH   1   2
ATOM      2  C   UNL     1       8.558   9.343  18.536  0.00  0.00    +0.000 C 
ATOM      3  O   UNL     1       8.053   9.998  17.626  0.00  0.00    +0.000 OA
ATOM      4  N   UNL     1       9.282   9.883  19.592  0.00  0.00    +0.000 N 
ATOM      5  H   UNL     1       9.724   9.297  20.294  0.00  0.00    +0.000 HD
BRANCH   4   6
ATOM      6  N   UNL     1       9.467  11.235  19.609  0.00  0.00    +0.000 NA
ATOM      7  C   UNL     1      10.543  11.712  20.146  0.00  0.00    +0.000 C 
BRANCH   7   8
ATOM      8  C   UNL     1      10.740  13.138  20.128  0.00  0.00    +0.000 A 
ATOM      9  C   UNL     1      10.464  14.100  21.087  0.00  0.00    +0.000 A 
ATOM     10  C   UNL     1      10.833  15.352  20.543  0.00  0.00    +0.000 A 
ATOM     11  C   UNL     1      11.312  15.071  19.287  0.00  0.00    +0.000 A 
ATOM     12  O   UNL     1      11.272  13.734  19.014  0.00  0.00    +0.000 OA
BRANCH  11  13
ATOM     13  N   UNL     1      11.820  15.928  18.259  0.00  0.00    +0.000 N 
ATOM     14  O   UNL     1      11.704  17.146  18.461  0.00  0.00    +0.000 OA
ATOM     15  O   UNL     1      12.325  15.400  17.263  0.00  0.00    +0.000 OA
ENDBRANCH  11  13
ENDBRANCH   7   8
ENDBRANCH   4   6
ENDBRANCH   1   2
BRANCH   1  16
ATOM     16  C   UNL     1       7.560   7.318  17.425  0.00  0.00    +0.000 C 
BRANCH  16  18
ATOM     17  N   UNL     1       5.337   6.316  17.494  0.00  0.00    +0.000 N 
ATOM     18  C   UNL     1       6.646   6.225  17.940  0.00  0.00    +0.000 C 
ATOM     19  O   UNL     1       7.124   5.351  18.658  0.00  0.00    +0.000 OA
ATOM     20  H   UNL     1       5.102   7.094  16.887  0.00  0.00    +0.000 HD
BRANCH  17  25
ATOM     21  C   UNL     1       0.961   2.808  18.795  0.00  0.00    +0.000 C 
ATOM     22  C   UNL     1       2.111   3.728  18.490  0.00  0.00    +0.000 A 
ATOM     23  C   UNL     1       2.875   3.498  17.342  0.00  0.00    +0.000 A 
ATOM     24  C   UNL     1       3.942   4.335  17.006  0.00  0.00    +0.000 A 
ATOM     25  C   UNL     1       4.275   5.429  17.801  0.00  0.00    +0.000 A 
ATOM     26  C   UNL     1       3.519   5.658  18.963  0.00  0.00    +0.000 A 
ATOM     27  C   UNL     1       2.441   4.816  19.320  0.00  0.00    +0.000 A 
ATOM     28  C   UNL     1       1.656   5.085  20.577  0.00  0.00    +0.000 C 
ENDBRANCH  17  25
ENDBRANCH  16  18
ENDBRANCH   1  16
TORSDOF 7
ENDMDL
