MODEL 1
REMARK VINA RESULT:      -6.6      0.000      0.000
REMARK  Name = 
REMARK  14 active torsions:
REMARK  status: ('A' for Active; 'I' for Inactive)
REMARK    1  A    between atoms: C_1  and  C_2
REMARK    2  A    between atoms: C_2  and  C_11
REMARK    3  A    between atoms: C_3  and  C_4
REMARK    4  A    between atoms: C_4  and  S_5
REMARK    5  A    between atoms: S_5  and  C_6
REMARK    6  A    between atoms: C_6  and  C_7
REMARK    7  A    between atoms: C_7  and  C_8
REMARK    8  A    between atoms: C_8  and  O_10
REMARK    9  A    between atoms: C_11  and  C_12
REMARK   10  A    between atoms: C_12  and  N_13
REMARK   11  A    between atoms: C_15  and  C_16
REMARK   12  A    between atoms: C_16  and  C_17
REMARK   13  A    between atoms: C_17  and  O_18
REMARK   14  A    between atoms: O_18  and  C_19
REMARK                            x       y       z     vdW  Elec       q    Type
REMARK                         _______ _______ _______ _____ _____    ______ ____
ROOT
ATOM      1  N   UNL     1       5.918   5.641  16.708  0.00  0.00    +0.000 N 
ATOM      2  C   UNL     1       6.335   6.089  17.920  0.00  0.00    +0.000 A 
ATOM      3  C   UNL     1       7.499   6.767  17.645  0.00  0.00    +0.000 A 
ATOM      4  N   UNL     1       7.811   6.601  16.322  0.00  0.00    +0.000 NA
ATOM      5  N   UNL     1       6.838   5.892  15.759  0.00  0.00    +0.000 NA
ENDROOT
BRANCH   1   6
ATOM      6  C   UNL     1       4.661   4.998  16.381  0.00  0.00    +0.000 C 
BRANCH   6   7
ATOM      7  C   UNL     1       4.608   3.536  16.849  0.00  0.00    +0.000 C 
BRANCH   7   9
ATOM      8  C   UNL     1       3.366   1.775  18.221  0.00  0.00    +0.000 C 
ATOM      9  C   UNL     1       3.498   3.224  17.835  0.00  0.00    +0.000 C 
ATOM     10  C   UNL     1       2.769   4.225  18.369  0.00  0.00    +0.000 C 
BRANCH  10  11
ATOM     11  C   UNL     1       1.638   4.098  19.346  0.00  0.00    +0.000 C 
BRANCH  11  12
ATOM     12  S   UNL     1       1.649   5.486  20.525  0.00  0.00    +0.000 S 
BRANCH  12  13
ATOM     13  C   UNL     1       2.702   6.656  19.603  0.00  0.00    +0.000 C 
BRANCH  13  14
ATOM     14  C   UNL     1       1.939   7.958  19.390  0.00  0.00    +0.000 C 
BRANCH  14  15
ATOM     15  C   UNL     1       2.281   8.553  18.049  0.00  0.00    +0.000 C 
ATOM     16  O   UNL     1       1.721   9.511  17.539  0.00  0.00    +0.000 OA
BRANCH  15  17
ATOM     17  O   UNL     1       3.305   7.908  17.444  0.00  0.00    +0.000 OA
ATOM     18  H   UNL     1       3.885   8.492  16.917  0.00  0.00    +0.000 HD
ENDBRANCH  15  17
ENDBRANCH  14  15
ENDBRANCH  13  14
ENDBRANCH  12  13
ENDBRANCH  11  12
ENDBRANCH  10  11
ENDBRANCH   7   9
ENDBRANCH   6   7
ENDBRANCH   1   6
BRANCH   3  19
ATOM     19  C   UNL     1       8.310   7.597  18.568  0.00  0.00    +0.000 C 
BRANCH  19  20
ATOM     20  C   UNL     1       8.339   9.076  18.157  0.00  0.00    +0.000 C 
BRANCH  20  21
ATOM     21  O   UNL     1       9.074   9.843  19.117  0.00  0.00    +0.000 OA
BRANCH  21  22
ATOM     22  C   UNL     1       9.139  11.231  18.798  0.00  0.00    +0.000 C 
ATOM     23  C   UNL     1      10.315  11.468  17.846  0.00  0.00    +0.000 C 
ATOM     24  C   UNL     1      11.658  11.349  18.560  0.00  0.00    +0.000 C 
ATOM     25  C   UNL     1      11.670  12.216  19.811  0.00  0.00    +0.000 C 
ATOM     26  C   UNL     1      10.444  11.944  20.674  0.00  0.00    +0.000 C 
ATOM     27  O   UNL     1       9.230  12.081  19.939  0.00  0.00    +0.000 OA
ENDBRANCH  21  22
ENDBRANCH  20  21
ENDBRANCH  19  20
ENDBRANCH   3  19
TORSDOF 13
ENDMDL
MODEL 2
REMARK VINA RESULT:      -6.5      4.564      5.811
REMARK  Name = 
REMARK  14 active torsions:
REMARK  status: ('A' for Active; 'I' for Inactive)
REMARK    1  A    between atoms: C_1  and  C_2
REMARK    2  A    between atoms: C_2  and  C_11
REMARK    3  A    between atoms: C_3  and  C_4
REMARK    4  A    between atoms: C_4  and  S_5
REMARK    5  A    between atoms: S_5  and  C_6
REMARK    6  A    between atoms: C_6  and  C_7
REMARK    7  A    between atoms: C_7  and  C_8
REMARK    8  A    between atoms: C_8  and  O_10
REMARK    9  A    between atoms: C_11  and  C_12
REMARK   10  A    between atoms: C_12  and  N_13
REMARK   11  A    between atoms: C_15  and  C_16
REMARK   12  A    between atoms: C_16  and  C_17
REMARK   13  A    between atoms: C_17  and  O_18
REMARK   14  A    between atoms: O_18  and  C_19
REMARK                            x       y       z     vdW  Elec       q    Type
REMARK                         _______ _______ _______ _____ _____    ______ ____
ROOT
ATOM      1  N   UNL     1       3.770   2.860  18.597  0.00  0.00    +0.000 N 
ATOM      2  C   UNL     1       4.078   3.797  17.665  0.00  0.00    +0.000 A 
ATOM      3  C   UNL     1       5.287   4.302  18.082  0.00  0.00    +0.000 A 
ATOM      4  N   UNL     1       5.602   3.756  19.298  0.00  0.00    +0.000 NA
ATOM      5  N   UNL     1       4.652   2.881  19.612  0.00  0.00    +0.000 NA
ENDROOT
BRANCH   1   6
ATOM      6  C   UNL     1       2.680   1.905  18.573  0.00  0.00    +0.000 C 
BRANCH   6   7
ATOM      7  C   UNL     1       1.331   2.539  18.944  0.00  0.00    +0.000 C 
BRANCH   7   9
ATOM      8  C   UNL     1       1.377   2.814  21.483  0.00  0.00    +0.000 C 
ATOM      9  C   UNL     1       1.377   3.480  20.133  0.00  0.00    +0.000 C 
ATOM     10  C   UNL     1       1.500   4.808  19.937  0.00  0.00    +0.000 C 
BRANCH  10  11
ATOM     11  C   UNL     1       1.553   5.876  20.989  0.00  0.00    +0.000 C 
BRANCH  11  12
ATOM     12  S   UNL     1       1.857   7.507  20.236  0.00  0.00    +0.000 S 
BRANCH  12  13
ATOM     13  C   UNL     1       2.424   6.974  18.586  0.00  0.00    +0.000 C 
BRANCH  13  14
ATOM     14  C   UNL     1       2.867   8.195  17.789  0.00  0.00    +0.000 C 
BRANCH  14  15
ATOM     15  C   UNL     1       1.794   9.252  17.809  0.00  0.00    +0.000 C 
ATOM     16  O   UNL     1       0.611   9.062  17.573  0.00  0.00    +0.000 OA
BRANCH  15  17
ATOM     17  O   UNL     1       2.280  10.473  18.132  0.00  0.00    +0.000 OA
ATOM     18  H   UNL     1       3.021  10.767  17.567  0.00  0.00    +0.000 HD
ENDBRANCH  15  17
ENDBRANCH  14  15
ENDBRANCH  13  14
ENDBRANCH  12  13
ENDBRANCH  11  12
ENDBRANCH  10  11
ENDBRANCH   7   9
ENDBRANCH   6   7
ENDBRANCH   1   6
BRANCH   3  19
ATOM     19  C   UNL     1       6.175   5.248  17.366  0.00  0.00    +0.000 C 
BRANCH  19  20
ATOM     20  C   UNL     1       7.484   4.589  16.906  0.00  0.00    +0.000 C 
BRANCH  20  21
ATOM     21  O   UNL     1       7.364   4.142  15.550  0.00  0.00    +0.000 OA
BRANCH  21  22
ATOM     22  C   UNL     1       6.575   5.009  14.739  0.00  0.00    +0.000 C 
ATOM     23  C   UNL     1       5.551   4.172  13.967  0.00  0.00    +0.000 C 
ATOM     24  C   UNL     1       6.204   3.367  12.847  0.00  0.00    +0.000 C 
ATOM     25  C   UNL     1       7.069   4.271  11.980  0.00  0.00    +0.000 C 
ATOM     26  C   UNL     1       8.023   5.095  12.835  0.00  0.00    +0.000 C 
ATOM     27  O   UNL     1       7.339   5.822  13.852  0.00  0.00    +0.000 OA
ENDBRANCH  21  22
ENDBRANCH  20  21
ENDBRANCH  19  20
ENDBRANCH   3  19
TORSDOF 13
ENDMDL
MODEL 3
REMARK VINA RESULT:      -6.2      2.524      3.277
REMARK  Name = 
REMARK  14 active torsions:
REMARK  status: ('A' for Active; 'I' for Inactive)
REMARK    1  A    between atoms: C_1  and  C_2
REMARK    2  A    between atoms: C_2  and  C_11
REMARK    3  A    between atoms: C_3  and  C_4
REMARK    4  A    between atoms: C_4  and  S_5
REMARK    5  A    between atoms: S_5  and  C_6
REMARK    6  A    between atoms: C_6  and  C_7
REMARK    7  A    between atoms: C_7  and  C_8
REMARK    8  A    between atoms: C_8  and  O_10
REMARK    9  A    between atoms: C_11  and  C_12
REMARK   10  A    between atoms: C_12  and  N_13
REMARK   11  A    between atoms: C_15  and  C_16
REMARK   12  A    between atoms: C_16  and  C_17
REMARK   13  A    between atoms: C_17  and  O_18
REMARK   14  A    between atoms: O_18  and  C_19
REMARK                            x       y       z     vdW  Elec       q    Type
REMARK                         _______ _______ _______ _____ _____    ______ ____
ROOT
ATOM      1  N   UNL     1       7.195   5.292  17.210  0.00  0.00    +0.000 N 
ATOM      2  C   UNL     1       7.457   6.614  17.048  0.00  0.00    +0.000 A 
ATOM      3  C   UNL     1       7.950   7.011  18.269  0.00  0.00    +0.000 A 
ATOM      4  N   UNL     1       7.851   5.968  19.151  0.00  0.00    +0.000 NA
ATOM      5  N   UNL     1       7.370   4.919  18.491  0.00  0.00    +0.000 NA
ENDROOT
BRANCH   1   6
ATOM      6  C   UNL     1       6.805   4.331  16.198  0.00  0.00    +0.000 C 
BRANCH   6   7
ATOM      7  C   UNL     1       5.326   4.458  15.803  0.00  0.00    +0.000 C 
BRANCH   7   9
ATOM      8  C   UNL     1       4.274   2.838  17.474  0.00  0.00    +0.000 C 
ATOM      9  C   UNL     1       4.344   4.243  16.938  0.00  0.00    +0.000 C 
ATOM     10  C   UNL     1       3.672   5.291  17.456  0.00  0.00    +0.000 C 
BRANCH  10  11
ATOM     11  C   UNL     1       2.665   5.260  18.568  0.00  0.00    +0.000 C 
BRANCH  11  12
ATOM     12  S   UNL     1       1.271   4.167  18.142  0.00  0.00    +0.000 S 
BRANCH  12  13
ATOM     13  C   UNL     1       0.693   3.750  19.821  0.00  0.00    +0.000 C 
BRANCH  13  14
ATOM     14  C   UNL     1       1.787   4.084  20.827  0.00  0.00    +0.000 C 
BRANCH  14  15
ATOM     15  C   UNL     1       2.333   2.824  21.448  0.00  0.00    +0.000 C 
ATOM     16  O   UNL     1       1.803   2.197  22.352  0.00  0.00    +0.000 OA
BRANCH  15  17
ATOM     17  O   UNL     1       3.501   2.436  20.885  0.00  0.00    +0.000 OA
ATOM     18  H   UNL     1       3.637   2.778  19.980  0.00  0.00    +0.000 HD
ENDBRANCH  15  17
ENDBRANCH  14  15
ENDBRANCH  13  14
ENDBRANCH  12  13
ENDBRANCH  11  12
ENDBRANCH  10  11
ENDBRANCH   7   9
ENDBRANCH   6   7
ENDBRANCH   1   6
BRANCH   3  19
ATOM     19  C   UNL     1       8.546   8.320  18.629  0.00  0.00    +0.000 C 
BRANCH  19  20
ATOM     20  C   UNL     1       8.032   9.462  17.740  0.00  0.00    +0.000 C 
BRANCH  20  21
ATOM     21  O   UNL     1       8.471  10.725  18.254  0.00  0.00    +0.000 OA
BRANCH  21  22
ATOM     22  C   UNL     1       9.849  10.736  18.618  0.00  0.00    +0.000 C 
ATOM     23  C   UNL     1       9.998  11.423  19.979  0.00  0.00    +0.000 C 
ATOM     24  C   UNL     1       9.790  12.932  19.880  0.00  0.00    +0.000 C 
ATOM     25  C   UNL     1      10.661  13.515  18.777  0.00  0.00    +0.000 C 
ATOM     26  C   UNL     1      10.481  12.743  17.475  0.00  0.00    +0.000 C 
ATOM     27  O   UNL     1      10.697  11.345  17.647  0.00  0.00    +0.000 OA
ENDBRANCH  21  22
ENDBRANCH  20  21
ENDBRANCH  19  20
ENDBRANCH   3  19
TORSDOF 13
ENDMDL
MODEL 4
REMARK VINA RESULT:      -6.2      3.359      8.499
REMARK  Name = 
REMARK  14 active torsions:
REMARK  status: ('A' for Active; 'I' for Inactive)
REMARK    1  A    between atoms: C_1  and  C_2
REMARK    2  A    between atoms: C_2  and  C_11
REMARK    3  A    between atoms: C_3  and  C_4
REMARK    4  A    between atoms: C_4  and  S_5
REMARK    5  A    between atoms: S_5  and  C_6
REMARK    6  A    between atoms: C_6  and  C_7
REMARK    7  A    between atoms: C_7  and  C_8
REMARK    8  A    between atoms: C_8  and  O_10
REMARK    9  A    between atoms: C_11  and  C_12
REMARK   10  A    between atoms: C_12  and  N_13
REMARK   11  A    between atoms: C_15  and  C_16
REMARK   12  A    between atoms: C_16  and  C_17
REMARK   13  A    between atoms: C_17  and  O_18
REMARK   14  A    between atoms: O_18  and  C_19
REMARK                            x       y       z     vdW  Elec       q    Type
REMARK                         _______ _______ _______ _____ _____    ______ ____
ROOT
ATOM      1  N   UNL     1       7.614   7.418  17.987  0.00  0.00    +0.000 N 
ATOM      2  C   UNL     1       7.312   6.149  18.360  0.00  0.00    +0.000 A 
ATOM      3  C   UNL     1       6.527   5.675  17.336  0.00  0.00    +0.000 A 
ATOM      4  N   UNL     1       6.278   6.694  16.456  0.00  0.00    +0.000 NA
ATOM      5  N   UNL     1       6.941   7.768  16.876  0.00  0.00    +0.000 NA
ENDROOT
BRANCH   1   6
ATOM      6  C   UNL     1       8.544   8.334  18.617  0.00  0.00    +0.000 C 
BRANCH   6   7
ATOM      7  C   UNL     1       8.524   9.730  17.975  0.00  0.00    +0.000 C 
BRANCH   7   9
ATOM      8  C   UNL     1       9.863  11.904  17.920  0.00  0.00    +0.000 C 
ATOM      9  C   UNL     1       9.271  10.797  18.751  0.00  0.00    +0.000 C 
ATOM     10  C   UNL     1       9.294  10.760  20.099  0.00  0.00    +0.000 C 
BRANCH  10  11
ATOM     11  C   UNL     1       9.985  11.722  21.019  0.00  0.00    +0.000 C 
BRANCH  11  12
ATOM     12  S   UNL     1       8.789  12.887  21.747  0.00  0.00    +0.000 S 
BRANCH  12  13
ATOM     13  C   UNL     1       7.909  11.750  22.871  0.00  0.00    +0.000 C 
BRANCH  13  14
ATOM     14  C   UNL     1       7.466  12.514  24.112  0.00  0.00    +0.000 C 
BRANCH  14  15
ATOM     15  C   UNL     1       6.016  12.233  24.411  0.00  0.00    +0.000 C 
ATOM     16  O   UNL     1       5.540  11.128  24.620  0.00  0.00    +0.000 OA
BRANCH  15  17
ATOM     17  O   UNL     1       5.266  13.359  24.432  0.00  0.00    +0.000 OA
ATOM     18  H   UNL     1       5.574  14.051  23.815  0.00  0.00    +0.000 HD
ENDBRANCH  15  17
ENDBRANCH  14  15
ENDBRANCH  13  14
ENDBRANCH  12  13
ENDBRANCH  11  12
ENDBRANCH  10  11
ENDBRANCH   7   9
ENDBRANCH   6   7
ENDBRANCH   1   6
BRANCH   3  19
ATOM     19  C   UNL     1       6.033   4.292  17.131  0.00  0.00    +0.000 C 
BRANCH  19  20
ATOM     20  C   UNL     1       4.520   4.169  17.364  0.00  0.00    +0.000 C 
BRANCH  20  21
ATOM     21  O   UNL     1       4.126   4.965  18.488  0.00  0.00    +0.000 OA
BRANCH  21  22
ATOM     22  C   UNL     1       2.827   5.535  18.346  0.00  0.00    +0.000 C 
ATOM     23  C   UNL     1       2.399   6.138  19.687  0.00  0.00    +0.000 C 
ATOM     24  C   UNL     1       2.049   5.060  20.710  0.00  0.00    +0.000 C 
ATOM     25  C   UNL     1       1.059   4.069  20.114  0.00  0.00    +0.000 C 
ATOM     26  C   UNL     1       1.545   3.557  18.764  0.00  0.00    +0.000 C 
ATOM     27  O   UNL     1       1.845   4.621  17.864  0.00  0.00    +0.000 OA
ENDBRANCH  21  22
ENDBRANCH  20  21
ENDBRANCH  19  20
ENDBRANCH   3  19
TORSDOF 13
ENDMDL
MODEL 5
REMARK VINA RESULT:      -6.2      3.605      9.608
REMARK  Name = 
REMARK  14 active torsions:
REMARK  status: ('A' for Active; 'I' for Inactive)
REMARK    1  A    between atoms: C_1  and  C_2
REMARK    2  A    between atoms: C_2  and  C_11
REMARK    3  A    between atoms: C_3  and  C_4
REMARK    4  A    between atoms: C_4  and  S_5
REMARK    5  A    between atoms: S_5  and  C_6
REMARK    6  A    between atoms: C_6  and  C_7
REMARK    7  A    between atoms: C_7  and  C_8
REMARK    8  A    between atoms: C_8  and  O_10
REMARK    9  A    between atoms: C_11  and  C_12
REMARK   10  A    between atoms: C_12  and  N_13
REMARK   11  A    between atoms: C_15  and  C_16
REMARK   12  A    between atoms: C_16  and  C_17
REMARK   13  A    between atoms: C_17  and  O_18
REMARK   14  A    between atoms: O_18  and  C_19
REMARK                            x       y       z     vdW  Elec       q    Type
REMARK                         _______ _______ _______ _____ _____    ______ ____
ROOT
ATOM      1  N   UNL     1       7.534   7.496  17.519  0.00  0.00    +0.000 N 
ATOM      2  C   UNL     1       6.209   7.249  17.681  0.00  0.00    +0.000 A 
ATOM      3  C   UNL     1       5.935   6.267  16.759  0.00  0.00    +0.000 A 
ATOM      4  N   UNL     1       7.050   6.049  15.995  0.00  0.00    +0.000 NA
ATOM      5  N   UNL     1       8.024   6.822  16.463  0.00  0.00    +0.000 NA
ENDROOT
BRANCH   1   6
ATOM      6  C   UNL     1       8.391   8.330  18.338  0.00  0.00    +0.000 C 
BRANCH   6   7
ATOM      7  C   UNL     1       8.307   9.815  17.956  0.00  0.00    +0.000 C 
BRANCH   7   9
ATOM      8  C   UNL     1       9.479  10.607  20.084  0.00  0.00    +0.000 C 
ATOM      9  C   UNL     1       9.372  10.694  18.584  0.00  0.00    +0.000 C 
ATOM     10  C   UNL     1      10.200  11.414  17.801  0.00  0.00    +0.000 C 
BRANCH  10  11
ATOM     11  C   UNL     1      11.296  12.335  18.250  0.00  0.00    +0.000 C 
BRANCH  11  12
ATOM     12  S   UNL     1      11.844  13.399  16.877  0.00  0.00    +0.000 S 
BRANCH  12  13
ATOM     13  C   UNL     1      11.832  15.014  17.725  0.00  0.00    +0.000 C 
BRANCH  13  14
ATOM     14  C   UNL     1      10.692  15.862  17.175  0.00  0.00    +0.000 C 
BRANCH  14  15
ATOM     15  C   UNL     1       9.578  15.963  18.185  0.00  0.00    +0.000 C 
ATOM     16  O   UNL     1       9.430  15.226  19.147  0.00  0.00    +0.000 OA
BRANCH  15  17
ATOM     17  O   UNL     1       8.733  16.986  17.920  0.00  0.00    +0.000 OA
ATOM     18  H   UNL     1       7.789  16.758  18.023  0.00  0.00    +0.000 HD
ENDBRANCH  15  17
ENDBRANCH  14  15
ENDBRANCH  13  14
ENDBRANCH  12  13
ENDBRANCH  11  12
ENDBRANCH  10  11
ENDBRANCH   7   9
ENDBRANCH   6   7
ENDBRANCH   1   6
BRANCH   3  19
ATOM     19  C   UNL     1       4.677   5.500  16.591  0.00  0.00    +0.000 C 
BRANCH  19  20
ATOM     20  C   UNL     1       4.193   4.872  17.906  0.00  0.00    +0.000 C 
BRANCH  20  21
ATOM     21  O   UNL     1       3.169   3.905  17.646  0.00  0.00    +0.000 OA
BRANCH  21  22
ATOM     22  C   UNL     1       1.861   4.370  17.969  0.00  0.00    +0.000 C 
ATOM     23  C   UNL     1       1.900   5.055  19.338  0.00  0.00    +0.000 C 
ATOM     24  C   UNL     1       2.056   4.048  20.474  0.00  0.00    +0.000 C 
ATOM     25  C   UNL     1       1.017   2.943  20.347  0.00  0.00    +0.000 C 
ATOM     26  C   UNL     1       1.019   2.352  18.943  0.00  0.00    +0.000 C 
ATOM     27  O   UNL     1       0.863   3.352  17.939  0.00  0.00    +0.000 OA
ENDBRANCH  21  22
ENDBRANCH  20  21
ENDBRANCH  19  20
ENDBRANCH   3  19
TORSDOF 13
ENDMDL
MODEL 6
REMARK VINA RESULT:      -6.1      3.569      9.417
REMARK  Name = 
REMARK  14 active torsions:
REMARK  status: ('A' for Active; 'I' for Inactive)
REMARK    1  A    between atoms: C_1  and  C_2
REMARK    2  A    between atoms: C_2  and  C_11
REMARK    3  A    between atoms: C_3  and  C_4
REMARK    4  A    between atoms: C_4  and  S_5
REMARK    5  A    between atoms: S_5  and  C_6
REMARK    6  A    between atoms: C_6  and  C_7
REMARK    7  A    between atoms: C_7  and  C_8
REMARK    8  A    between atoms: C_8  and  O_10
REMARK    9  A    between atoms: C_11  and  C_12
REMARK   10  A    between atoms: C_12  and  N_13
REMARK   11  A    between atoms: C_15  and  C_16
REMARK   12  A    between atoms: C_16  and  C_17
REMARK   13  A    between atoms: C_17  and  O_18
REMARK   14  A    between atoms: O_18  and  C_19
REMARK                            x       y       z     vdW  Elec       q    Type
REMARK                         _______ _______ _______ _____ _____    ______ ____
ROOT
ATOM      1  N   UNL     1       7.242   7.908  17.341  0.00  0.00    +0.000 N 
ATOM      2  C   UNL     1       6.083   7.259  17.624  0.00  0.00    +0.000 A 
ATOM      3  C   UNL     1       6.293   5.980  17.166  0.00  0.00    +0.000 A 
ATOM      4  N   UNL     1       7.498   5.931  16.518  0.00  0.00    +0.000 NA
ATOM      5  N   UNL     1       8.066   7.129  16.619  0.00  0.00    +0.000 NA
ENDROOT
BRANCH   1   6
ATOM      6  C   UNL     1       7.636   9.243  17.745  0.00  0.00    +0.000 C 
BRANCH   6   7
ATOM      7  C   UNL     1       8.771   9.234  18.780  0.00  0.00    +0.000 C 
BRANCH   7   9
ATOM      8  C   UNL     1      10.335  10.936  17.692  0.00  0.00    +0.000 C 
ATOM      9  C   UNL     1       9.531  10.542  18.902  0.00  0.00    +0.000 C 
ATOM     10  C   UNL     1       9.388  11.304  20.004  0.00  0.00    +0.000 C 
BRANCH  10  11
ATOM     11  C   UNL     1      10.063  12.613  20.293  0.00  0.00    +0.000 C 
BRANCH  11  12
ATOM     12  S   UNL     1       9.107  13.997  19.594  0.00  0.00    +0.000 S 
BRANCH  12  13
ATOM     13  C   UNL     1      10.152  14.384  18.149  0.00  0.00    +0.000 C 
BRANCH  13  14
ATOM     14  C   UNL     1      10.815  15.740  18.357  0.00  0.00    +0.000 C 
BRANCH  14  15
ATOM     15  C   UNL     1      10.564  16.634  17.171  0.00  0.00    +0.000 C 
ATOM     16  O   UNL     1      10.217  17.803  17.230  0.00  0.00    +0.000 OA
BRANCH  15  17
ATOM     17  O   UNL     1      10.773  16.000  15.994  0.00  0.00    +0.000 OA
ATOM     18  H   UNL     1      10.435  15.084  15.972  0.00  0.00    +0.000 HD
ENDBRANCH  15  17
ENDBRANCH  14  15
ENDBRANCH  13  14
ENDBRANCH  12  13
ENDBRANCH  11  12
ENDBRANCH  10  11
ENDBRANCH   7   9
ENDBRANCH   6   7
ENDBRANCH   1   6
BRANCH   3  19
ATOM     19  C   UNL     1       5.424   4.793  17.346  0.00  0.00    +0.000 C 
BRANCH  19  20
ATOM     20  C   UNL     1       5.357   4.331  18.810  0.00  0.00    +0.000 C 
BRANCH  20  21
ATOM     21  O   UNL     1       4.157   3.585  19.039  0.00  0.00    +0.000 OA
BRANCH  21  22
ATOM     22  C   UNL     1       2.974   4.371  18.921  0.00  0.00    +0.000 C 
ATOM     23  C   UNL     1       2.625   4.954  20.294  0.00  0.00    +0.000 C 
ATOM     24  C   UNL     1       2.081   3.889  21.243  0.00  0.00    +0.000 C 
ATOM     25  C   UNL     1       0.953   3.115  20.576  0.00  0.00    +0.000 C 
ATOM     26  C   UNL     1       1.374   2.612  19.201  0.00  0.00    +0.000 C 
ATOM     27  O   UNL     1       1.864   3.664  18.373  0.00  0.00    +0.000 OA
ENDBRANCH  21  22
ENDBRANCH  20  21
ENDBRANCH  19  20
ENDBRANCH   3  19
TORSDOF 13
ENDMDL
MODEL 7
REMARK VINA RESULT:      -6.1      3.531      9.436
REMARK  Name = 
REMARK  14 active torsions:
REMARK  status: ('A' for Active; 'I' for Inactive)
REMARK    1  A    between atoms: C_1  and  C_2
REMARK    2  A    between atoms: C_2  and  C_11
REMARK    3  A    between atoms: C_3  and  C_4
REMARK    4  A    between atoms: C_4  and  S_5
REMARK    5  A    between atoms: S_5  and  C_6
REMARK    6  A    between atoms: C_6  and  C_7
REMARK    7  A    between atoms: C_7  and  C_8
REMARK    8  A    between atoms: C_8  and  O_10
REMARK    9  A    between atoms: C_11  and  C_12
REMARK   10  A    between atoms: C_12  and  N_13
REMARK   11  A    between atoms: C_15  and  C_16
REMARK   12  A    between atoms: C_16  and  C_17
REMARK   13  A    between atoms: C_17  and  O_18
REMARK   14  A    between atoms: O_18  and  C_19
REMARK                            x       y       z     vdW  Elec       q    Type
REMARK                         _______ _______ _______ _____ _____    ______ ____
ROOT
ATOM      1  N   UNL     1       7.547   7.372  17.838  0.00  0.00    +0.000 N 
ATOM      2  C   UNL     1       6.793   6.647  16.973  0.00  0.00    +0.000 A 
ATOM      3  C   UNL     1       6.661   5.424  17.587  0.00  0.00    +0.000 A 
ATOM      4  N   UNL     1       7.431   5.407  18.719  0.00  0.00    +0.000 NA
ATOM      5  N   UNL     1       7.985   6.608  18.854  0.00  0.00    +0.000 NA
ENDROOT
BRANCH   1   6
ATOM      6  C   UNL     1       7.864   8.785  17.774  0.00  0.00    +0.000 C 
BRANCH   6   7
ATOM      7  C   UNL     1       8.880   9.211  18.844  0.00  0.00    +0.000 C 
BRANCH   7   9
ATOM      8  C   UNL     1       8.633  11.486  17.710  0.00  0.00    +0.000 C 
ATOM      9  C   UNL     1       9.334  10.655  18.751  0.00  0.00    +0.000 C 
ATOM     10  C   UNL     1      10.241  11.135  19.626  0.00  0.00    +0.000 C 
BRANCH  10  11
ATOM     11  C   UNL     1      10.803  12.524  19.675  0.00  0.00    +0.000 C 
BRANCH  11  12
ATOM     12  S   UNL     1      12.331  12.634  18.689  0.00  0.00    +0.000 S 
BRANCH  12  13
ATOM     13  C   UNL     1      11.671  13.458  17.202  0.00  0.00    +0.000 C 
BRANCH  13  14
ATOM     14  C   UNL     1      12.245  14.867  17.111  0.00  0.00    +0.000 C 
BRANCH  14  15
ATOM     15  C   UNL     1      11.148  15.890  17.246  0.00  0.00    +0.000 C 
ATOM     16  O   UNL     1       9.951  15.645  17.254  0.00  0.00    +0.000 OA
BRANCH  15  17
ATOM     17  O   UNL     1      11.629  17.149  17.369  0.00  0.00    +0.000 OA
ATOM     18  H   UNL     1      10.960  17.845  17.223  0.00  0.00    +0.000 HD
ENDBRANCH  15  17
ENDBRANCH  14  15
ENDBRANCH  13  14
ENDBRANCH  12  13
ENDBRANCH  11  12
ENDBRANCH  10  11
ENDBRANCH   7   9
ENDBRANCH   6   7
ENDBRANCH   1   6
BRANCH   3  19
ATOM     19  C   UNL     1       5.810   4.283  17.171  0.00  0.00    +0.000 C 
BRANCH  19  20
ATOM     20  C   UNL     1       4.314   4.630  17.188  0.00  0.00    +0.000 C 
BRANCH  20  21
ATOM     21  O   UNL     1       3.932   5.112  18.482  0.00  0.00    +0.000 OA
BRANCH  21  22
ATOM     22  C   UNL     1       2.602   5.623  18.522  0.00  0.00    +0.000 C 
ATOM     23  C   UNL     1       2.238   5.950  19.973  0.00  0.00    +0.000 C 
ATOM     24  C   UNL     1       2.009   4.689  20.801  0.00  0.00    +0.000 C 
ATOM     25  C   UNL     1       1.027   3.765  20.094  0.00  0.00    +0.000 C 
ATOM     26  C   UNL     1       1.444   3.531  18.647  0.00  0.00    +0.000 C 
ATOM     27  O   UNL     1       1.633   4.754  17.939  0.00  0.00    +0.000 OA
ENDBRANCH  21  22
ENDBRANCH  20  21
ENDBRANCH  19  20
ENDBRANCH   3  19
TORSDOF 13
ENDMDL
MODEL 8
REMARK VINA RESULT:      -6.1      3.636      9.774
REMARK  Name = 
REMARK  14 active torsions:
REMARK  status: ('A' for Active; 'I' for Inactive)
REMARK    1  A    between atoms: C_1  and  C_2
REMARK    2  A    between atoms: C_2  and  C_11
REMARK    3  A    between atoms: C_3  and  C_4
REMARK    4  A    between atoms: C_4  and  S_5
REMARK    5  A    between atoms: S_5  and  C_6
REMARK    6  A    between atoms: C_6  and  C_7
REMARK    7  A    between atoms: C_7  and  C_8
REMARK    8  A    between atoms: C_8  and  O_10
REMARK    9  A    between atoms: C_11  and  C_12
REMARK   10  A    between atoms: C_12  and  N_13
REMARK   11  A    between atoms: C_15  and  C_16
REMARK   12  A    between atoms: C_16  and  C_17
REMARK   13  A    between atoms: C_17  and  O_18
REMARK   14  A    between atoms: O_18  and  C_19
REMARK                            x       y       z     vdW  Elec       q    Type
REMARK                         _______ _______ _______ _____ _____    ______ ____
ROOT
ATOM      1  N   UNL     1       8.052   8.119  17.934  0.00  0.00    +0.000 N 
ATOM      2  C   UNL     1       7.224   7.464  17.081  0.00  0.00    +0.000 A 
ATOM      3  C   UNL     1       7.005   6.251  17.691  0.00  0.00    +0.000 A 
ATOM      4  N   UNL     1       7.795   6.164  18.806  0.00  0.00    +0.000 NA
ATOM      5  N   UNL     1       8.448   7.314  18.936  0.00  0.00    +0.000 NA
ENDROOT
BRANCH   1   6
ATOM      6  C   UNL     1       8.482   9.502  17.870  0.00  0.00    +0.000 C 
BRANCH   6   7
ATOM      7  C   UNL     1       8.885  10.058  19.244  0.00  0.00    +0.000 C 
BRANCH   7   9
ATOM      8  C   UNL     1      10.456  11.583  20.560  0.00  0.00    +0.000 C 
ATOM      9  C   UNL     1      10.030  11.053  19.217  0.00  0.00    +0.000 C 
ATOM     10  C   UNL     1      10.647  11.339  18.053  0.00  0.00    +0.000 C 
BRANCH  10  11
ATOM     11  C   UNL     1      11.782  12.297  17.843  0.00  0.00    +0.000 C 
BRANCH  11  12
ATOM     12  S   UNL     1      11.276  13.664  16.751  0.00  0.00    +0.000 S 
BRANCH  12  13
ATOM     13  C   UNL     1      11.893  15.075  17.731  0.00  0.00    +0.000 C 
BRANCH  13  14
ATOM     14  C   UNL     1      11.906  14.694  19.206  0.00  0.00    +0.000 C 
BRANCH  14  15
ATOM     15  C   UNL     1      10.735  15.319  19.920  0.00  0.00    +0.000 C 
ATOM     16  O   UNL     1       9.866  15.995  19.392  0.00  0.00    +0.000 OA
BRANCH  15  17
ATOM     17  O   UNL     1      10.735  15.046  21.245  0.00  0.00    +0.000 OA
ATOM     18  H   UNL     1       9.842  14.982  21.636  0.00  0.00    +0.000 HD
ENDBRANCH  15  17
ENDBRANCH  14  15
ENDBRANCH  13  14
ENDBRANCH  12  13
ENDBRANCH  11  12
ENDBRANCH  10  11
ENDBRANCH   7   9
ENDBRANCH   6   7
ENDBRANCH   1   6
BRANCH   3  19
ATOM     19  C   UNL     1       6.055   5.187  17.288  0.00  0.00    +0.000 C 
BRANCH  19  20
ATOM     20  C   UNL     1       4.692   5.322  17.983  0.00  0.00    +0.000 C 
BRANCH  20  21
ATOM     21  O   UNL     1       4.023   4.056  18.014  0.00  0.00    +0.000 OA
BRANCH  21  22
ATOM     22  C   UNL     1       2.675   4.120  17.555  0.00  0.00    +0.000 C 
ATOM     23  C   UNL     1       1.886   5.070  18.461  0.00  0.00    +0.000 C 
ATOM     24  C   UNL     1       1.617   4.456  19.832  0.00  0.00    +0.000 C 
ATOM     25  C   UNL     1       1.006   3.071  19.680  0.00  0.00    +0.000 C 
ATOM     26  C   UNL     1       1.832   2.212  18.729  0.00  0.00    +0.000 C 
ATOM     27  O   UNL     1       2.034   2.850  17.471  0.00  0.00    +0.000 OA
ENDBRANCH  21  22
ENDBRANCH  20  21
ENDBRANCH  19  20
ENDBRANCH   3  19
TORSDOF 13
ENDMDL
MODEL 9
REMARK VINA RESULT:      -6.1      1.475      1.910
REMARK  Name = 
REMARK  14 active torsions:
REMARK  status: ('A' for Active; 'I' for Inactive)
REMARK    1  A    between atoms: C_1  and  C_2
REMARK    2  A    between atoms: C_2  and  C_11
REMARK    3  A    between atoms: C_3  and  C_4
REMARK    4  A    between atoms: C_4  and  S_5
REMARK    5  A    between atoms: S_5  and  C_6
REMARK    6  A    between atoms: C_6  and  C_7
REMARK    7  A    between atoms: C_7  and  C_8
REMARK    8  A    between atoms: C_8  and  O_10
REMARK    9  A    between atoms: C_11  and  C_12
REMARK   10  A    between atoms: C_12  and  N_13
REMARK   11  A    between atoms: C_15  and  C_16
REMARK   12  A    between atoms: C_16  and  C_17
REMARK   13  A    between atoms: C_17  and  O_18
REMARK   14  A    between atoms: O_18  and  C_19
REMARK                            x       y       z     vdW  Elec       q    Type
REMARK                         _______ _______ _______ _____ _____    ______ ____
ROOT
ATOM      1  N   UNL     1       7.096   6.027  17.466  0.00  0.00    +0.000 N 
ATOM      2  C   UNL     1       7.985   6.579  18.331  0.00  0.00    +0.000 A 
ATOM      3  C   UNL     1       7.956   7.920  18.030  0.00  0.00    +0.000 A 
ATOM      4  N   UNL     1       7.165   8.114  16.930  0.00  0.00    +0.000 NA
ATOM      5  N   UNL     1       6.653   6.938  16.582  0.00  0.00    +0.000 NA
ENDROOT
BRANCH   1   6
ATOM      6  C   UNL     1       6.609   4.661  17.441  0.00  0.00    +0.000 C 
BRANCH   6   7
ATOM      7  C   UNL     1       5.783   4.307  18.687  0.00  0.00    +0.000 C 
BRANCH   7   9
ATOM      8  C   UNL     1       3.990   3.776  16.947  0.00  0.00    +0.000 C 
ATOM      9  C   UNL     1       4.392   3.777  18.398  0.00  0.00    +0.000 C 
ATOM     10  C   UNL     1       3.643   3.268  19.397  0.00  0.00    +0.000 C 
BRANCH  10  11
ATOM     11  C   UNL     1       2.254   2.711  19.293  0.00  0.00    +0.000 C 
BRANCH  11  12
ATOM     12  S   UNL     1       1.078   3.736  20.233  0.00  0.00    +0.000 S 
BRANCH  12  13
ATOM     13  C   UNL     1       2.211   5.049  20.800  0.00  0.00    +0.000 C 
BRANCH  13  14
ATOM     14  C   UNL     1       1.548   6.406  20.600  0.00  0.00    +0.000 C 
BRANCH  14  15
ATOM     15  C   UNL     1       2.263   7.186  19.527  0.00  0.00    +0.000 C 
ATOM     16  O   UNL     1       3.220   6.785  18.882  0.00  0.00    +0.000 OA
BRANCH  15  17
ATOM     17  O   UNL     1       1.724   8.412  19.334  0.00  0.00    +0.000 OA
ATOM     18  H   UNL     1       1.804   8.740  18.418  0.00  0.00    +0.000 HD
ENDBRANCH  15  17
ENDBRANCH  14  15
ENDBRANCH  13  14
ENDBRANCH  12  13
ENDBRANCH  11  12
ENDBRANCH  10  11
ENDBRANCH   7   9
ENDBRANCH   6   7
ENDBRANCH   1   6
BRANCH   3  19
ATOM     19  C   UNL     1       8.613   9.032  18.759  0.00  0.00    +0.000 C 
BRANCH  19  20
ATOM     20  C   UNL     1       8.767  10.291  17.893  0.00  0.00    +0.000 C 
BRANCH  20  21
ATOM     21  O   UNL     1       9.356  11.349  18.659  0.00  0.00    +0.000 OA
BRANCH  21  22
ATOM     22  C   UNL     1      10.229  12.178  17.895  0.00  0.00    +0.000 C 
ATOM     23  C   UNL     1      11.673  11.721  18.120  0.00  0.00    +0.000 C 
ATOM     24  C   UNL     1      12.179  12.099  19.510  0.00  0.00    +0.000 C 
ATOM     25  C   UNL     1      11.932  13.577  19.777  0.00  0.00    +0.000 C 
ATOM     26  C   UNL     1      10.484  13.949  19.485  0.00  0.00    +0.000 C 
ATOM     27  O   UNL     1      10.088  13.570  18.169  0.00  0.00    +0.000 OA
ENDBRANCH  21  22
ENDBRANCH  20  21
ENDBRANCH  19  20
ENDBRANCH   3  19
TORSDOF 13
ENDMDL
