MODEL 1
REMARK VINA RESULT:      -6.9      0.000      0.000
REMARK  Name = 
REMARK  9 active torsions:
REMARK  status: ('A' for Active; 'I' for Inactive)
REMARK    1  A    between atoms: C_1  and  C_2
REMARK    2  A    between atoms: C_2  and  C_3
REMARK    3  A    between atoms: C_3  and  C_26
REMARK    4  A    between atoms: C_4  and  C_5
REMARK    5  A    between atoms: C_4  and  C_11
REMARK    6  A    between atoms: C_14  and  O_15
REMARK    7  A    between atoms: O_15  and  C_16
REMARK    8  A    between atoms: C_16  and  C_17
REMARK    9  A    between atoms: C_17  and  N_18
REMARK                            x       y       z     vdW  Elec       q    Type
REMARK                         _______ _______ _______ _____ _____    ______ ____
ROOT
ATOM      1  C   UNL     1      -0.500  13.614  19.709  0.00  0.00    +0.000 C 
ATOM      2  C   UNL     1      -1.066  12.392  19.504  0.00  0.00    +0.000 C 
ENDROOT
BRANCH   2   3
ATOM      3  C   UNL     1      -2.526  12.175  19.384  0.00  0.00    +0.000 A 
ATOM      4  C   UNL     1      -3.388  12.657  20.377  0.00  0.00    +0.000 A 
ATOM      5  C   UNL     1      -4.771  12.530  20.229  0.00  0.00    +0.000 A 
ATOM      6  C   UNL     1      -5.301  11.928  19.088  0.00  0.00    +0.000 A 
ATOM      7  C   UNL     1      -4.450  11.457  18.089  0.00  0.00    +0.000 A 
ATOM      8  C   UNL     1      -3.070  11.591  18.231  0.00  0.00    +0.000 A 
ENDBRANCH   2   3
BRANCH   2   9
ATOM      9  C   UNL     1      -0.202  11.178  19.508  0.00  0.00    +0.000 A 
ATOM     10  C   UNL     1      -0.014  10.517  20.724  0.00  0.00    +0.000 A 
ATOM     11  C   UNL     1       0.769   9.373  20.793  0.00  0.00    +0.000 A 
ATOM     12  C   UNL     1       1.374   8.880  19.640  0.00  0.00    +0.000 A 
ATOM     13  C   UNL     1       1.188   9.536  18.420  0.00  0.00    +0.000 A 
ATOM     14  C   UNL     1       0.398  10.684  18.346  0.00  0.00    +0.000 A 
BRANCH  12  15
ATOM     15  O   UNL     1       2.155   7.765  19.587  0.00  0.00    +0.000 OA
BRANCH  15  16
ATOM     16  C   UNL     1       2.502   7.283  18.281  0.00  0.00    +0.000 C 
BRANCH  16  17
ATOM     17  C   UNL     1       2.634   5.770  18.426  0.00  0.00    +0.000 C 
BRANCH  17  18
ATOM     18  N   UNL     1       3.519   5.076  17.473  0.00  0.00    +0.000 NA
ATOM     19  C   UNL     1       4.911   5.543  17.694  0.00  0.00    +0.000 C 
ATOM     20  C   UNL     1       5.515   5.086  19.045  0.00  0.00    +0.000 C 
ATOM     21  N   UNL     1       5.464   3.630  19.240  0.00  0.00    +0.000 NA
ATOM     22  C   UNL     1       4.129   3.089  18.946  0.00  0.00    +0.000 C 
ATOM     23  C   UNL     1       3.523   3.604  17.619  0.00  0.00    +0.000 C 
ATOM     24  H   UNL     1       5.712   3.410  20.204  0.00  0.00    +0.000 HD
ENDBRANCH  17  18
ENDBRANCH  16  17
ENDBRANCH  15  16
ENDBRANCH  12  15
ENDBRANCH   2   9
BRANCH   1  25
ATOM     25  C   UNL     1       0.990  13.732  19.737  0.00  0.00    +0.000 A 
ATOM     26  C   UNL     1       1.661  13.822  20.965  0.00  0.00    +0.000 A 
ATOM     27  C   UNL     1       3.044  14.025  21.003  0.00  0.00    +0.000 A 
ATOM     28  C   UNL     1       3.767  14.123  19.819  0.00  0.00    +0.000 A 
ATOM     29  C   UNL     1       3.112  14.017  18.590  0.00  0.00    +0.000 A 
ATOM     30  C   UNL     1       1.730  13.818  18.550  0.00  0.00    +0.000 A 
ENDBRANCH   1  25
BRANCH   1  32
ATOM     31  C   UNL     1      -0.692  16.204  19.159  0.00  0.00    +0.000 C 
ATOM     32  C   UNL     1      -1.140  14.977  19.942  0.00  0.00    +0.000 C 
ENDBRANCH   1  32
TORSDOF 8
ENDMDL
MODEL 2
REMARK VINA RESULT:      -6.8      1.016      1.550
REMARK  Name = 
REMARK  9 active torsions:
REMARK  status: ('A' for Active; 'I' for Inactive)
REMARK    1  A    between atoms: C_1  and  C_2
REMARK    2  A    between atoms: C_2  and  C_3
REMARK    3  A    between atoms: C_3  and  C_26
REMARK    4  A    between atoms: C_4  and  C_5
REMARK    5  A    between atoms: C_4  and  C_11
REMARK    6  A    between atoms: C_14  and  O_15
REMARK    7  A    between atoms: O_15  and  C_16
REMARK    8  A    between atoms: C_16  and  C_17
REMARK    9  A    between atoms: C_17  and  N_18
REMARK                            x       y       z     vdW  Elec       q    Type
REMARK                         _______ _______ _______ _____ _____    ______ ____
ROOT
ATOM      1  C   UNL     1      -0.658  13.956  20.356  0.00  0.00    +0.000 C 
ATOM      2  C   UNL     1      -1.312  12.777  20.549  0.00  0.00    +0.000 C 
ENDROOT
BRANCH   2   3
ATOM      3  C   UNL     1      -2.752  12.682  20.884  0.00  0.00    +0.000 A 
ATOM      4  C   UNL     1      -3.170  12.808  22.214  0.00  0.00    +0.000 A 
ATOM      5  C   UNL     1      -4.531  12.804  22.526  0.00  0.00    +0.000 A 
ATOM      6  C   UNL     1      -5.481  12.682  21.512  0.00  0.00    +0.000 A 
ATOM      7  C   UNL     1      -5.074  12.570  20.184  0.00  0.00    +0.000 A 
ATOM      8  C   UNL     1      -3.715  12.582  19.870  0.00  0.00    +0.000 A 
ENDBRANCH   2   3
BRANCH   2   9
ATOM      9  C   UNL     1      -0.537  11.504  20.540  0.00  0.00    +0.000 A 
ATOM     10  C   UNL     1      -0.384  10.843  19.319  0.00  0.00    +0.000 A 
ATOM     11  C   UNL     1       0.337   9.660  19.242  0.00  0.00    +0.000 A 
ATOM     12  C   UNL     1       0.914   9.126  20.390  0.00  0.00    +0.000 A 
ATOM     13  C   UNL     1       0.766   9.783  21.615  0.00  0.00    +0.000 A 
ATOM     14  C   UNL     1       0.045  10.975  21.697  0.00  0.00    +0.000 A 
BRANCH  12  15
ATOM     15  O   UNL     1       1.648   7.979  20.432  0.00  0.00    +0.000 OA
BRANCH  15  16
ATOM     16  C   UNL     1       2.296   7.583  19.217  0.00  0.00    +0.000 C 
BRANCH  16  17
ATOM     17  C   UNL     1       2.784   6.158  19.457  0.00  0.00    +0.000 C 
BRANCH  17  18
ATOM     18  N   UNL     1       3.156   5.364  18.273  0.00  0.00    +0.000 NA
ATOM     19  C   UNL     1       4.572   5.653  17.934  0.00  0.00    +0.000 C 
ATOM     20  C   UNL     1       5.584   5.119  18.978  0.00  0.00    +0.000 C 
ATOM     21  N   UNL     1       5.441   3.680  19.242  0.00  0.00    +0.000 NA
ATOM     22  C   UNL     1       4.040   3.310  19.494  0.00  0.00    +0.000 C 
ATOM     23  C   UNL     1       3.043   3.902  18.471  0.00  0.00    +0.000 C 
ATOM     24  H   UNL     1       6.007   3.427  20.051  0.00  0.00    +0.000 HD
ENDBRANCH  17  18
ENDBRANCH  16  17
ENDBRANCH  15  16
ENDBRANCH  12  15
ENDBRANCH   2   9
BRANCH   1  25
ATOM     25  C   UNL     1       0.778  13.936  19.946  0.00  0.00    +0.000 A 
ATOM     26  C   UNL     1       1.784  14.054  20.917  0.00  0.00    +0.000 A 
ATOM     27  C   UNL     1       3.128  14.128  20.538  0.00  0.00    +0.000 A 
ATOM     28  C   UNL     1       3.479  14.069  19.193  0.00  0.00    +0.000 A 
ATOM     29  C   UNL     1       2.487  13.932  18.219  0.00  0.00    +0.000 A 
ATOM     30  C   UNL     1       1.143  13.862  18.595  0.00  0.00    +0.000 A 
ENDBRANCH   1  25
BRANCH   1  32
ATOM     31  C   UNL     1      -1.317  16.036  21.870  0.00  0.00    +0.000 C 
ATOM     32  C   UNL     1      -1.143  15.394  20.499  0.00  0.00    +0.000 C 
ENDBRANCH   1  32
TORSDOF 8
ENDMDL
MODEL 3
REMARK VINA RESULT:      -6.7      0.690      1.444
REMARK  Name = 
REMARK  9 active torsions:
REMARK  status: ('A' for Active; 'I' for Inactive)
REMARK    1  A    between atoms: C_1  and  C_2
REMARK    2  A    between atoms: C_2  and  C_3
REMARK    3  A    between atoms: C_3  and  C_26
REMARK    4  A    between atoms: C_4  and  C_5
REMARK    5  A    between atoms: C_4  and  C_11
REMARK    6  A    between atoms: C_14  and  O_15
REMARK    7  A    between atoms: O_15  and  C_16
REMARK    8  A    between atoms: C_16  and  C_17
REMARK    9  A    between atoms: C_17  and  N_18
REMARK                            x       y       z     vdW  Elec       q    Type
REMARK                         _______ _______ _______ _____ _____    ______ ____
ROOT
ATOM      1  C   UNL     1      -0.804  13.928  19.999  0.00  0.00    +0.000 C 
ATOM      2  C   UNL     1      -1.400  12.706  19.926  0.00  0.00    +0.000 C 
ENDROOT
BRANCH   2   3
ATOM      3  C   UNL     1      -2.868  12.509  19.912  0.00  0.00    +0.000 A 
ATOM      4  C   UNL     1      -3.482  11.916  18.801  0.00  0.00    +0.000 A 
ATOM      5  C   UNL     1      -4.853  11.651  18.815  0.00  0.00    +0.000 A 
ATOM      6  C   UNL     1      -5.616  11.968  19.940  0.00  0.00    +0.000 A 
ATOM      7  C   UNL     1      -5.010  12.545  21.054  0.00  0.00    +0.000 A 
ATOM      8  C   UNL     1      -3.640  12.803  21.045  0.00  0.00    +0.000 A 
ENDBRANCH   2   3
BRANCH   2   9
ATOM      9  C   UNL     1      -0.556  11.479  19.976  0.00  0.00    +0.000 A 
ATOM     10  C   UNL     1      -0.360  10.873  21.219  0.00  0.00    +0.000 A 
ATOM     11  C   UNL     1       0.406   9.721  21.330  0.00  0.00    +0.000 A 
ATOM     12  C   UNL     1       0.985   9.163  20.194  0.00  0.00    +0.000 A 
ATOM     13  C   UNL     1       0.791   9.764  18.947  0.00  0.00    +0.000 A 
ATOM     14  C   UNL     1       0.019  10.921  18.830  0.00  0.00    +0.000 A 
BRANCH  12  15
ATOM     15  O   UNL     1       1.747   8.034  20.182  0.00  0.00    +0.000 OA
BRANCH  15  16
ATOM     16  C   UNL     1       2.353   7.679  18.932  0.00  0.00    +0.000 C 
BRANCH  16  17
ATOM     17  C   UNL     1       2.653   6.186  19.032  0.00  0.00    +0.000 C 
BRANCH  17  18
ATOM     18  N   UNL     1       3.306   5.551  17.874  0.00  0.00    +0.000 NA
ATOM     19  C   UNL     1       4.757   5.857  17.920  0.00  0.00    +0.000 C 
ATOM     20  C   UNL     1       5.502   5.170  19.093  0.00  0.00    +0.000 C 
ATOM     21  N   UNL     1       5.321   3.712  19.120  0.00  0.00    +0.000 NA
ATOM     22  C   UNL     1       3.906   3.337  18.983  0.00  0.00    +0.000 C 
ATOM     23  C   UNL     1       3.170   4.078  17.842  0.00  0.00    +0.000 C 
ATOM     24  H   UNL     1       5.684   3.344  19.998  0.00  0.00    +0.000 HD
ENDBRANCH  17  18
ENDBRANCH  16  17
ENDBRANCH  15  16
ENDBRANCH  12  15
ENDBRANCH   2   9
BRANCH   1  25
ATOM     25  C   UNL     1       0.686  14.019  19.929  0.00  0.00    +0.000 A 
ATOM     26  C   UNL     1       1.323  14.111  18.683  0.00  0.00    +0.000 A 
ATOM     27  C   UNL     1       2.719  14.105  18.599  0.00  0.00    +0.000 A 
ATOM     28  C   UNL     1       3.487  14.024  19.756  0.00  0.00    +0.000 A 
ATOM     29  C   UNL     1       2.864  13.951  21.003  0.00  0.00    +0.000 A 
ATOM     30  C   UNL     1       1.469  13.952  21.089  0.00  0.00    +0.000 A 
ENDBRANCH   1  25
BRANCH   1  32
ATOM     31  C   UNL     1      -1.686  15.903  21.540  0.00  0.00    +0.000 C 
ATOM     32  C   UNL     1      -1.408  15.318  20.161  0.00  0.00    +0.000 C 
ENDBRANCH   1  32
TORSDOF 8
ENDMDL
MODEL 4
REMARK VINA RESULT:      -6.7      1.394      1.729
REMARK  Name = 
REMARK  9 active torsions:
REMARK  status: ('A' for Active; 'I' for Inactive)
REMARK    1  A    between atoms: C_1  and  C_2
REMARK    2  A    between atoms: C_2  and  C_3
REMARK    3  A    between atoms: C_3  and  C_26
REMARK    4  A    between atoms: C_4  and  C_5
REMARK    5  A    between atoms: C_4  and  C_11
REMARK    6  A    between atoms: C_14  and  O_15
REMARK    7  A    between atoms: O_15  and  C_16
REMARK    8  A    between atoms: C_16  and  C_17
REMARK    9  A    between atoms: C_17  and  N_18
REMARK                            x       y       z     vdW  Elec       q    Type
REMARK                         _______ _______ _______ _____ _____    ______ ____
ROOT
ATOM      1  C   UNL     1      -0.338  13.216  18.875  0.00  0.00    +0.000 C 
ATOM      2  C   UNL     1      -0.827  11.961  18.668  0.00  0.00    +0.000 C 
ENDROOT
BRANCH   2   3
ATOM      3  C   UNL     1      -2.213  11.684  18.225  0.00  0.00    +0.000 A 
ATOM      4  C   UNL     1      -3.287  11.948  19.083  0.00  0.00    +0.000 A 
ATOM      5  C   UNL     1      -4.599  11.769  18.641  0.00  0.00    +0.000 A 
ATOM      6  C   UNL     1      -4.846  11.333  17.339  0.00  0.00    +0.000 A 
ATOM      7  C   UNL     1      -3.783  11.081  16.475  0.00  0.00    +0.000 A 
ATOM      8  C   UNL     1      -2.472  11.268  16.911  0.00  0.00    +0.000 A 
ENDBRANCH   2   3
BRANCH   2   9
ATOM      9  C   UNL     1       0.021  10.784  19.006  0.00  0.00    +0.000 A 
ATOM     10  C   UNL     1      -0.066  10.268  20.301  0.00  0.00    +0.000 A 
ATOM     11  C   UNL     1       0.688   9.164  20.674  0.00  0.00    +0.000 A 
ATOM     12  C   UNL     1       1.540   8.566  19.750  0.00  0.00    +0.000 A 
ATOM     13  C   UNL     1       1.631   9.076  18.452  0.00  0.00    +0.000 A 
ATOM     14  C   UNL     1       0.871  10.183  18.071  0.00  0.00    +0.000 A 
BRANCH  12  15
ATOM     15  O   UNL     1       2.321   7.477  20.002  0.00  0.00    +0.000 OA
BRANCH  15  16
ATOM     16  C   UNL     1       2.833   6.774  18.862  0.00  0.00    +0.000 C 
BRANCH  16  17
ATOM     17  C   UNL     1       3.408   5.471  19.409  0.00  0.00    +0.000 C 
BRANCH  17  18
ATOM     18  N   UNL     1       2.957   4.218  18.779  0.00  0.00    +0.000 NA
ATOM     19  C   UNL     1       3.531   3.076  19.532  0.00  0.00    +0.000 C 
ATOM     20  C   UNL     1       2.950   2.915  20.960  0.00  0.00    +0.000 C 
ATOM     21  N   UNL     1       1.484   2.812  20.980  0.00  0.00    +0.000 NA
ATOM     22  C   UNL     1       0.853   3.865  20.171  0.00  0.00    +0.000 C 
ATOM     23  C   UNL     1       1.488   4.044  18.772  0.00  0.00    +0.000 C 
ATOM     24  H   UNL     1       1.154   2.883  21.942  0.00  0.00    +0.000 HD
ENDBRANCH  17  18
ENDBRANCH  16  17
ENDBRANCH  15  16
ENDBRANCH  12  15
ENDBRANCH   2   9
BRANCH   1  25
ATOM     25  C   UNL     1       1.099  13.387  19.248  0.00  0.00    +0.000 A 
ATOM     26  C   UNL     1       1.468  13.447  20.600  0.00  0.00    +0.000 A 
ATOM     27  C   UNL     1       2.796  13.698  20.960  0.00  0.00    +0.000 A 
ATOM     28  C   UNL     1       3.765  13.874  19.978  0.00  0.00    +0.000 A 
ATOM     29  C   UNL     1       3.412  13.796  18.629  0.00  0.00    +0.000 A 
ATOM     30  C   UNL     1       2.086  13.550  18.266  0.00  0.00    +0.000 A 
ENDBRANCH   1  25
BRANCH   1  32
ATOM     31  C   UNL     1      -0.236  15.868  18.936  0.00  0.00    +0.000 C 
ATOM     32  C   UNL     1      -1.027  14.573  18.806  0.00  0.00    +0.000 C 
ENDBRANCH   1  32
TORSDOF 8
ENDMDL
MODEL 5
REMARK VINA RESULT:      -6.7      6.706     10.613
REMARK  Name = 
REMARK  9 active torsions:
REMARK  status: ('A' for Active; 'I' for Inactive)
REMARK    1  A    between atoms: C_1  and  C_2
REMARK    2  A    between atoms: C_2  and  C_3
REMARK    3  A    between atoms: C_3  and  C_26
REMARK    4  A    between atoms: C_4  and  C_5
REMARK    5  A    between atoms: C_4  and  C_11
REMARK    6  A    between atoms: C_14  and  O_15
REMARK    7  A    between atoms: O_15  and  C_16
REMARK    8  A    between atoms: C_16  and  C_17
REMARK    9  A    between atoms: C_17  and  N_18
REMARK                            x       y       z     vdW  Elec       q    Type
REMARK                         _______ _______ _______ _____ _____    ______ ____
ROOT
ATOM      1  C   UNL     1       4.235   4.324  16.663  0.00  0.00    +0.000 C 
ATOM      2  C   UNL     1       5.356   4.830  16.077  0.00  0.00    +0.000 C 
ENDROOT
BRANCH   2   3
ATOM      3  C   UNL     1       5.846   4.410  14.744  0.00  0.00    +0.000 A 
ATOM      4  C   UNL     1       4.987   3.743  13.862  0.00  0.00    +0.000 A 
ATOM      5  C   UNL     1       5.416   3.419  12.574  0.00  0.00    +0.000 A 
ATOM      6  C   UNL     1       6.701   3.766  12.156  0.00  0.00    +0.000 A 
ATOM      7  C   UNL     1       7.557   4.442  13.023  0.00  0.00    +0.000 A 
ATOM      8  C   UNL     1       7.128   4.774  14.307  0.00  0.00    +0.000 A 
ENDBRANCH   2   3
BRANCH   2   9
ATOM      9  C   UNL     1       6.215   5.775  16.844  0.00  0.00    +0.000 A 
ATOM     10  C   UNL     1       7.100   5.237  17.782  0.00  0.00    +0.000 A 
ATOM     11  C   UNL     1       7.937   6.064  18.519  0.00  0.00    +0.000 A 
ATOM     12  C   UNL     1       7.894   7.441  18.324  0.00  0.00    +0.000 A 
ATOM     13  C   UNL     1       7.012   7.986  17.387  0.00  0.00    +0.000 A 
ATOM     14  C   UNL     1       6.172   7.158  16.640  0.00  0.00    +0.000 A 
BRANCH  12  15
ATOM     15  O   UNL     1       8.671   8.346  18.984  0.00  0.00    +0.000 OA
BRANCH  15  16
ATOM     16  C   UNL     1       8.703   9.677  18.452  0.00  0.00    +0.000 C 
BRANCH  16  17
ATOM     17  C   UNL     1       9.711  10.436  19.310  0.00  0.00    +0.000 C 
BRANCH  17  18
ATOM     18  N   UNL     1       9.596  11.905  19.343  0.00  0.00    +0.000 NA
ATOM     19  C   UNL     1      10.584  12.435  20.315  0.00  0.00    +0.000 C 
ATOM     20  C   UNL     1      12.057  12.264  19.865  0.00  0.00    +0.000 C 
ATOM     21  N   UNL     1      12.330  12.844  18.542  0.00  0.00    +0.000 NA
ATOM     22  C   UNL     1      11.327  12.430  17.549  0.00  0.00    +0.000 C 
ATOM     23  C   UNL     1       9.868  12.558  18.043  0.00  0.00    +0.000 C 
ATOM     24  H   UNL     1      13.255  12.551  18.230  0.00  0.00    +0.000 HD
ENDBRANCH  17  18
ENDBRANCH  16  17
ENDBRANCH  15  16
ENDBRANCH  12  15
ENDBRANCH   2   9
BRANCH   1  25
ATOM     25  C   UNL     1       3.787   4.874  17.978  0.00  0.00    +0.000 A 
ATOM     26  C   UNL     1       4.042   4.160  19.158  0.00  0.00    +0.000 A 
ATOM     27  C   UNL     1       3.548   4.618  20.383  0.00  0.00    +0.000 A 
ATOM     28  C   UNL     1       2.812   5.797  20.442  0.00  0.00    +0.000 A 
ATOM     29  C   UNL     1       2.569   6.527  19.277  0.00  0.00    +0.000 A 
ATOM     30  C   UNL     1       3.057   6.069  18.051  0.00  0.00    +0.000 A 
ENDBRANCH   1  25
BRANCH   1  32
ATOM     31  C   UNL     1       2.386   2.494  17.195  0.00  0.00    +0.000 C 
ATOM     32  C   UNL     1       3.290   3.219  16.206  0.00  0.00    +0.000 C 
ENDBRANCH   1  32
TORSDOF 8
ENDMDL
MODEL 6
REMARK VINA RESULT:      -6.7      1.394      1.711
REMARK  Name = 
REMARK  9 active torsions:
REMARK  status: ('A' for Active; 'I' for Inactive)
REMARK    1  A    between atoms: C_1  and  C_2
REMARK    2  A    between atoms: C_2  and  C_3
REMARK    3  A    between atoms: C_3  and  C_26
REMARK    4  A    between atoms: C_4  and  C_5
REMARK    5  A    between atoms: C_4  and  C_11
REMARK    6  A    between atoms: C_14  and  O_15
REMARK    7  A    between atoms: O_15  and  C_16
REMARK    8  A    between atoms: C_16  and  C_17
REMARK    9  A    between atoms: C_17  and  N_18
REMARK                            x       y       z     vdW  Elec       q    Type
REMARK                         _______ _______ _______ _____ _____    ______ ____
ROOT
ATOM      1  C   UNL     1      -0.261  13.251  19.000  0.00  0.00    +0.000 C 
ATOM      2  C   UNL     1      -0.726  11.998  18.736  0.00  0.00    +0.000 C 
ENDROOT
BRANCH   2   3
ATOM      3  C   UNL     1      -2.117  11.711  18.316  0.00  0.00    +0.000 A 
ATOM      4  C   UNL     1      -3.179  11.978  19.188  0.00  0.00    +0.000 A 
ATOM      5  C   UNL     1      -4.497  11.789  18.769  0.00  0.00    +0.000 A 
ATOM      6  C   UNL     1      -4.762  11.339  17.475  0.00  0.00    +0.000 A 
ATOM      7  C   UNL     1      -3.711  11.084  16.596  0.00  0.00    +0.000 A 
ATOM      8  C   UNL     1      -2.395  11.280  17.011  0.00  0.00    +0.000 A 
ENDBRANCH   2   3
BRANCH   2   9
ATOM      9  C   UNL     1       0.160  10.826  18.982  0.00  0.00    +0.000 A 
ATOM     10  C   UNL     1       0.085  10.204  20.231  0.00  0.00    +0.000 A 
ATOM     11  C   UNL     1       0.874   9.099  20.518  0.00  0.00    +0.000 A 
ATOM     12  C   UNL     1       1.749   8.606  19.555  0.00  0.00    +0.000 A 
ATOM     13  C   UNL     1       1.829   9.223  18.304  0.00  0.00    +0.000 A 
ATOM     14  C   UNL     1       1.034  10.332  18.009  0.00  0.00    +0.000 A 
BRANCH  12  15
ATOM     15  O   UNL     1       2.565   7.527  19.723  0.00  0.00    +0.000 OA
BRANCH  15  16
ATOM     16  C   UNL     1       2.463   6.484  18.744  0.00  0.00    +0.000 C 
BRANCH  16  17
ATOM     17  C   UNL     1       2.383   5.184  19.538  0.00  0.00    +0.000 C 
BRANCH  17  18
ATOM     18  N   UNL     1       1.300   4.247  19.190  0.00  0.00    +0.000 NA
ATOM     19  C   UNL     1       1.362   3.972  17.733  0.00  0.00    +0.000 C 
ATOM     20  C   UNL     1       2.607   3.157  17.304  0.00  0.00    +0.000 C 
ATOM     21  N   UNL     1       2.750   1.890  18.035  0.00  0.00    +0.000 NA
ATOM     22  C   UNL     1       2.605   2.080  19.486  0.00  0.00    +0.000 C 
ATOM     23  C   UNL     1       1.387   2.944  19.885  0.00  0.00    +0.000 C 
ATOM     24  H   UNL     1       3.666   1.488  17.837  0.00  0.00    +0.000 HD
ENDBRANCH  17  18
ENDBRANCH  16  17
ENDBRANCH  15  16
ENDBRANCH  12  15
ENDBRANCH   2   9
BRANCH   1  25
ATOM     25  C   UNL     1       1.181  13.438  19.341  0.00  0.00    +0.000 A 
ATOM     26  C   UNL     1       1.591  13.417  20.683  0.00  0.00    +0.000 A 
ATOM     27  C   UNL     1       2.922  13.681  21.020  0.00  0.00    +0.000 A 
ATOM     28  C   UNL     1       3.855  13.951  20.025  0.00  0.00    +0.000 A 
ATOM     29  C   UNL     1       3.462  13.956  18.685  0.00  0.00    +0.000 A 
ATOM     30  C   UNL     1       2.132  13.697  18.345  0.00  0.00    +0.000 A 
ENDBRANCH   1  25
BRANCH   1  32
ATOM     31  C   UNL     1      -1.511  15.180  20.329  0.00  0.00    +0.000 C 
ATOM     32  C   UNL     1      -0.985  14.592  19.026  0.00  0.00    +0.000 C 
ENDBRANCH   1  32
TORSDOF 8
ENDMDL
MODEL 7
REMARK VINA RESULT:      -6.7      0.691      1.452
REMARK  Name = 
REMARK  9 active torsions:
REMARK  status: ('A' for Active; 'I' for Inactive)
REMARK    1  A    between atoms: C_1  and  C_2
REMARK    2  A    between atoms: C_2  and  C_3
REMARK    3  A    between atoms: C_3  and  C_26
REMARK    4  A    between atoms: C_4  and  C_5
REMARK    5  A    between atoms: C_4  and  C_11
REMARK    6  A    between atoms: C_14  and  O_15
REMARK    7  A    between atoms: O_15  and  C_16
REMARK    8  A    between atoms: C_16  and  C_17
REMARK    9  A    between atoms: C_17  and  N_18
REMARK                            x       y       z     vdW  Elec       q    Type
REMARK                         _______ _______ _______ _____ _____    ______ ____
ROOT
ATOM      1  C   UNL     1      -0.557  13.739  19.675  0.00  0.00    +0.000 C 
ATOM      2  C   UNL     1      -1.149  12.519  19.541  0.00  0.00    +0.000 C 
ENDROOT
BRANCH   2   3
ATOM      3  C   UNL     1      -2.608  12.329  19.372  0.00  0.00    +0.000 A 
ATOM      4  C   UNL     1      -3.098  11.638  18.257  0.00  0.00    +0.000 A 
ATOM      5  C   UNL     1      -4.465  11.382  18.134  0.00  0.00    +0.000 A 
ATOM      6  C   UNL     1      -5.349  11.808  19.126  0.00  0.00    +0.000 A 
ATOM      7  C   UNL     1      -4.868  12.484  20.245  0.00  0.00    +0.000 A 
ATOM      8  C   UNL     1      -3.502  12.733  20.374  0.00  0.00    +0.000 A 
ENDBRANCH   2   3
BRANCH   2   9
ATOM      9  C   UNL     1      -0.321  11.288  19.680  0.00  0.00    +0.000 A 
ATOM     10  C   UNL     1      -0.172  10.744  20.958  0.00  0.00    +0.000 A 
ATOM     11  C   UNL     1       0.576   9.591  21.152  0.00  0.00    +0.000 A 
ATOM     12  C   UNL     1       1.185   8.972  20.065  0.00  0.00    +0.000 A 
ATOM     13  C   UNL     1       1.040   9.510  18.784  0.00  0.00    +0.000 A 
ATOM     14  C   UNL     1       0.285  10.667  18.583  0.00  0.00    +0.000 A 
BRANCH  12  15
ATOM     15  O   UNL     1       1.935   7.836  20.135  0.00  0.00    +0.000 OA
BRANCH  15  16
ATOM     16  C   UNL     1       2.502   7.361  18.907  0.00  0.00    +0.000 C 
BRANCH  16  17
ATOM     17  C   UNL     1       2.483   5.839  19.009  0.00  0.00    +0.000 C 
BRANCH  17  18
ATOM     18  N   UNL     1       3.560   5.201  19.787  0.00  0.00    +0.000 NA
ATOM     19  C   UNL     1       3.253   3.756  19.923  0.00  0.00    +0.000 C 
ATOM     20  C   UNL     1       3.345   2.969  18.592  0.00  0.00    +0.000 C 
ATOM     21  N   UNL     1       4.643   3.120  17.918  0.00  0.00    +0.000 NA
ATOM     22  C   UNL     1       5.050   4.531  17.833  0.00  0.00    +0.000 C 
ATOM     23  C   UNL     1       4.896   5.308  19.160  0.00  0.00    +0.000 C 
ATOM     24  H   UNL     1       4.582   2.730  16.978  0.00  0.00    +0.000 HD
ENDBRANCH  17  18
ENDBRANCH  16  17
ENDBRANCH  15  16
ENDBRANCH  12  15
ENDBRANCH   2   9
BRANCH   1  25
ATOM     25  C   UNL     1       0.932  13.822  19.762  0.00  0.00    +0.000 A 
ATOM     26  C   UNL     1       1.552  13.972  21.012  0.00  0.00    +0.000 A 
ATOM     27  C   UNL     1       2.937  14.143  21.098  0.00  0.00    +0.000 A 
ATOM     28  C   UNL     1       3.713  14.149  19.944  0.00  0.00    +0.000 A 
ATOM     29  C   UNL     1       3.109  13.982  18.696  0.00  0.00    +0.000 A 
ATOM     30  C   UNL     1       1.725  13.815  18.607  0.00  0.00    +0.000 A 
ENDBRANCH   1  25
BRANCH   1  32
ATOM     31  C   UNL     1      -0.567  16.311  19.019  0.00  0.00    +0.000 C 
ATOM     32  C   UNL     1      -1.168  15.132  19.771  0.00  0.00    +0.000 C 
ENDBRANCH   1  32
TORSDOF 8
ENDMDL
MODEL 8
REMARK VINA RESULT:      -6.6      0.985      1.512
REMARK  Name = 
REMARK  9 active torsions:
REMARK  status: ('A' for Active; 'I' for Inactive)
REMARK    1  A    between atoms: C_1  and  C_2
REMARK    2  A    between atoms: C_2  and  C_3
REMARK    3  A    between atoms: C_3  and  C_26
REMARK    4  A    between atoms: C_4  and  C_5
REMARK    5  A    between atoms: C_4  and  C_11
REMARK    6  A    between atoms: C_14  and  O_15
REMARK    7  A    between atoms: O_15  and  C_16
REMARK    8  A    between atoms: C_16  and  C_17
REMARK    9  A    between atoms: C_17  and  N_18
REMARK                            x       y       z     vdW  Elec       q    Type
REMARK                         _______ _______ _______ _____ _____    ______ ____
ROOT
ATOM      1  C   UNL     1      -0.613  14.053  20.561  0.00  0.00    +0.000 C 
ATOM      2  C   UNL     1      -1.257  12.857  20.666  0.00  0.00    +0.000 C 
ENDROOT
BRANCH   2   3
ATOM      3  C   UNL     1      -2.695  12.726  20.992  0.00  0.00    +0.000 A 
ATOM      4  C   UNL     1      -3.127  12.864  22.317  0.00  0.00    +0.000 A 
ATOM      5  C   UNL     1      -4.489  12.826  22.620  0.00  0.00    +0.000 A 
ATOM      6  C   UNL     1      -5.428  12.657  21.602  0.00  0.00    +0.000 A 
ATOM      7  C   UNL     1      -5.008  12.532  20.279  0.00  0.00    +0.000 A 
ATOM      8  C   UNL     1      -3.648  12.578  19.974  0.00  0.00    +0.000 A 
ENDBRANCH   2   3
BRANCH   2   9
ATOM      9  C   UNL     1      -0.471  11.595  20.562  0.00  0.00    +0.000 A 
ATOM     10  C   UNL     1      -0.008  11.017  21.746  0.00  0.00    +0.000 A 
ATOM     11  C   UNL     1       0.718   9.834  21.717  0.00  0.00    +0.000 A 
ATOM     12  C   UNL     1       0.988   9.218  20.499  0.00  0.00    +0.000 A 
ATOM     13  C   UNL     1       0.526   9.791  19.311  0.00  0.00    +0.000 A 
ATOM     14  C   UNL     1      -0.208  10.978  19.335  0.00  0.00    +0.000 A 
BRANCH  12  15
ATOM     15  O   UNL     1       1.683   8.056  20.350  0.00  0.00    +0.000 OA
BRANCH  15  16
ATOM     16  C   UNL     1       2.192   7.771  19.040  0.00  0.00    +0.000 C 
BRANCH  16  17
ATOM     17  C   UNL     1       2.846   6.397  19.144  0.00  0.00    +0.000 C 
BRANCH  17  18
ATOM     18  N   UNL     1       3.458   5.847  17.922  0.00  0.00    +0.000 NA
ATOM     19  C   UNL     1       4.925   6.056  17.991  0.00  0.00    +0.000 C 
ATOM     20  C   UNL     1       5.626   5.205  19.080  0.00  0.00    +0.000 C 
ATOM     21  N   UNL     1       5.354   3.766  18.955  0.00  0.00    +0.000 NA
ATOM     22  C   UNL     1       3.918   3.497  18.789  0.00  0.00    +0.000 C 
ATOM     23  C   UNL     1       3.231   4.397  17.737  0.00  0.00    +0.000 C 
ATOM     24  H   UNL     1       5.693   3.286  19.788  0.00  0.00    +0.000 HD
ENDBRANCH  17  18
ENDBRANCH  16  17
ENDBRANCH  15  16
ENDBRANCH  12  15
ENDBRANCH   2   9
BRANCH   1  25
ATOM     25  C   UNL     1       0.824  14.075  20.151  0.00  0.00    +0.000 A 
ATOM     26  C   UNL     1       1.162  14.065  18.789  0.00  0.00    +0.000 A 
ATOM     27  C   UNL     1       2.502  13.993  18.393  0.00  0.00    +0.000 A 
ATOM     28  C   UNL     1       3.511  13.947  19.350  0.00  0.00    +0.000 A 
ATOM     29  C   UNL     1       3.186  13.976  20.708  0.00  0.00    +0.000 A 
ATOM     30  C   UNL     1       1.849  14.043  21.106  0.00  0.00    +0.000 A 
ENDBRANCH   1  25
BRANCH   1  32
ATOM     31  C   UNL     1      -1.455  16.402  19.655  0.00  0.00    +0.000 C 
ATOM     32  C   UNL     1      -1.110  15.472  20.811  0.00  0.00    +0.000 C 
ENDBRANCH   1  32
TORSDOF 8
ENDMDL
MODEL 9
REMARK VINA RESULT:      -6.6      1.460      2.044
REMARK  Name = 
REMARK  9 active torsions:
REMARK  status: ('A' for Active; 'I' for Inactive)
REMARK    1  A    between atoms: C_1  and  C_2
REMARK    2  A    between atoms: C_2  and  C_3
REMARK    3  A    between atoms: C_3  and  C_26
REMARK    4  A    between atoms: C_4  and  C_5
REMARK    5  A    between atoms: C_4  and  C_11
REMARK    6  A    between atoms: C_14  and  O_15
REMARK    7  A    between atoms: O_15  and  C_16
REMARK    8  A    between atoms: C_16  and  C_17
REMARK    9  A    between atoms: C_17  and  N_18
REMARK                            x       y       z     vdW  Elec       q    Type
REMARK                         _______ _______ _______ _____ _____    ______ ____
ROOT
ATOM      1  C   UNL     1      -1.031  13.956  20.426  0.00  0.00    +0.000 C 
ATOM      2  C   UNL     1      -1.660  12.768  20.648  0.00  0.00    +0.000 C 
ENDROOT
BRANCH   2   3
ATOM      3  C   UNL     1      -3.113  12.645  20.910  0.00  0.00    +0.000 A 
ATOM      4  C   UNL     1      -3.609  12.845  22.204  0.00  0.00    +0.000 A 
ATOM      5  C   UNL     1      -4.984  12.814  22.442  0.00  0.00    +0.000 A 
ATOM      6  C   UNL     1      -5.872  12.591  21.388  0.00  0.00    +0.000 A 
ATOM      7  C   UNL     1      -5.387  12.405  20.095  0.00  0.00    +0.000 A 
ATOM      8  C   UNL     1      -4.014  12.444  19.855  0.00  0.00    +0.000 A 
ENDBRANCH   2   3
BRANCH   2   9
ATOM      9  C   UNL     1      -0.849  11.523  20.750  0.00  0.00    +0.000 A 
ATOM     10  C   UNL     1      -0.481  11.088  22.026  0.00  0.00    +0.000 A 
ATOM     11  C   UNL     1       0.264   9.928  22.189  0.00  0.00    +0.000 A 
ATOM     12  C   UNL     1       0.648   9.191  21.072  0.00  0.00    +0.000 A 
ATOM     13  C   UNL     1       0.282   9.620  19.794  0.00  0.00    +0.000 A 
ATOM     14  C   UNL     1      -0.470  10.783  19.625  0.00  0.00    +0.000 A 
BRANCH  12  15
ATOM     15  O   UNL     1       1.372   8.037  21.112  0.00  0.00    +0.000 OA
BRANCH  15  16
ATOM     16  C   UNL     1       2.013   7.636  19.894  0.00  0.00    +0.000 C 
BRANCH  16  17
ATOM     17  C   UNL     1       2.165   6.121  19.991  0.00  0.00    +0.000 C 
BRANCH  17  18
ATOM     18  N   UNL     1       2.857   5.440  18.882  0.00  0.00    +0.000 NA
ATOM     19  C   UNL     1       3.836   4.482  19.452  0.00  0.00    +0.000 C 
ATOM     20  C   UNL     1       3.182   3.278  20.175  0.00  0.00    +0.000 C 
ATOM     21  N   UNL     1       2.229   2.542  19.331  0.00  0.00    +0.000 NA
ATOM     22  C   UNL     1       1.285   3.448  18.660  0.00  0.00    +0.000 C 
ATOM     23  C   UNL     1       1.957   4.671  17.995  0.00  0.00    +0.000 C 
ATOM     24  H   UNL     1       1.710   1.880  19.906  0.00  0.00    +0.000 HD
ENDBRANCH  17  18
ENDBRANCH  16  17
ENDBRANCH  15  16
ENDBRANCH  12  15
ENDBRANCH   2   9
BRANCH   1  25
ATOM     25  C   UNL     1       0.426  13.960  20.095  0.00  0.00    +0.000 A 
ATOM     26  C   UNL     1       0.838  13.897  18.755  0.00  0.00    +0.000 A 
ATOM     27  C   UNL     1       2.197  13.808  18.437  0.00  0.00    +0.000 A 
ATOM     28  C   UNL     1       3.152  13.799  19.449  0.00  0.00    +0.000 A 
ATOM     29  C   UNL     1       2.753  13.880  20.784  0.00  0.00    +0.000 A 
ATOM     30  C   UNL     1       1.396  13.965  21.105  0.00  0.00    +0.000 A 
ENDBRANCH   1  25
BRANCH   1  32
ATOM     31  C   UNL     1      -1.762  16.118  21.783  0.00  0.00    +0.000 C 
ATOM     32  C   UNL     1      -1.566  15.383  20.463  0.00  0.00    +0.000 C 
ENDBRANCH   1  32
TORSDOF 8
ENDMDL
