MODEL 1
REMARK VINA RESULT:      -9.2      0.000      0.000
REMARK  Name = 
REMARK  9 active torsions:
REMARK  status: ('A' for Active; 'I' for Inactive)
REMARK    1  A    between atoms: C_4  and  C_5
REMARK    2  A    between atoms: C_5  and  N_6
REMARK    3  A    between atoms: N_6  and  C_7
REMARK    4  A    between atoms: N_6  and  C_25
REMARK    5  A    between atoms: C_7  and  C_8
REMARK    6  A    between atoms: C_8  and  C_9
REMARK    7  A    between atoms: C_9  and  C_10
REMARK    8  A    between atoms: C_10  and  N_11
REMARK    9  A    between atoms: C_25  and  C_26
REMARK                            x       y       z     vdW  Elec       q    Type
REMARK                         _______ _______ _______ _____ _____    ______ ____
ROOT
ATOM      1  C   UNL     1       1.802   8.782  17.688  0.00  0.00    +0.000 C 
ENDROOT
BRANCH   1   2
ATOM      2  C   UNL     1       1.876  10.292  17.945  0.00  0.00    +0.000 C 
BRANCH   2   3
ATOM      3  N   UNL     1       0.656  10.890  18.499  0.00  0.00    +0.000 NA
BRANCH   3   4
ATOM      4  C   UNL     1       0.925  11.639  19.745  0.00  0.00    +0.000 C 
BRANCH   4   8
ATOM      5  C   UNL     1      -0.609   9.864  23.379  0.00  0.00    +0.000 A 
ATOM      6  C   UNL     1      -1.127  11.071  22.917  0.00  0.00    +0.000 A 
ATOM      7  C   UNL     1      -0.589  11.675  21.768  0.00  0.00    +0.000 A 
ATOM      8  C   UNL     1       0.454  11.062  21.070  0.00  0.00    +0.000 A 
ATOM      9  C   UNL     1       0.977   9.854  21.554  0.00  0.00    +0.000 A 
ATOM     10  C   UNL     1       0.450   9.261  22.704  0.00  0.00    +0.000 A 
ENDBRANCH   4   8
ENDBRANCH   3   4
BRANCH   3  11
ATOM     11  C   UNL     1      -0.468   9.942  18.592  0.00  0.00    +0.000 C 
BRANCH  11  12
ATOM     12  C   UNL     1      -1.750  10.425  17.934  0.00  0.00    +0.000 A 
ATOM     13  C   UNL     1      -2.598  11.347  18.569  0.00  0.00    +0.000 A 
ATOM     14  C   UNL     1      -3.832  11.677  18.012  0.00  0.00    +0.000 A 
ATOM     15  C   UNL     1      -4.208  11.134  16.787  0.00  0.00    +0.000 A 
ATOM     16  C   UNL     1      -3.338  10.288  16.102  0.00  0.00    +0.000 A 
ATOM     17  C   UNL     1      -2.109   9.942  16.668  0.00  0.00    +0.000 A 
ENDBRANCH  11  12
ENDBRANCH   3  11
ENDBRANCH   2   3
ENDBRANCH   1   2
BRANCH   1  18
ATOM     18  C   UNL     1       2.685   7.914  18.592  0.00  0.00    +0.000 C 
BRANCH  18  19
ATOM     19  C   UNL     1       3.024   6.554  17.961  0.00  0.00    +0.000 C 
BRANCH  19  20
ATOM     20  N   UNL     1       3.865   5.664  18.849  0.00  0.00    +0.000 N 
ATOM     21  C   UNL     1       2.985   4.645  19.364  0.00  0.00    +0.000 A 
ATOM     22  C   UNL     1       2.093   4.988  20.400  0.00  0.00    +0.000 A 
ATOM     23  C   UNL     1       1.218   4.043  20.941  0.00  0.00    +0.000 A 
ATOM     24  C   UNL     1       1.253   2.727  20.490  0.00  0.00    +0.000 A 
ATOM     25  C   UNL     1       2.133   2.369  19.468  0.00  0.00    +0.000 A 
ATOM     26  C   UNL     1       2.979   3.323  18.879  0.00  0.00    +0.000 A 
ATOM     27  S   UNL     1       3.901   2.820  17.437  0.00  0.00    +0.000 S 
ATOM     28  C   UNL     1       4.989   4.201  17.188  0.00  0.00    +0.000 A 
ATOM     29  C   UNL     1       5.819   4.214  16.062  0.00  0.00    +0.000 A 
ATOM     30  C   UNL     1       6.748   5.240  15.879  0.00  0.00    +0.000 A 
ATOM     31  C   UNL     1       6.940   6.187  16.879  0.00  0.00    +0.000 A 
ATOM     32  C   UNL     1       6.097   6.194  17.988  0.00  0.00    +0.000 A 
ATOM     33  C   UNL     1       5.020   5.300  18.060  0.00  0.00    +0.000 A 
ENDBRANCH  19  20
ENDBRANCH  18  19
ENDBRANCH   1  18
TORSDOF 9
ENDMDL
MODEL 2
REMARK VINA RESULT:      -8.9      0.847      3.499
REMARK  Name = 
REMARK  9 active torsions:
REMARK  status: ('A' for Active; 'I' for Inactive)
REMARK    1  A    between atoms: C_4  and  C_5
REMARK    2  A    between atoms: C_5  and  N_6
REMARK    3  A    between atoms: N_6  and  C_7
REMARK    4  A    between atoms: N_6  and  C_25
REMARK    5  A    between atoms: C_7  and  C_8
REMARK    6  A    between atoms: C_8  and  C_9
REMARK    7  A    between atoms: C_9  and  C_10
REMARK    8  A    between atoms: C_10  and  N_11
REMARK    9  A    between atoms: C_25  and  C_26
REMARK                            x       y       z     vdW  Elec       q    Type
REMARK                         _______ _______ _______ _____ _____    ______ ____
ROOT
ATOM      1  C   UNL     1       1.807   8.749  18.141  0.00  0.00    +0.000 C 
ENDROOT
BRANCH   1   2
ATOM      2  C   UNL     1       1.389   8.832  19.614  0.00  0.00    +0.000 C 
BRANCH   2   3
ATOM      3  N   UNL     1       0.508   9.957  19.949  0.00  0.00    +0.000 NA
BRANCH   3   4
ATOM      4  C   UNL     1       0.101  10.716  18.747  0.00  0.00    +0.000 C 
BRANCH   4   8
ATOM      5  C   UNL     1      -3.979  10.800  17.313  0.00  0.00    +0.000 A 
ATOM      6  C   UNL     1      -3.591  11.620  18.370  0.00  0.00    +0.000 A 
ATOM      7  C   UNL     1      -2.281  11.551  18.871  0.00  0.00    +0.000 A 
ATOM      8  C   UNL     1      -1.352  10.675  18.305  0.00  0.00    +0.000 A 
ATOM      9  C   UNL     1      -1.759   9.844  17.250  0.00  0.00    +0.000 A 
ATOM     10  C   UNL     1      -3.066   9.904  16.760  0.00  0.00    +0.000 A 
ENDBRANCH   4   8
ENDBRANCH   3   4
BRANCH   3  11
ATOM     11  C   UNL     1       1.020  10.791  21.050  0.00  0.00    +0.000 C 
BRANCH  11  12
ATOM     12  C   UNL     1      -0.058  11.514  21.840  0.00  0.00    +0.000 A 
ATOM     13  C   UNL     1      -0.952  10.817  22.668  0.00  0.00    +0.000 A 
ATOM     14  C   UNL     1      -2.015  11.479  23.281  0.00  0.00    +0.000 A 
ATOM     15  C   UNL     1      -2.163  12.854  23.119  0.00  0.00    +0.000 A 
ATOM     16  C   UNL     1      -1.231  13.573  22.374  0.00  0.00    +0.000 A 
ATOM     17  C   UNL     1      -0.177  12.908  21.745  0.00  0.00    +0.000 A 
ENDBRANCH  11  12
ENDBRANCH   3  11
ENDBRANCH   2   3
ENDBRANCH   1   2
BRANCH   1  18
ATOM     18  C   UNL     1       3.132   8.026  17.869  0.00  0.00    +0.000 C 
BRANCH  18  19
ATOM     19  C   UNL     1       2.955   6.508  17.701  0.00  0.00    +0.000 C 
BRANCH  19  20
ATOM     20  N   UNL     1       3.783   5.690  18.668  0.00  0.00    +0.000 N 
ATOM     21  C   UNL     1       2.894   4.714  19.248  0.00  0.00    +0.000 A 
ATOM     22  C   UNL     1       1.989   5.137  20.242  0.00  0.00    +0.000 A 
ATOM     23  C   UNL     1       1.106   4.237  20.843  0.00  0.00    +0.000 A 
ATOM     24  C   UNL     1       1.145   2.890  20.496  0.00  0.00    +0.000 A 
ATOM     25  C   UNL     1       2.038   2.454  19.517  0.00  0.00    +0.000 A 
ATOM     26  C   UNL     1       2.893   3.359  18.867  0.00  0.00    +0.000 A 
ATOM     27  S   UNL     1       3.833   2.745  17.481  0.00  0.00    +0.000 S 
ATOM     28  C   UNL     1       4.927   4.101  17.141  0.00  0.00    +0.000 A 
ATOM     29  C   UNL     1       5.772   4.027  16.028  0.00  0.00    +0.000 A 
ATOM     30  C   UNL     1       6.705   5.035  15.778  0.00  0.00    +0.000 A 
ATOM     31  C   UNL     1       6.885   6.056  16.705  0.00  0.00    +0.000 A 
ATOM     32  C   UNL     1       6.028   6.151  17.798  0.00  0.00    +0.000 A 
ATOM     33  C   UNL     1       4.948   5.265  17.925  0.00  0.00    +0.000 A 
ENDBRANCH  19  20
ENDBRANCH  18  19
ENDBRANCH   1  18
TORSDOF 9
ENDMDL
MODEL 3
REMARK VINA RESULT:      -8.7      0.675      1.192
REMARK  Name = 
REMARK  9 active torsions:
REMARK  status: ('A' for Active; 'I' for Inactive)
REMARK    1  A    between atoms: C_4  and  C_5
REMARK    2  A    between atoms: C_5  and  N_6
REMARK    3  A    between atoms: N_6  and  C_7
REMARK    4  A    between atoms: N_6  and  C_25
REMARK    5  A    between atoms: C_7  and  C_8
REMARK    6  A    between atoms: C_8  and  C_9
REMARK    7  A    between atoms: C_9  and  C_10
REMARK    8  A    between atoms: C_10  and  N_11
REMARK    9  A    between atoms: C_25  and  C_26
REMARK                            x       y       z     vdW  Elec       q    Type
REMARK                         _______ _______ _______ _____ _____    ______ ____
ROOT
ATOM      1  C   UNL     1       1.840   8.555  18.542  0.00  0.00    +0.000 C 
ENDROOT
BRANCH   1   2
ATOM      2  C   UNL     1       1.281   9.825  17.888  0.00  0.00    +0.000 C 
BRANCH   2   3
ATOM      3  N   UNL     1       0.231  10.508  18.651  0.00  0.00    +0.000 NA
BRANCH   3   4
ATOM      4  C   UNL     1       0.717  10.967  19.970  0.00  0.00    +0.000 C 
BRANCH   4   8
ATOM      5  C   UNL     1      -1.957  12.250  23.120  0.00  0.00    +0.000 A 
ATOM      6  C   UNL     1      -1.330  11.009  23.196  0.00  0.00    +0.000 A 
ATOM      7  C   UNL     1      -0.506  10.570  22.146  0.00  0.00    +0.000 A 
ATOM      8  C   UNL     1      -0.295  11.379  21.027  0.00  0.00    +0.000 A 
ATOM      9  C   UNL     1      -0.943  12.621  20.956  0.00  0.00    +0.000 A 
ATOM     10  C   UNL     1      -1.772  13.051  21.994  0.00  0.00    +0.000 A 
ENDBRANCH   4   8
ENDBRANCH   3   4
BRANCH   3  11
ATOM     11  C   UNL     1      -1.037   9.758  18.699  0.00  0.00    +0.000 C 
BRANCH  11  12
ATOM     12  C   UNL     1      -2.120  10.302  17.783  0.00  0.00    +0.000 A 
ATOM     13  C   UNL     1      -3.047  11.257  18.231  0.00  0.00    +0.000 A 
ATOM     14  C   UNL     1      -4.113  11.646  17.421  0.00  0.00    +0.000 A 
ATOM     15  C   UNL     1      -4.233  11.128  16.134  0.00  0.00    +0.000 A 
ATOM     16  C   UNL     1      -3.270  10.248  15.645  0.00  0.00    +0.000 A 
ATOM     17  C   UNL     1      -2.212   9.843  16.461  0.00  0.00    +0.000 A 
ENDBRANCH  11  12
ENDBRANCH   3  11
ENDBRANCH   2   3
ENDBRANCH   1   2
BRANCH   1  18
ATOM     18  C   UNL     1       3.137   8.012  17.930  0.00  0.00    +0.000 C 
BRANCH  18  19
ATOM     19  C   UNL     1       3.078   6.499  17.662  0.00  0.00    +0.000 C 
BRANCH  19  20
ATOM     20  N   UNL     1       3.862   5.675  18.659  0.00  0.00    +0.000 N 
ATOM     21  C   UNL     1       2.940   4.716  19.216  0.00  0.00    +0.000 A 
ATOM     22  C   UNL     1       2.010   5.159  20.178  0.00  0.00    +0.000 A 
ATOM     23  C   UNL     1       1.095   4.277  20.756  0.00  0.00    +0.000 A 
ATOM     24  C   UNL     1       1.124   2.927  20.419  0.00  0.00    +0.000 A 
ATOM     25  C   UNL     1       2.041   2.471  19.471  0.00  0.00    +0.000 A 
ATOM     26  C   UNL     1       2.930   3.359  18.844  0.00  0.00    +0.000 A 
ATOM     27  S   UNL     1       3.905   2.722  17.492  0.00  0.00    +0.000 S 
ATOM     28  C   UNL     1       5.029   4.059  17.178  0.00  0.00    +0.000 A 
ATOM     29  C   UNL     1       5.908   3.965  16.094  0.00  0.00    +0.000 A 
ATOM     30  C   UNL     1       6.864   4.957  15.868  0.00  0.00    +0.000 A 
ATOM     31  C   UNL     1       7.030   5.982  16.794  0.00  0.00    +0.000 A 
ATOM     32  C   UNL     1       6.140   6.096  17.858  0.00  0.00    +0.000 A 
ATOM     33  C   UNL     1       5.043   5.227  17.956  0.00  0.00    +0.000 A 
ENDBRANCH  19  20
ENDBRANCH  18  19
ENDBRANCH   1  18
TORSDOF 9
ENDMDL
MODEL 4
REMARK VINA RESULT:      -8.6      0.749      1.380
REMARK  Name = 
REMARK  9 active torsions:
REMARK  status: ('A' for Active; 'I' for Inactive)
REMARK    1  A    between atoms: C_4  and  C_5
REMARK    2  A    between atoms: C_5  and  N_6
REMARK    3  A    between atoms: N_6  and  C_7
REMARK    4  A    between atoms: N_6  and  C_25
REMARK    5  A    between atoms: C_7  and  C_8
REMARK    6  A    between atoms: C_8  and  C_9
REMARK    7  A    between atoms: C_9  and  C_10
REMARK    8  A    between atoms: C_10  and  N_11
REMARK    9  A    between atoms: C_25  and  C_26
REMARK                            x       y       z     vdW  Elec       q    Type
REMARK                         _______ _______ _______ _____ _____    ______ ____
ROOT
ATOM      1  C   UNL     1       1.623   8.896  17.714  0.00  0.00    +0.000 C 
ENDROOT
BRANCH   1   2
ATOM      2  C   UNL     1       1.676  10.356  18.180  0.00  0.00    +0.000 C 
BRANCH   2   3
ATOM      3  N   UNL     1       0.512  10.807  18.951  0.00  0.00    +0.000 NA
BRANCH   3   4
ATOM      4  C   UNL     1       0.892  11.285  20.297  0.00  0.00    +0.000 C 
BRANCH   4   8
ATOM      5  C   UNL     1      -2.387  12.452  22.865  0.00  0.00    +0.000 A 
ATOM      6  C   UNL     1      -2.038  13.242  21.772  0.00  0.00    +0.000 A 
ATOM      7  C   UNL     1      -0.938  12.891  20.972  0.00  0.00    +0.000 A 
ATOM      8  C   UNL     1      -0.197  11.742  21.254  0.00  0.00    +0.000 A 
ATOM      9  C   UNL     1      -0.549  10.962  22.365  0.00  0.00    +0.000 A 
ATOM     10  C   UNL     1      -1.636  11.318  23.168  0.00  0.00    +0.000 A 
ENDBRANCH   4   8
ENDBRANCH   3   4
BRANCH   3  11
ATOM     11  C   UNL     1      -0.602   9.842  18.942  0.00  0.00    +0.000 C 
BRANCH  11  12
ATOM     12  C   UNL     1      -1.763  10.235  18.043  0.00  0.00    +0.000 A 
ATOM     13  C   UNL     1      -1.863   9.761  16.725  0.00  0.00    +0.000 A 
ATOM     14  C   UNL     1      -2.860  10.235  15.874  0.00  0.00    +0.000 A 
ATOM     15  C   UNL     1      -3.802  11.145  16.346  0.00  0.00    +0.000 A 
ATOM     16  C   UNL     1      -3.769  11.555  17.677  0.00  0.00    +0.000 A 
ATOM     17  C   UNL     1      -2.760  11.095  18.526  0.00  0.00    +0.000 A 
ENDBRANCH  11  12
ENDBRANCH   3  11
ENDBRANCH   2   3
ENDBRANCH   1   2
BRANCH   1  18
ATOM     18  C   UNL     1       2.856   8.049  18.054  0.00  0.00    +0.000 C 
BRANCH  18  19
ATOM     19  C   UNL     1       2.563   6.540  18.027  0.00  0.00    +0.000 C 
BRANCH  19  20
ATOM     20  N   UNL     1       3.590   5.709  18.766  0.00  0.00    +0.000 N 
ATOM     21  C   UNL     1       2.865   4.658  19.435  0.00  0.00    +0.000 A 
ATOM     22  C   UNL     1       2.148   4.975  20.606  0.00  0.00    +0.000 A 
ATOM     23  C   UNL     1       1.430   3.999  21.299  0.00  0.00    +0.000 A 
ATOM     24  C   UNL     1       1.454   2.678  20.862  0.00  0.00    +0.000 A 
ATOM     25  C   UNL     1       2.163   2.345  19.707  0.00  0.00    +0.000 A 
ATOM     26  C   UNL     1       2.844   3.329  18.972  0.00  0.00    +0.000 A 
ATOM     27  S   UNL     1       3.529   2.845  17.397  0.00  0.00    +0.000 S 
ATOM     28  C   UNL     1       4.485   4.272  16.950  0.00  0.00    +0.000 A 
ATOM     29  C   UNL     1       5.107   4.306  15.698  0.00  0.00    +0.000 A 
ATOM     30  C   UNL     1       5.937   5.373  15.346  0.00  0.00    +0.000 A 
ATOM     31  C   UNL     1       6.249   6.346  16.290  0.00  0.00    +0.000 A 
ATOM     32  C   UNL     1       5.610   6.333  17.527  0.00  0.00    +0.000 A 
ATOM     33  C   UNL     1       4.609   5.388  17.793  0.00  0.00    +0.000 A 
ENDBRANCH  19  20
ENDBRANCH  18  19
ENDBRANCH   1  18
TORSDOF 9
ENDMDL
MODEL 5
REMARK VINA RESULT:      -8.6      2.859      8.892
REMARK  Name = 
REMARK  9 active torsions:
REMARK  status: ('A' for Active; 'I' for Inactive)
REMARK    1  A    between atoms: C_4  and  C_5
REMARK    2  A    between atoms: C_5  and  N_6
REMARK    3  A    between atoms: N_6  and  C_7
REMARK    4  A    between atoms: N_6  and  C_25
REMARK    5  A    between atoms: C_7  and  C_8
REMARK    6  A    between atoms: C_8  and  C_9
REMARK    7  A    between atoms: C_9  and  C_10
REMARK    8  A    between atoms: C_10  and  N_11
REMARK    9  A    between atoms: C_25  and  C_26
REMARK                            x       y       z     vdW  Elec       q    Type
REMARK                         _______ _______ _______ _____ _____    ______ ____
ROOT
ATOM      1  C   UNL     1       1.983   9.065  18.540  0.00  0.00    +0.000 C 
ENDROOT
BRANCH   1   2
ATOM      2  C   UNL     1       2.647   8.096  17.555  0.00  0.00    +0.000 C 
BRANCH   2   3
ATOM      3  N   UNL     1       2.959   6.770  18.100  0.00  0.00    +0.000 NA
BRANCH   3   4
ATOM      4  C   UNL     1       2.208   6.493  19.343  0.00  0.00    +0.000 C 
BRANCH   4   8
ATOM      5  C   UNL     1       1.438   2.461  20.706  0.00  0.00    +0.000 A 
ATOM      6  C   UNL     1       2.008   3.394  21.567  0.00  0.00    +0.000 A 
ATOM      7  C   UNL     1       2.309   4.686  21.107  0.00  0.00    +0.000 A 
ATOM      8  C   UNL     1       2.024   5.052  19.790  0.00  0.00    +0.000 A 
ATOM      9  C   UNL     1       1.463   4.099  18.927  0.00  0.00    +0.000 A 
ATOM     10  C   UNL     1       1.176   2.810  19.382  0.00  0.00    +0.000 A 
ENDBRANCH   4   8
ENDBRANCH   3   4
BRANCH   3  11
ATOM     11  C   UNL     1       4.405   6.502  18.193  0.00  0.00    +0.000 C 
BRANCH  11  12
ATOM     12  C   UNL     1       4.959   5.653  17.061  0.00  0.00    +0.000 A 
ATOM     13  C   UNL     1       5.301   6.217  15.821  0.00  0.00    +0.000 A 
ATOM     14  C   UNL     1       5.681   5.405  14.753  0.00  0.00    +0.000 A 
ATOM     15  C   UNL     1       5.778   4.028  14.928  0.00  0.00    +0.000 A 
ATOM     16  C   UNL     1       5.529   3.464  16.177  0.00  0.00    +0.000 A 
ATOM     17  C   UNL     1       5.130   4.273  17.243  0.00  0.00    +0.000 A 
ENDBRANCH  11  12
ENDBRANCH   3  11
ENDBRANCH   2   3
ENDBRANCH   1   2
BRANCH   1  18
ATOM     18  C   UNL     1       0.628   9.632  18.098  0.00  0.00    +0.000 C 
BRANCH  18  19
ATOM     19  C   UNL     1       0.160  10.802  18.979  0.00  0.00    +0.000 C 
BRANCH  19  20
ATOM     20  N   UNL     1       1.218  11.301  19.938  0.00  0.00    +0.000 N 
ATOM     21  C   UNL     1       1.592  12.619  19.489  0.00  0.00    +0.000 A 
ATOM     22  C   UNL     1       2.432  12.732  18.363  0.00  0.00    +0.000 A 
ATOM     23  C   UNL     1       2.831  13.982  17.884  0.00  0.00    +0.000 A 
ATOM     24  C   UNL     1       2.437  15.139  18.549  0.00  0.00    +0.000 A 
ATOM     25  C   UNL     1       1.609  15.044  19.668  0.00  0.00    +0.000 A 
ATOM     26  C   UNL     1       1.157  13.796  20.127  0.00  0.00    +0.000 A 
ATOM     27  S   UNL     1      -0.071  13.796  21.421  0.00  0.00    +0.000 S 
ATOM     28  C   UNL     1      -0.157  12.076  21.855  0.00  0.00    +0.000 A 
ATOM     29  C   UNL     1      -1.108  11.661  22.792  0.00  0.00    +0.000 A 
ATOM     30  C   UNL     1      -1.148  10.333  23.221  0.00  0.00    +0.000 A 
ATOM     31  C   UNL     1      -0.161   9.444  22.812  0.00  0.00    +0.000 A 
ATOM     32  C   UNL     1       0.771   9.844  21.858  0.00  0.00    +0.000 A 
ATOM     33  C   UNL     1       0.670  11.110  21.262  0.00  0.00    +0.000 A 
ENDBRANCH  19  20
ENDBRANCH  18  19
ENDBRANCH   1  18
TORSDOF 9
ENDMDL
MODEL 6
REMARK VINA RESULT:      -8.6      2.835      9.121
REMARK  Name = 
REMARK  9 active torsions:
REMARK  status: ('A' for Active; 'I' for Inactive)
REMARK    1  A    between atoms: C_4  and  C_5
REMARK    2  A    between atoms: C_5  and  N_6
REMARK    3  A    between atoms: N_6  and  C_7
REMARK    4  A    between atoms: N_6  and  C_25
REMARK    5  A    between atoms: C_7  and  C_8
REMARK    6  A    between atoms: C_8  and  C_9
REMARK    7  A    between atoms: C_9  and  C_10
REMARK    8  A    between atoms: C_10  and  N_11
REMARK    9  A    between atoms: C_25  and  C_26
REMARK                            x       y       z     vdW  Elec       q    Type
REMARK                         _______ _______ _______ _____ _____    ______ ____
ROOT
ATOM      1  C   UNL     1       1.729   9.239  18.225  0.00  0.00    +0.000 C 
ENDROOT
BRANCH   1   2
ATOM      2  C   UNL     1       2.076   8.044  19.123  0.00  0.00    +0.000 C 
BRANCH   2   3
ATOM      3  N   UNL     1       2.769   6.940  18.449  0.00  0.00    +0.000 NA
BRANCH   3   4
ATOM      4  C   UNL     1       3.884   7.421  17.607  0.00  0.00    +0.000 C 
BRANCH   4   8
ATOM      5  C   UNL     1       6.745   4.419  16.375  0.00  0.00    +0.000 A 
ATOM      6  C   UNL     1       6.574   4.711  17.726  0.00  0.00    +0.000 A 
ATOM      7  C   UNL     1       5.686   5.724  18.121  0.00  0.00    +0.000 A 
ATOM      8  C   UNL     1       4.955   6.436  17.167  0.00  0.00    +0.000 A 
ATOM      9  C   UNL     1       5.147   6.143  15.809  0.00  0.00    +0.000 A 
ATOM     10  C   UNL     1       6.040   5.143  15.416  0.00  0.00    +0.000 A 
ENDBRANCH   4   8
ENDBRANCH   3   4
BRANCH   3  11
ATOM     11  C   UNL     1       1.854   6.005  17.771  0.00  0.00    +0.000 C 
BRANCH  11  12
ATOM     12  C   UNL     1       1.971   4.564  18.240  0.00  0.00    +0.000 A 
ATOM     13  C   UNL     1       2.623   3.592  17.466  0.00  0.00    +0.000 A 
ATOM     14  C   UNL     1       2.606   2.251  17.848  0.00  0.00    +0.000 A 
ATOM     15  C   UNL     1       1.985   1.876  19.037  0.00  0.00    +0.000 A 
ATOM     16  C   UNL     1       1.413   2.843  19.860  0.00  0.00    +0.000 A 
ATOM     17  C   UNL     1       1.413   4.183  19.469  0.00  0.00    +0.000 A 
ENDBRANCH  11  12
ENDBRANCH   3  11
ENDBRANCH   2   3
ENDBRANCH   1   2
BRANCH   1  18
ATOM     18  C   UNL     1       0.261   9.684  18.255  0.00  0.00    +0.000 C 
BRANCH  18  19
ATOM     19  C   UNL     1       0.075  11.070  18.894  0.00  0.00    +0.000 C 
BRANCH  19  20
ATOM     20  N   UNL     1       1.181  11.449  19.855  0.00  0.00    +0.000 N 
ATOM     21  C   UNL     1       1.661  12.743  19.440  0.00  0.00    +0.000 A 
ATOM     22  C   UNL     1       2.497  12.819  18.308  0.00  0.00    +0.000 A 
ATOM     23  C   UNL     1       2.996  14.045  17.861  0.00  0.00    +0.000 A 
ATOM     24  C   UNL     1       2.708  15.210  18.564  0.00  0.00    +0.000 A 
ATOM     25  C   UNL     1       1.885  15.152  19.690  0.00  0.00    +0.000 A 
ATOM     26  C   UNL     1       1.334  13.933  20.117  0.00  0.00    +0.000 A 
ATOM     27  S   UNL     1       0.123  13.997  21.426  0.00  0.00    +0.000 S 
ATOM     28  C   UNL     1      -0.104  12.279  21.810  0.00  0.00    +0.000 A 
ATOM     29  C   UNL     1      -1.078  11.917  22.746  0.00  0.00    +0.000 A 
ATOM     30  C   UNL     1      -1.227  10.585  23.136  0.00  0.00    +0.000 A 
ATOM     31  C   UNL     1      -0.322   9.628  22.689  0.00  0.00    +0.000 A 
ATOM     32  C   UNL     1       0.631   9.977  21.736  0.00  0.00    +0.000 A 
ATOM     33  C   UNL     1       0.631  11.264  21.178  0.00  0.00    +0.000 A 
ENDBRANCH  19  20
ENDBRANCH  18  19
ENDBRANCH   1  18
TORSDOF 9
ENDMDL
MODEL 7
REMARK VINA RESULT:      -8.6      2.935      8.921
REMARK  Name = 
REMARK  9 active torsions:
REMARK  status: ('A' for Active; 'I' for Inactive)
REMARK    1  A    between atoms: C_4  and  C_5
REMARK    2  A    between atoms: C_5  and  N_6
REMARK    3  A    between atoms: N_6  and  C_7
REMARK    4  A    between atoms: N_6  and  C_25
REMARK    5  A    between atoms: C_7  and  C_8
REMARK    6  A    between atoms: C_8  and  C_9
REMARK    7  A    between atoms: C_9  and  C_10
REMARK    8  A    between atoms: C_10  and  N_11
REMARK    9  A    between atoms: C_25  and  C_26
REMARK                            x       y       z     vdW  Elec       q    Type
REMARK                         _______ _______ _______ _____ _____    ______ ____
ROOT
ATOM      1  C   UNL     1       2.195   8.823  18.574  0.00  0.00    +0.000 C 
ENDROOT
BRANCH   1   2
ATOM      2  C   UNL     1       2.950   7.904  17.606  0.00  0.00    +0.000 C 
BRANCH   2   3
ATOM      3  N   UNL     1       2.933   6.480  17.959  0.00  0.00    +0.000 NA
BRANCH   3   4
ATOM      4  C   UNL     1       2.893   6.274  19.423  0.00  0.00    +0.000 C 
BRANCH   4   8
ATOM      5  C   UNL     1       1.249   2.543  20.868  0.00  0.00    +0.000 A 
ATOM      6  C   UNL     1       0.856   3.049  19.632  0.00  0.00    +0.000 A 
ATOM      7  C   UNL     1       1.348   4.288  19.188  0.00  0.00    +0.000 A 
ATOM      8  C   UNL     1       2.246   5.014  19.974  0.00  0.00    +0.000 A 
ATOM      9  C   UNL     1       2.622   4.501  21.224  0.00  0.00    +0.000 A 
ATOM     10  C   UNL     1       2.123   3.275  21.670  0.00  0.00    +0.000 A 
ENDBRANCH   4   8
ENDBRANCH   3   4
BRANCH   3  11
ATOM     11  C   UNL     1       3.968   5.695  17.265  0.00  0.00    +0.000 C 
BRANCH  11  12
ATOM     12  C   UNL     1       5.386   5.974  17.734  0.00  0.00    +0.000 A 
ATOM     13  C   UNL     1       5.947   5.287  18.823  0.00  0.00    +0.000 A 
ATOM     14  C   UNL     1       7.198   5.649  19.322  0.00  0.00    +0.000 A 
ATOM     15  C   UNL     1       7.926   6.661  18.704  0.00  0.00    +0.000 A 
ATOM     16  C   UNL     1       7.422   7.289  17.567  0.00  0.00    +0.000 A 
ATOM     17  C   UNL     1       6.161   6.941  17.077  0.00  0.00    +0.000 A 
ENDBRANCH  11  12
ENDBRANCH   3  11
ENDBRANCH   2   3
ENDBRANCH   1   2
BRANCH   1  18
ATOM     18  C   UNL     1       1.073   9.662  17.950  0.00  0.00    +0.000 C 
BRANCH  18  19
ATOM     19  C   UNL     1       0.402  10.602  18.964  0.00  0.00    +0.000 C 
BRANCH  19  20
ATOM     20  N   UNL     1       1.369  11.229  19.944  0.00  0.00    +0.000 N 
ATOM     21  C   UNL     1       1.641  12.560  19.460  0.00  0.00    +0.000 A 
ATOM     22  C   UNL     1       2.513  12.712  18.364  0.00  0.00    +0.000 A 
ATOM     23  C   UNL     1       2.817  13.975  17.854  0.00  0.00    +0.000 A 
ATOM     24  C   UNL     1       2.293  15.113  18.459  0.00  0.00    +0.000 A 
ATOM     25  C   UNL     1       1.430  14.981  19.549  0.00  0.00    +0.000 A 
ATOM     26  C   UNL     1       1.075  13.713  20.036  0.00  0.00    +0.000 A 
ATOM     27  S   UNL     1      -0.201  13.643  21.281  0.00  0.00    +0.000 S 
ATOM     28  C   UNL     1      -0.149  11.939  21.776  0.00  0.00    +0.000 A 
ATOM     29  C   UNL     1      -1.097  11.471  22.691  0.00  0.00    +0.000 A 
ATOM     30  C   UNL     1      -1.034  10.160  23.168  0.00  0.00    +0.000 A 
ATOM     31  C   UNL     1       0.046   9.352  22.831  0.00  0.00    +0.000 A 
ATOM     32  C   UNL     1       0.976   9.803  21.898  0.00  0.00    +0.000 A 
ATOM     33  C   UNL     1       0.786  11.033  21.252  0.00  0.00    +0.000 A 
ENDBRANCH  19  20
ENDBRANCH  18  19
ENDBRANCH   1  18
TORSDOF 9
ENDMDL
MODEL 8
REMARK VINA RESULT:      -8.5      2.665      8.677
REMARK  Name = 
REMARK  9 active torsions:
REMARK  status: ('A' for Active; 'I' for Inactive)
REMARK    1  A    between atoms: C_4  and  C_5
REMARK    2  A    between atoms: C_5  and  N_6
REMARK    3  A    between atoms: N_6  and  C_7
REMARK    4  A    between atoms: N_6  and  C_25
REMARK    5  A    between atoms: C_7  and  C_8
REMARK    6  A    between atoms: C_8  and  C_9
REMARK    7  A    between atoms: C_9  and  C_10
REMARK    8  A    between atoms: C_10  and  N_11
REMARK    9  A    between atoms: C_25  and  C_26
REMARK                            x       y       z     vdW  Elec       q    Type
REMARK                         _______ _______ _______ _____ _____    ______ ____
ROOT
ATOM      1  C   UNL     1       1.638   8.437  18.028  0.00  0.00    +0.000 C 
ENDROOT
BRANCH   1   2
ATOM      2  C   UNL     1       2.984   7.804  17.653  0.00  0.00    +0.000 C 
BRANCH   2   3
ATOM      3  N   UNL     1       3.154   6.408  18.070  0.00  0.00    +0.000 NA
BRANCH   3   4
ATOM      4  C   UNL     1       4.269   5.750  17.356  0.00  0.00    +0.000 C 
BRANCH   4   8
ATOM      5  C   UNL     1       8.234   6.787  18.741  0.00  0.00    +0.000 A 
ATOM      6  C   UNL     1       7.681   7.444  17.645  0.00  0.00    +0.000 A 
ATOM      7  C   UNL     1       6.417   7.068  17.161  0.00  0.00    +0.000 A 
ATOM      8  C   UNL     1       5.697   6.047  17.785  0.00  0.00    +0.000 A 
ATOM      9  C   UNL     1       6.271   5.382  18.879  0.00  0.00    +0.000 A 
ATOM     10  C   UNL     1       7.534   5.748  19.351  0.00  0.00    +0.000 A 
ENDBRANCH   4   8
ENDBRANCH   3   4
BRANCH   3  11
ATOM     11  C   UNL     1       1.895   5.641  18.067  0.00  0.00    +0.000 C 
BRANCH  11  12
ATOM     12  C   UNL     1       1.816   4.566  19.138  0.00  0.00    +0.000 A 
ATOM     13  C   UNL     1       1.268   3.302  18.867  0.00  0.00    +0.000 A 
ATOM     14  C   UNL     1       1.082   2.375  19.892  0.00  0.00    +0.000 A 
ATOM     15  C   UNL     1       1.492   2.679  21.187  0.00  0.00    +0.000 A 
ATOM     16  C   UNL     1       2.120   3.894  21.452  0.00  0.00    +0.000 A 
ATOM     17  C   UNL     1       2.290   4.831  20.430  0.00  0.00    +0.000 A 
ENDBRANCH  11  12
ENDBRANCH   3  11
ENDBRANCH   2   3
ENDBRANCH   1   2
BRANCH   1  18
ATOM     18  C   UNL     1       1.668   9.391  19.229  0.00  0.00    +0.000 C 
BRANCH  18  19
ATOM     19  C   UNL     1       0.295  10.017  19.523  0.00  0.00    +0.000 C 
BRANCH  19  20
ATOM     20  N   UNL     1      -0.060  11.163  18.601  0.00  0.00    +0.000 N 
ATOM     21  C   UNL     1      -1.451  11.000  18.259  0.00  0.00    +0.000 A 
ATOM     22  C   UNL     1      -1.800  10.014  17.314  0.00  0.00    +0.000 A 
ATOM     23  C   UNL     1      -3.130   9.812  16.941  0.00  0.00    +0.000 A 
ATOM     24  C   UNL     1      -4.130  10.624  17.467  0.00  0.00    +0.000 A 
ATOM     25  C   UNL     1      -3.801  11.608  18.401  0.00  0.00    +0.000 A 
ATOM     26  C   UNL     1      -2.474  11.784  18.824  0.00  0.00    +0.000 A 
ATOM     27  S   UNL     1      -2.190  12.910  20.178  0.00  0.00    +0.000 S 
ATOM     28  C   UNL     1      -0.419  13.019  20.209  0.00  0.00    +0.000 A 
ATOM     29  C   UNL     1       0.196  13.755  21.228  0.00  0.00    +0.000 A 
ATOM     30  C   UNL     1       1.581  13.934  21.235  0.00  0.00    +0.000 A 
ATOM     31  C   UNL     1       2.342  13.487  20.161  0.00  0.00    +0.000 A 
ATOM     32  C   UNL     1       1.739  12.730  19.160  0.00  0.00    +0.000 A 
ATOM     33  C   UNL     1       0.391  12.361  19.272  0.00  0.00    +0.000 A 
ENDBRANCH  19  20
ENDBRANCH  18  19
ENDBRANCH   1  18
TORSDOF 9
ENDMDL
MODEL 9
REMARK VINA RESULT:      -8.5      0.762      3.462
REMARK  Name = 
REMARK  9 active torsions:
REMARK  status: ('A' for Active; 'I' for Inactive)
REMARK    1  A    between atoms: C_4  and  C_5
REMARK    2  A    between atoms: C_5  and  N_6
REMARK    3  A    between atoms: N_6  and  C_7
REMARK    4  A    between atoms: N_6  and  C_25
REMARK    5  A    between atoms: C_7  and  C_8
REMARK    6  A    between atoms: C_8  and  C_9
REMARK    7  A    between atoms: C_9  and  C_10
REMARK    8  A    between atoms: C_10  and  N_11
REMARK    9  A    between atoms: C_25  and  C_26
REMARK                            x       y       z     vdW  Elec       q    Type
REMARK                         _______ _______ _______ _____ _____    ______ ____
ROOT
ATOM      1  C   UNL     1       1.722   8.694  17.777  0.00  0.00    +0.000 C 
ENDROOT
BRANCH   1   2
ATOM      2  C   UNL     1       1.689  10.185  18.132  0.00  0.00    +0.000 C 
BRANCH   2   3
ATOM      3  N   UNL     1       0.657  10.572  19.100  0.00  0.00    +0.000 NA
BRANCH   3   4
ATOM      4  C   UNL     1      -0.277  11.573  18.541  0.00  0.00    +0.000 C 
BRANCH   4   8
ATOM      5  C   UNL     1      -4.353  10.583  17.481  0.00  0.00    +0.000 A 
ATOM      6  C   UNL     1      -4.096  11.575  18.424  0.00  0.00    +0.000 A 
ATOM      7  C   UNL     1      -2.774  11.856  18.809  0.00  0.00    +0.000 A 
ATOM      8  C   UNL     1      -1.708  11.159  18.238  0.00  0.00    +0.000 A 
ATOM      9  C   UNL     1      -1.980  10.152  17.300  0.00  0.00    +0.000 A 
ATOM     10  C   UNL     1      -3.296   9.864  16.927  0.00  0.00    +0.000 A 
ENDBRANCH   4   8
ENDBRANCH   3   4
BRANCH   3  11
ATOM     11  C   UNL     1       1.201  10.923  20.424  0.00  0.00    +0.000 C 
BRANCH  11  12
ATOM     12  C   UNL     1       0.207  11.605  21.349  0.00  0.00    +0.000 A 
ATOM     13  C   UNL     1       0.203  12.999  21.521  0.00  0.00    +0.000 A 
ATOM     14  C   UNL     1      -0.626  13.595  22.471  0.00  0.00    +0.000 A 
ATOM     15  C   UNL     1      -1.500  12.811  23.218  0.00  0.00    +0.000 A 
ATOM     16  C   UNL     1      -1.572  11.438  22.994  0.00  0.00    +0.000 A 
ATOM     17  C   UNL     1      -0.729  10.838  22.056  0.00  0.00    +0.000 A 
ENDBRANCH  11  12
ENDBRANCH   3  11
ENDBRANCH   2   3
ENDBRANCH   1   2
BRANCH   1  18
ATOM     18  C   UNL     1       2.607   7.819  18.674  0.00  0.00    +0.000 C 
BRANCH  18  19
ATOM     19  C   UNL     1       3.120   6.561  17.954  0.00  0.00    +0.000 C 
BRANCH  19  20
ATOM     20  N   UNL     1       3.928   5.641  18.843  0.00  0.00    +0.000 N 
ATOM     21  C   UNL     1       3.015   4.642  19.340  0.00  0.00    +0.000 A 
ATOM     22  C   UNL     1       2.123   5.000  20.371  0.00  0.00    +0.000 A 
ATOM     23  C   UNL     1       1.219   4.075  20.895  0.00  0.00    +0.000 A 
ATOM     24  C   UNL     1       1.222   2.762  20.433  0.00  0.00    +0.000 A 
ATOM     25  C   UNL     1       2.101   2.390  19.416  0.00  0.00    +0.000 A 
ATOM     26  C   UNL     1       2.978   3.326  18.843  0.00  0.00    +0.000 A 
ATOM     27  S   UNL     1       3.899   2.810  17.405  0.00  0.00    +0.000 S 
ATOM     28  C   UNL     1       5.027   4.162  17.179  0.00  0.00    +0.000 A 
ATOM     29  C   UNL     1       5.867   4.163  16.061  0.00  0.00    +0.000 A 
ATOM     30  C   UNL     1       6.826   5.165  15.895  0.00  0.00    +0.000 A 
ATOM     31  C   UNL     1       7.034   6.097  16.906  0.00  0.00    +0.000 A 
ATOM     32  C   UNL     1       6.182   6.118  18.006  0.00  0.00    +0.000 A 
ATOM     33  C   UNL     1       5.080   5.253  18.061  0.00  0.00    +0.000 A 
ENDBRANCH  19  20
ENDBRANCH  18  19
ENDBRANCH   1  18
TORSDOF 9
ENDMDL
