MODEL 1
REMARK VINA RESULT:      -7.7      0.000      0.000
REMARK  Name = 
REMARK  8 active torsions:
REMARK  status: ('A' for Active; 'I' for Inactive)
REMARK    1  A    between atoms: C_1  and  C_2
REMARK    2  A    between atoms: C_2  and  N_3
REMARK    3  A    between atoms: N_3  and  C_4
REMARK    4  A    between atoms: N_3  and  C_6
REMARK    5  A    between atoms: C_4  and  C_5
REMARK    6  A    between atoms: C_9  and  N_10
REMARK    7  A    between atoms: N_11  and  C_12
REMARK    8  A    between atoms: C_15  and  C_16
REMARK                            x       y       z     vdW  Elec       q    Type
REMARK                         _______ _______ _______ _____ _____    ______ ____
ROOT
ATOM      1  C   UNL     1       0.889   9.531  19.810  0.00  0.00    +0.000 A 
ATOM      2  C   UNL     1       1.294   9.709  18.483  0.00  0.00    +0.000 A 
ATOM      3  C   UNL     1       2.120   8.776  17.848  0.00  0.00    +0.000 A 
ATOM      4  C   UNL     1       2.567   7.633  18.524  0.00  0.00    +0.000 A 
ATOM      5  C   UNL     1       2.167   7.448  19.853  0.00  0.00    +0.000 A 
ATOM      6  C   UNL     1       1.345   8.391  20.489  0.00  0.00    +0.000 A 
ENDROOT
BRANCH   4   7
ATOM      7  C   UNL     1       3.454   6.695  17.831  0.00  0.00    +0.000 A 
ATOM      8  N   UNL     1       3.345   5.380  17.753  0.00  0.00    +0.000 NA
ATOM      9  C   UNL     1       4.401   5.025  16.960  0.00  0.00    +0.000 A 
ATOM     10  C   UNL     1       4.826   3.779  16.483  0.00  0.00    +0.000 A 
ATOM     11  C   UNL     1       5.962   3.772  15.670  0.00  0.00    +0.000 A 
ATOM     12  C   UNL     1       6.607   4.973  15.386  0.00  0.00    +0.000 A 
ATOM     13  N   UNL     1       6.232   6.201  15.822  0.00  0.00    +0.000 NA
ATOM     14  C   UNL     1       5.134   6.147  16.596  0.00  0.00    +0.000 A 
ATOM     15  O   UNL     1       4.523   7.232  17.160  0.00  0.00    +0.000 OA
ENDBRANCH   4   7
BRANCH   1  17
ATOM     16  N   UNL     1       0.568  11.081  21.366  0.00  0.00    +0.000 NA
ATOM     17  N   UNL     1       0.058  10.522  20.374  0.00  0.00    +0.000 NA
BRANCH  16  21
ATOM     18  C   UNL     1      -2.296  13.623  23.290  0.00  0.00    +0.000 A 
ATOM     19  C   UNL     1      -2.331  12.219  23.367  0.00  0.00    +0.000 A 
ATOM     20  C   UNL     1      -1.383  11.405  22.729  0.00  0.00    +0.000 A 
ATOM     21  C   UNL     1      -0.331  11.957  22.005  0.00  0.00    +0.000 A 
ATOM     22  C   UNL     1      -0.217  13.347  21.988  0.00  0.00    +0.000 A 
ATOM     23  C   UNL     1      -1.180  14.157  22.615  0.00  0.00    +0.000 A 
BRANCH  18  24
ATOM     24  N   UNL     1      -3.311  14.434  23.814  0.00  0.00    +0.000 N 
BRANCH  24  26
ATOM     25  C   UNL     1      -5.651  15.255  23.760  0.00  0.00    +0.000 C 
ATOM     26  C   UNL     1      -4.721  14.048  23.674  0.00  0.00    +0.000 C 
ENDBRANCH  24  26
BRANCH  24  27
ATOM     27  C   UNL     1      -2.928  15.600  24.632  0.00  0.00    +0.000 C 
ATOM     28  C   UNL     1      -2.063  15.325  25.851  0.00  0.00    +0.000 C 
ENDBRANCH  24  27
ENDBRANCH  18  24
ENDBRANCH  16  21
ENDBRANCH   1  17
TORSDOF 6
ENDMDL
MODEL 2
REMARK VINA RESULT:      -7.7      0.461      1.274
REMARK  Name = 
REMARK  8 active torsions:
REMARK  status: ('A' for Active; 'I' for Inactive)
REMARK    1  A    between atoms: C_1  and  C_2
REMARK    2  A    between atoms: C_2  and  N_3
REMARK    3  A    between atoms: N_3  and  C_4
REMARK    4  A    between atoms: N_3  and  C_6
REMARK    5  A    between atoms: C_4  and  C_5
REMARK    6  A    between atoms: C_9  and  N_10
REMARK    7  A    between atoms: N_11  and  C_12
REMARK    8  A    between atoms: C_15  and  C_16
REMARK                            x       y       z     vdW  Elec       q    Type
REMARK                         _______ _______ _______ _____ _____    ______ ____
ROOT
ATOM      1  C   UNL     1       0.876   9.386  19.887  0.00  0.00    +0.000 A 
ATOM      2  C   UNL     1       1.245   9.581  18.552  0.00  0.00    +0.000 A 
ATOM      3  C   UNL     1       2.087   8.677  17.895  0.00  0.00    +0.000 A 
ATOM      4  C   UNL     1       2.587   7.548  18.558  0.00  0.00    +0.000 A 
ATOM      5  C   UNL     1       2.223   7.346  19.895  0.00  0.00    +0.000 A 
ATOM      6  C   UNL     1       1.385   8.260  20.552  0.00  0.00    +0.000 A 
ENDROOT
BRANCH   4   7
ATOM      7  C   UNL     1       3.488   6.642  17.842  0.00  0.00    +0.000 A 
ATOM      8  N   UNL     1       3.385   5.331  17.709  0.00  0.00    +0.000 NA
ATOM      9  C   UNL     1       4.456   5.012  16.920  0.00  0.00    +0.000 A 
ATOM     10  C   UNL     1       4.893   3.788  16.399  0.00  0.00    +0.000 A 
ATOM     11  C   UNL     1       6.043   3.817  15.606  0.00  0.00    +0.000 A 
ATOM     12  C   UNL     1       6.688   5.030  15.383  0.00  0.00    +0.000 A 
ATOM     13  N   UNL     1       6.301   6.238  15.862  0.00  0.00    +0.000 NA
ATOM     14  C   UNL     1       5.191   6.150  16.614  0.00  0.00    +0.000 A 
ATOM     15  O   UNL     1       4.566   7.209  17.212  0.00  0.00    +0.000 OA
ENDBRANCH   4   7
BRANCH   1  17
ATOM     16  N   UNL     1       0.543  10.929  21.447  0.00  0.00    +0.000 NA
ATOM     17  N   UNL     1       0.025  10.348  20.473  0.00  0.00    +0.000 NA
BRANCH  16  21
ATOM     18  C   UNL     1      -2.358  13.373  23.442  0.00  0.00    +0.000 A 
ATOM     19  C   UNL     1      -2.368  11.967  23.486  0.00  0.00    +0.000 A 
ATOM     20  C   UNL     1      -1.408  11.186  22.826  0.00  0.00    +0.000 A 
ATOM     21  C   UNL     1      -0.369  11.773  22.110  0.00  0.00    +0.000 A 
ATOM     22  C   UNL     1      -0.280  13.165  22.126  0.00  0.00    +0.000 A 
ATOM     23  C   UNL     1      -1.255  13.942  22.776  0.00  0.00    +0.000 A 
BRANCH  18  24
ATOM     24  N   UNL     1      -3.385  14.153  23.989  0.00  0.00    +0.000 N 
BRANCH  24  26
ATOM     25  C   UNL     1      -3.298  16.530  24.690  0.00  0.00    +0.000 C 
ATOM     26  C   UNL     1      -3.112  15.073  25.101  0.00  0.00    +0.000 C 
ENDBRANCH  24  26
BRANCH  24  27
ATOM     27  C   UNL     1      -4.705  14.140  23.329  0.00  0.00    +0.000 C 
ATOM     28  C   UNL     1      -4.725  14.425  21.837  0.00  0.00    +0.000 C 
ENDBRANCH  24  27
ENDBRANCH  18  24
ENDBRANCH  16  21
ENDBRANCH   1  17
TORSDOF 6
ENDMDL
MODEL 3
REMARK VINA RESULT:      -7.7      0.905      1.543
REMARK  Name = 
REMARK  8 active torsions:
REMARK  status: ('A' for Active; 'I' for Inactive)
REMARK    1  A    between atoms: C_1  and  C_2
REMARK    2  A    between atoms: C_2  and  N_3
REMARK    3  A    between atoms: N_3  and  C_4
REMARK    4  A    between atoms: N_3  and  C_6
REMARK    5  A    between atoms: C_4  and  C_5
REMARK    6  A    between atoms: C_9  and  N_10
REMARK    7  A    between atoms: N_11  and  C_12
REMARK    8  A    between atoms: C_15  and  C_16
REMARK                            x       y       z     vdW  Elec       q    Type
REMARK                         _______ _______ _______ _____ _____    ______ ____
ROOT
ATOM      1  C   UNL     1       1.007   8.917  20.275  0.00  0.00    +0.000 A 
ATOM      2  C   UNL     1       1.361   9.283  18.973  0.00  0.00    +0.000 A 
ATOM      3  C   UNL     1       2.175   8.461  18.186  0.00  0.00    +0.000 A 
ATOM      4  C   UNL     1       2.661   7.243  18.684  0.00  0.00    +0.000 A 
ATOM      5  C   UNL     1       2.312   6.871  19.987  0.00  0.00    +0.000 A 
ATOM      6  C   UNL     1       1.502   7.703  20.774  0.00  0.00    +0.000 A 
ENDROOT
BRANCH   4   7
ATOM      7  C   UNL     1       3.534   6.425  17.837  0.00  0.00    +0.000 A 
ATOM      8  N   UNL     1       3.633   5.108  17.806  0.00  0.00    +0.000 NA
ATOM      9  C   UNL     1       4.551   4.887  16.818  0.00  0.00    +0.000 A 
ATOM     10  C   UNL     1       5.074   3.702  16.284  0.00  0.00    +0.000 A 
ATOM     11  C   UNL     1       6.008   3.835  15.254  0.00  0.00    +0.000 A 
ATOM     12  C   UNL     1       6.371   5.108  14.822  0.00  0.00    +0.000 A 
ATOM     13  N   UNL     1       5.892   6.281  15.305  0.00  0.00    +0.000 NA
ATOM     14  C   UNL     1       4.998   6.092  16.290  0.00  0.00    +0.000 A 
ATOM     15  O   UNL     1       4.340   7.091  16.950  0.00  0.00    +0.000 OA
ENDBRANCH   4   7
BRANCH   1  17
ATOM     16  N   UNL     1      -0.419  10.617  20.268  0.00  0.00    +0.000 NA
ATOM     17  N   UNL     1       0.184   9.806  20.999  0.00  0.00    +0.000 NA
BRANCH  16  21
ATOM     18  C   UNL     1      -2.501  13.483  22.682  0.00  0.00    +0.000 A 
ATOM     19  C   UNL     1      -1.387  12.751  23.135  0.00  0.00    +0.000 A 
ATOM     20  C   UNL     1      -0.719  11.819  22.327  0.00  0.00    +0.000 A 
ATOM     21  C   UNL     1      -1.116  11.590  21.012  0.00  0.00    +0.000 A 
ATOM     22  C   UNL     1      -2.158  12.366  20.507  0.00  0.00    +0.000 A 
ATOM     23  C   UNL     1      -2.834  13.288  21.327  0.00  0.00    +0.000 A 
BRANCH  18  24
ATOM     24  N   UNL     1      -3.249  14.317  23.523  0.00  0.00    +0.000 N 
BRANCH  24  26
ATOM     25  C   UNL     1      -2.343  15.695  25.375  0.00  0.00    +0.000 C 
ATOM     26  C   UNL     1      -2.741  15.641  23.903  0.00  0.00    +0.000 C 
ENDBRANCH  24  26
BRANCH  24  27
ATOM     27  C   UNL     1      -4.614  13.899  23.895  0.00  0.00    +0.000 C 
ATOM     28  C   UNL     1      -4.751  12.556  24.594  0.00  0.00    +0.000 C 
ENDBRANCH  24  27
ENDBRANCH  18  24
ENDBRANCH  16  21
ENDBRANCH   1  17
TORSDOF 6
ENDMDL
MODEL 4
REMARK VINA RESULT:      -7.6      0.840      1.332
REMARK  Name = 
REMARK  8 active torsions:
REMARK  status: ('A' for Active; 'I' for Inactive)
REMARK    1  A    between atoms: C_1  and  C_2
REMARK    2  A    between atoms: C_2  and  N_3
REMARK    3  A    between atoms: N_3  and  C_4
REMARK    4  A    between atoms: N_3  and  C_6
REMARK    5  A    between atoms: C_4  and  C_5
REMARK    6  A    between atoms: C_9  and  N_10
REMARK    7  A    between atoms: N_11  and  C_12
REMARK    8  A    between atoms: C_15  and  C_16
REMARK                            x       y       z     vdW  Elec       q    Type
REMARK                         _______ _______ _______ _____ _____    ______ ____
ROOT
ATOM      1  C   UNL     1       0.848   9.254  20.012  0.00  0.00    +0.000 A 
ATOM      2  C   UNL     1       1.407   8.110  20.590  0.00  0.00    +0.000 A 
ATOM      3  C   UNL     1       2.265   7.278  19.863  0.00  0.00    +0.000 A 
ATOM      4  C   UNL     1       2.591   7.569  18.531  0.00  0.00    +0.000 A 
ATOM      5  C   UNL     1       2.034   8.712  17.945  0.00  0.00    +0.000 A 
ATOM      6  C   UNL     1       1.167   9.538  18.676  0.00  0.00    +0.000 A 
ENDROOT
BRANCH   4   7
ATOM      7  C   UNL     1       3.471   6.656  17.797  0.00  0.00    +0.000 A 
ATOM      8  N   UNL     1       3.472   5.335  17.818  0.00  0.00    +0.000 NA
ATOM      9  C   UNL     1       4.456   5.009  16.926  0.00  0.00    +0.000 A 
ATOM     10  C   UNL     1       4.933   3.769  16.483  0.00  0.00    +0.000 A 
ATOM     11  C   UNL     1       5.963   3.793  15.539  0.00  0.00    +0.000 A 
ATOM     12  C   UNL     1       6.460   5.018  15.101  0.00  0.00    +0.000 A 
ATOM     13  N   UNL     1       6.030   6.241  15.500  0.00  0.00    +0.000 NA
ATOM     14  C   UNL     1       5.039   6.156  16.403  0.00  0.00    +0.000 A 
ATOM     15  O   UNL     1       4.402   7.226  16.967  0.00  0.00    +0.000 OA
ENDBRANCH   4   7
BRANCH   1  17
ATOM     16  N   UNL     1      -0.645  10.889  20.166  0.00  0.00    +0.000 NA
ATOM     17  N   UNL     1      -0.009  10.035  20.816  0.00  0.00    +0.000 NA
BRANCH  16  21
ATOM     18  C   UNL     1      -2.889  13.393  22.824  0.00  0.00    +0.000 A 
ATOM     19  C   UNL     1      -2.005  12.390  23.265  0.00  0.00    +0.000 A 
ATOM     20  C   UNL     1      -1.280  11.582  22.377  0.00  0.00    +0.000 A 
ATOM     21  C   UNL     1      -1.379  11.755  21.000  0.00  0.00    +0.000 A 
ATOM     22  C   UNL     1      -2.176  12.802  20.536  0.00  0.00    +0.000 A 
ATOM     23  C   UNL     1      -2.914  13.597  21.430  0.00  0.00    +0.000 A 
BRANCH  18  24
ATOM     24  N   UNL     1      -3.712  14.113  23.699  0.00  0.00    +0.000 N 
BRANCH  24  26
ATOM     25  C   UNL     1      -5.945  13.054  23.911  0.00  0.00    +0.000 C 
ATOM     26  C   UNL     1      -5.147  14.260  23.423  0.00  0.00    +0.000 C 
ENDBRANCH  24  26
BRANCH  24  27
ATOM     27  C   UNL     1      -3.138  14.591  24.971  0.00  0.00    +0.000 C 
ATOM     28  C   UNL     1      -2.872  16.083  25.083  0.00  0.00    +0.000 C 
ENDBRANCH  24  27
ENDBRANCH  18  24
ENDBRANCH  16  21
ENDBRANCH   1  17
TORSDOF 6
ENDMDL
MODEL 5
REMARK VINA RESULT:      -7.6      0.869      1.694
REMARK  Name = 
REMARK  8 active torsions:
REMARK  status: ('A' for Active; 'I' for Inactive)
REMARK    1  A    between atoms: C_1  and  C_2
REMARK    2  A    between atoms: C_2  and  N_3
REMARK    3  A    between atoms: N_3  and  C_4
REMARK    4  A    between atoms: N_3  and  C_6
REMARK    5  A    between atoms: C_4  and  C_5
REMARK    6  A    between atoms: C_9  and  N_10
REMARK    7  A    between atoms: N_11  and  C_12
REMARK    8  A    between atoms: C_15  and  C_16
REMARK                            x       y       z     vdW  Elec       q    Type
REMARK                         _______ _______ _______ _____ _____    ______ ____
ROOT
ATOM      1  C   UNL     1       0.843   9.245  19.875  0.00  0.00    +0.000 A 
ATOM      2  C   UNL     1       1.445   8.143  20.489  0.00  0.00    +0.000 A 
ATOM      3  C   UNL     1       2.319   7.310  19.782  0.00  0.00    +0.000 A 
ATOM      4  C   UNL     1       2.616   7.556  18.435  0.00  0.00    +0.000 A 
ATOM      5  C   UNL     1       2.016   8.658  17.813  0.00  0.00    +0.000 A 
ATOM      6  C   UNL     1       1.134   9.485  18.524  0.00  0.00    +0.000 A 
ENDROOT
BRANCH   4   7
ATOM      7  C   UNL     1       3.515   6.643  17.724  0.00  0.00    +0.000 A 
ATOM      8  N   UNL     1       3.512   5.322  17.744  0.00  0.00    +0.000 NA
ATOM      9  C   UNL     1       4.520   4.994  16.879  0.00  0.00    +0.000 A 
ATOM     10  C   UNL     1       5.006   3.754  16.448  0.00  0.00    +0.000 A 
ATOM     11  C   UNL     1       6.061   3.777  15.533  0.00  0.00    +0.000 A 
ATOM     12  C   UNL     1       6.573   5.001  15.110  0.00  0.00    +0.000 A 
ATOM     13  N   UNL     1       6.134   6.224  15.497  0.00  0.00    +0.000 NA
ATOM     14  C   UNL     1       5.119   6.141  16.374  0.00  0.00    +0.000 A 
ATOM     15  O   UNL     1       4.469   7.212  16.920  0.00  0.00    +0.000 OA
ENDBRANCH   4   7
BRANCH   1  17
ATOM     16  N   UNL     1      -0.376  11.087  20.095  0.00  0.00    +0.000 NA
ATOM     17  N   UNL     1      -0.027  10.031  20.660  0.00  0.00    +0.000 NA
BRANCH  16  21
ATOM     18  C   UNL     1      -2.564  13.560  22.828  0.00  0.00    +0.000 A 
ATOM     19  C   UNL     1      -1.282  13.048  23.102  0.00  0.00    +0.000 A 
ATOM     20  C   UNL     1      -0.583  12.240  22.192  0.00  0.00    +0.000 A 
ATOM     21  C   UNL     1      -1.120  11.927  20.947  0.00  0.00    +0.000 A 
ATOM     22  C   UNL     1      -2.348  12.496  20.611  0.00  0.00    +0.000 A 
ATOM     23  C   UNL     1      -3.051  13.291  21.533  0.00  0.00    +0.000 A 
BRANCH  18  24
ATOM     24  N   UNL     1      -3.319  14.256  23.780  0.00  0.00    +0.000 N 
BRANCH  24  26
ATOM     25  C   UNL     1      -3.941  16.381  24.897  0.00  0.00    +0.000 C 
ATOM     26  C   UNL     1      -2.811  15.502  24.369  0.00  0.00    +0.000 C 
ENDBRANCH  24  26
BRANCH  24  27
ATOM     27  C   UNL     1      -4.689  13.792  24.067  0.00  0.00    +0.000 C 
ATOM     28  C   UNL     1      -4.825  12.438  24.744  0.00  0.00    +0.000 C 
ENDBRANCH  24  27
ENDBRANCH  18  24
ENDBRANCH  16  21
ENDBRANCH   1  17
TORSDOF 6
ENDMDL
MODEL 6
REMARK VINA RESULT:      -7.6      2.604     11.561
REMARK  Name = 
REMARK  8 active torsions:
REMARK  status: ('A' for Active; 'I' for Inactive)
REMARK    1  A    between atoms: C_1  and  C_2
REMARK    2  A    between atoms: C_2  and  N_3
REMARK    3  A    between atoms: N_3  and  C_4
REMARK    4  A    between atoms: N_3  and  C_6
REMARK    5  A    between atoms: C_4  and  C_5
REMARK    6  A    between atoms: C_9  and  N_10
REMARK    7  A    between atoms: N_11  and  C_12
REMARK    8  A    between atoms: C_15  and  C_16
REMARK                            x       y       z     vdW  Elec       q    Type
REMARK                         _______ _______ _______ _____ _____    ______ ____
ROOT
ATOM      1  C   UNL     1       0.604   9.509  21.647  0.00  0.00    +0.000 A 
ATOM      2  C   UNL     1       0.737  10.787  21.097  0.00  0.00    +0.000 A 
ATOM      3  C   UNL     1       0.004  11.869  21.597  0.00  0.00    +0.000 A 
ATOM      4  C   UNL     1      -0.888  11.701  22.665  0.00  0.00    +0.000 A 
ATOM      5  C   UNL     1      -1.027  10.424  23.220  0.00  0.00    +0.000 A 
ATOM      6  C   UNL     1      -0.296   9.341  22.710  0.00  0.00    +0.000 A 
ENDROOT
BRANCH   4   7
ATOM      7  C   UNL     1      -1.657  12.855  23.140  0.00  0.00    +0.000 A 
ATOM      8  N   UNL     1      -2.941  13.106  22.955  0.00  0.00    +0.000 NA
ATOM      9  C   UNL     1      -3.133  14.274  23.641  0.00  0.00    +0.000 A 
ATOM     10  C   UNL     1      -4.280  15.049  23.851  0.00  0.00    +0.000 A 
ATOM     11  C   UNL     1      -4.125  16.203  24.623  0.00  0.00    +0.000 A 
ATOM     12  C   UNL     1      -2.868  16.523  25.130  0.00  0.00    +0.000 A 
ATOM     13  N   UNL     1      -1.732  15.804  24.955  0.00  0.00    +0.000 NA
ATOM     14  C   UNL     1      -1.941  14.706  24.208  0.00  0.00    +0.000 A 
ATOM     15  O   UNL     1      -0.982  13.788  23.884  0.00  0.00    +0.000 OA
ENDBRANCH   4   7
BRANCH   1  17
ATOM     16  N   UNL     1       1.564   8.617  19.855  0.00  0.00    +0.000 NA
ATOM     17  N   UNL     1       1.379   8.475  21.081  0.00  0.00    +0.000 NA
BRANCH  16  21
ATOM     18  C   UNL     1       3.551   5.166  18.271  0.00  0.00    +0.000 A 
ATOM     19  C   UNL     1       2.788   5.147  19.453  0.00  0.00    +0.000 A 
ATOM     20  C   UNL     1       2.145   6.289  19.954  0.00  0.00    +0.000 A 
ATOM     21  C   UNL     1       2.208   7.505  19.280  0.00  0.00    +0.000 A 
ATOM     22  C   UNL     1       2.879   7.532  18.058  0.00  0.00    +0.000 A 
ATOM     23  C   UNL     1       3.536   6.389  17.570  0.00  0.00    +0.000 A 
BRANCH  18  24
ATOM     24  N   UNL     1       4.301   4.065  17.837  0.00  0.00    +0.000 N 
BRANCH  24  26
ATOM     25  C   UNL     1       3.373   1.776  18.058  0.00  0.00    +0.000 C 
ATOM     26  C   UNL     1       4.326   2.825  18.623  0.00  0.00    +0.000 C 
ENDBRANCH  24  26
BRANCH  24  27
ATOM     27  C   UNL     1       4.939   4.128  16.509  0.00  0.00    +0.000 C 
ATOM     28  C   UNL     1       6.438   4.373  16.482  0.00  0.00    +0.000 C 
ENDBRANCH  24  27
ENDBRANCH  18  24
ENDBRANCH  16  21
ENDBRANCH   1  17
TORSDOF 6
ENDMDL
MODEL 7
REMARK VINA RESULT:      -7.6      0.529      1.037
REMARK  Name = 
REMARK  8 active torsions:
REMARK  status: ('A' for Active; 'I' for Inactive)
REMARK    1  A    between atoms: C_1  and  C_2
REMARK    2  A    between atoms: C_2  and  N_3
REMARK    3  A    between atoms: N_3  and  C_4
REMARK    4  A    between atoms: N_3  and  C_6
REMARK    5  A    between atoms: C_4  and  C_5
REMARK    6  A    between atoms: C_9  and  N_10
REMARK    7  A    between atoms: N_11  and  C_12
REMARK    8  A    between atoms: C_15  and  C_16
REMARK                            x       y       z     vdW  Elec       q    Type
REMARK                         _______ _______ _______ _____ _____    ______ ____
ROOT
ATOM      1  C   UNL     1       0.956   9.589  19.693  0.00  0.00    +0.000 A 
ATOM      2  C   UNL     1       1.365   9.753  18.367  0.00  0.00    +0.000 A 
ATOM      3  C   UNL     1       2.176   8.802  17.737  0.00  0.00    +0.000 A 
ATOM      4  C   UNL     1       2.602   7.655  18.420  0.00  0.00    +0.000 A 
ATOM      5  C   UNL     1       2.197   7.484  19.750  0.00  0.00    +0.000 A 
ATOM      6  C   UNL     1       1.392   8.445  20.379  0.00  0.00    +0.000 A 
ENDROOT
BRANCH   4   7
ATOM      7  C   UNL     1       3.473   6.698  17.733  0.00  0.00    +0.000 A 
ATOM      8  N   UNL     1       3.449   5.379  17.806  0.00  0.00    +0.000 NA
ATOM      9  C   UNL     1       4.437   4.999  16.940  0.00  0.00    +0.000 A 
ATOM     10  C   UNL     1       4.894   3.734  16.551  0.00  0.00    +0.000 A 
ATOM     11  C   UNL     1       5.935   3.701  15.620  0.00  0.00    +0.000 A 
ATOM     12  C   UNL     1       6.460   4.898  15.140  0.00  0.00    +0.000 A 
ATOM     13  N   UNL     1       6.049   6.144  15.485  0.00  0.00    +0.000 NA
ATOM     14  C   UNL     1       5.047   6.114  16.379  0.00  0.00    +0.000 A 
ATOM     15  O   UNL     1       4.425   7.217  16.892  0.00  0.00    +0.000 OA
ENDBRANCH   4   7
BRANCH   1  17
ATOM     16  N   UNL     1       0.305  10.733  21.481  0.00  0.00    +0.000 NA
ATOM     17  N   UNL     1       0.142  10.597  20.251  0.00  0.00    +0.000 NA
BRANCH  16  21
ATOM     18  C   UNL     1      -2.387  13.609  23.169  0.00  0.00    +0.000 A 
ATOM     19  C   UNL     1      -1.474  13.912  22.142  0.00  0.00    +0.000 A 
ATOM     20  C   UNL     1      -0.602  12.954  21.603  0.00  0.00    +0.000 A 
ATOM     21  C   UNL     1      -0.619  11.634  22.045  0.00  0.00    +0.000 A 
ATOM     22  C   UNL     1      -1.577  11.284  22.996  0.00  0.00    +0.000 A 
ATOM     23  C   UNL     1      -2.436  12.251  23.544  0.00  0.00    +0.000 A 
BRANCH  18  24
ATOM     24  N   UNL     1      -3.166  14.587  23.800  0.00  0.00    +0.000 N 
BRANCH  24  26
ATOM     25  C   UNL     1      -5.161  14.338  22.347  0.00  0.00    +0.000 C 
ATOM     26  C   UNL     1      -4.213  15.301  23.056  0.00  0.00    +0.000 C 
ENDBRANCH  24  26
BRANCH  24  27
ATOM     27  C   UNL     1      -3.014  14.778  25.254  0.00  0.00    +0.000 C 
ATOM     28  C   UNL     1      -1.834  15.619  25.713  0.00  0.00    +0.000 C 
ENDBRANCH  24  27
ENDBRANCH  18  24
ENDBRANCH  16  21
ENDBRANCH   1  17
TORSDOF 6
ENDMDL
MODEL 8
REMARK VINA RESULT:      -7.5      2.650     11.560
REMARK  Name = 
REMARK  8 active torsions:
REMARK  status: ('A' for Active; 'I' for Inactive)
REMARK    1  A    between atoms: C_1  and  C_2
REMARK    2  A    between atoms: C_2  and  N_3
REMARK    3  A    between atoms: N_3  and  C_4
REMARK    4  A    between atoms: N_3  and  C_6
REMARK    5  A    between atoms: C_4  and  C_5
REMARK    6  A    between atoms: C_9  and  N_10
REMARK    7  A    between atoms: N_11  and  C_12
REMARK    8  A    between atoms: C_15  and  C_16
REMARK                            x       y       z     vdW  Elec       q    Type
REMARK                         _______ _______ _______ _____ _____    ______ ____
ROOT
ATOM      1  C   UNL     1       0.266   9.805  21.457  0.00  0.00    +0.000 A 
ATOM      2  C   UNL     1      -0.191  10.831  20.624  0.00  0.00    +0.000 A 
ATOM      3  C   UNL     1      -1.141  11.756  21.070  0.00  0.00    +0.000 A 
ATOM      4  C   UNL     1      -1.663  11.681  22.369  0.00  0.00    +0.000 A 
ATOM      5  C   UNL     1      -1.210  10.657  23.209  0.00  0.00    +0.000 A 
ATOM      6  C   UNL     1      -0.264   9.726  22.754  0.00  0.00    +0.000 A 
ENDROOT
BRANCH   4   7
ATOM      7  C   UNL     1      -2.676  12.653  22.788  0.00  0.00    +0.000 A 
ATOM      8  N   UNL     1      -2.509  13.936  23.057  0.00  0.00    +0.000 NA
ATOM      9  C   UNL     1      -3.776  14.362  23.348  0.00  0.00    +0.000 A 
ATOM     10  C   UNL     1      -4.275  15.624  23.691  0.00  0.00    +0.000 A 
ATOM     11  C   UNL     1      -5.650  15.716  23.919  0.00  0.00    +0.000 A 
ATOM     12  C   UNL     1      -6.439  14.574  23.805  0.00  0.00    +0.000 A 
ATOM     13  N   UNL     1      -6.002  13.334  23.474  0.00  0.00    +0.000 NA
ATOM     14  C   UNL     1      -4.675  13.306  23.264  0.00  0.00    +0.000 A 
ATOM     15  O   UNL     1      -3.964  12.197  22.902  0.00  0.00    +0.000 OA
ENDBRANCH   4   7
BRANCH   1  17
ATOM     16  N   UNL     1       1.296   8.962  19.681  0.00  0.00    +0.000 NA
ATOM     17  N   UNL     1       1.222   8.914  20.926  0.00  0.00    +0.000 NA
BRANCH  16  21
ATOM     18  C   UNL     1       3.911   5.878  18.259  0.00  0.00    +0.000 A 
ATOM     19  C   UNL     1       3.170   5.778  19.452  0.00  0.00    +0.000 A 
ATOM     20  C   UNL     1       2.319   6.799  19.898  0.00  0.00    +0.000 A 
ATOM     21  C   UNL     1       2.142   7.965  19.159  0.00  0.00    +0.000 A 
ATOM     22  C   UNL     1       2.792   8.053  17.928  0.00  0.00    +0.000 A 
ATOM     23  C   UNL     1       3.657   7.034  17.494  0.00  0.00    +0.000 A 
BRANCH  18  24
ATOM     24  N   UNL     1       4.859   4.921  17.876  0.00  0.00    +0.000 N 
BRANCH  24  26
ATOM     25  C   UNL     1       5.411   4.405  15.513  0.00  0.00    +0.000 C 
ATOM     26  C   UNL     1       4.595   4.022  16.745  0.00  0.00    +0.000 C 
ENDBRANCH  24  26
BRANCH  24  27
ATOM     27  C   UNL     1       6.179   4.936  18.534  0.00  0.00    +0.000 C 
ATOM     28  C   UNL     1       7.082   6.119  18.227  0.00  0.00    +0.000 C 
ENDBRANCH  24  27
ENDBRANCH  18  24
ENDBRANCH  16  21
ENDBRANCH   1  17
TORSDOF 6
ENDMDL
MODEL 9
REMARK VINA RESULT:      -7.5      2.613     11.600
REMARK  Name = 
REMARK  8 active torsions:
REMARK  status: ('A' for Active; 'I' for Inactive)
REMARK    1  A    between atoms: C_1  and  C_2
REMARK    2  A    between atoms: C_2  and  N_3
REMARK    3  A    between atoms: N_3  and  C_4
REMARK    4  A    between atoms: N_3  and  C_6
REMARK    5  A    between atoms: C_4  and  C_5
REMARK    6  A    between atoms: C_9  and  N_10
REMARK    7  A    between atoms: N_11  and  C_12
REMARK    8  A    between atoms: C_15  and  C_16
REMARK                            x       y       z     vdW  Elec       q    Type
REMARK                         _______ _______ _______ _____ _____    ______ ____
ROOT
ATOM      1  C   UNL     1       0.605   9.649  21.715  0.00  0.00    +0.000 A 
ATOM      2  C   UNL     1       0.656  10.921  21.135  0.00  0.00    +0.000 A 
ATOM      3  C   UNL     1      -0.145  11.964  21.609  0.00  0.00    +0.000 A 
ATOM      4  C   UNL     1      -1.026  11.765  22.681  0.00  0.00    +0.000 A 
ATOM      5  C   UNL     1      -1.084  10.494  23.266  0.00  0.00    +0.000 A 
ATOM      6  C   UNL     1      -0.284   9.449  22.782  0.00  0.00    +0.000 A 
ENDROOT
BRANCH   4   7
ATOM      7  C   UNL     1      -1.868  12.877  23.129  0.00  0.00    +0.000 A 
ATOM      8  N   UNL     1      -3.176  13.010  22.996  0.00  0.00    +0.000 NA
ATOM      9  C   UNL     1      -3.435  14.198  23.623  0.00  0.00    +0.000 A 
ATOM     10  C   UNL     1      -4.633  14.887  23.847  0.00  0.00    +0.000 A 
ATOM     11  C   UNL     1      -4.542  16.094  24.545  0.00  0.00    +0.000 A 
ATOM     12  C   UNL     1      -3.295  16.546  24.968  0.00  0.00    +0.000 A 
ATOM     13  N   UNL     1      -2.111  15.914  24.777  0.00  0.00    +0.000 NA
ATOM     14  C   UNL     1      -2.259  14.760  24.104  0.00  0.00    +0.000 A 
ATOM     15  O   UNL     1      -1.242  13.906  23.784  0.00  0.00    +0.000 OA
ENDBRANCH   4   7
BRANCH   1  17
ATOM     16  N   UNL     1       1.428   8.625  19.926  0.00  0.00    +0.000 NA
ATOM     17  N   UNL     1       1.446   8.654  21.173  0.00  0.00    +0.000 NA
BRANCH  16  21
ATOM     18  C   UNL     1       3.656   5.246  18.517  0.00  0.00    +0.000 A 
ATOM     19  C   UNL     1       2.862   5.221  19.678  0.00  0.00    +0.000 A 
ATOM     20  C   UNL     1       2.140   6.339  20.121  0.00  0.00    +0.000 A 
ATOM     21  C   UNL     1       2.152   7.534  19.407  0.00  0.00    +0.000 A 
ATOM     22  C   UNL     1       2.855   7.560  18.203  0.00  0.00    +0.000 A 
ATOM     23  C   UNL     1       3.591   6.441  17.774  0.00  0.00    +0.000 A 
BRANCH  18  24
ATOM     24  N   UNL     1       4.481   4.177  18.142  0.00  0.00    +0.000 N 
BRANCH  24  26
ATOM     25  C   UNL     1       5.480   4.016  15.878  0.00  0.00    +0.000 C 
ATOM     26  C   UNL     1       5.687   4.412  17.337  0.00  0.00    +0.000 C 
ENDBRANCH  24  26
BRANCH  24  27
ATOM     27  C   UNL     1       4.194   2.840  18.695  0.00  0.00    +0.000 C 
ATOM     28  C   UNL     1       3.200   1.983  17.929  0.00  0.00    +0.000 C 
ENDBRANCH  24  27
ENDBRANCH  18  24
ENDBRANCH  16  21
ENDBRANCH   1  17
TORSDOF 6
ENDMDL
