MODEL 1
REMARK VINA RESULT:      -7.8      0.000      0.000
REMARK  Name = 
REMARK  6 active torsions:
REMARK  status: ('A' for Active; 'I' for Inactive)
REMARK    1  A    between atoms: C_1  and  O_2
REMARK    2  A    between atoms: O_2  and  C_3
REMARK    3  A    between atoms: C_6  and  O_7
REMARK    4  A    between atoms: O_7  and  C_8
REMARK    5  A    between atoms: C_9  and  N_10
REMARK    6  A    between atoms: C_11  and  C_13
REMARK                            x       y       z     vdW  Elec       q    Type
REMARK                         _______ _______ _______ _____ _____    ______ ____
ROOT
ATOM      1  N   UNL     1       5.542   3.603  16.698  0.00  0.00    +0.000 N 
ATOM      2  C   UNL     1       4.671   4.301  17.520  0.00  0.00    +0.000 C 
ATOM      3  O   UNL     1       4.110   5.358  17.256  0.00  0.00    +0.000 OA
ATOM      4  H   UNL     1       5.683   2.641  16.976  0.00  0.00    +0.000 HD
ENDROOT
BRANCH   2   5
ATOM      5  C   UNL     1       4.366   3.617  18.792  0.00  0.00    +0.000 A 
ATOM      6  N   UNL     1       5.264   2.869  19.472  0.00  0.00    +0.000 NA
ATOM      7  O   UNL     1       4.586   2.388  20.597  0.00  0.00    +0.000 OA
ATOM      8  C   UNL     1       3.316   2.852  20.572  0.00  0.00    +0.000 A 
ATOM      9  C   UNL     1       3.120   3.631  19.467  0.00  0.00    +0.000 A 
ATOM     10  C   UNL     1       1.818   4.270  19.152  0.00  0.00    +0.000 C 
ATOM     11  C   UNL     1       0.874   4.230  20.372  0.00  0.00    +0.000 C 
ATOM     12  C   UNL     1       0.924   2.883  21.128  0.00  0.00    +0.000 C 
ATOM     13  C   UNL     1       2.343   2.544  21.644  0.00  0.00    +0.000 C 
ENDBRANCH   2   5
BRANCH   1  18
ATOM     14  C   UNL     1       6.096   3.695  13.038  0.00  0.00    +0.000 A 
ATOM     15  C   UNL     1       7.063   4.685  12.904  0.00  0.00    +0.000 A 
ATOM     16  C   UNL     1       7.576   5.326  14.028  0.00  0.00    +0.000 A 
ATOM     17  C   UNL     1       7.137   4.982  15.315  0.00  0.00    +0.000 A 
ATOM     18  C   UNL     1       6.109   4.024  15.464  0.00  0.00    +0.000 A 
ATOM     19  C   UNL     1       5.621   3.371  14.313  0.00  0.00    +0.000 A 
BRANCH  14  21
ATOM     20  C   UNL     1       4.345   3.225  11.495  0.00  0.00    +0.000 C 
ATOM     21  O   UNL     1       5.715   3.131  11.853  0.00  0.00    +0.000 OA
ENDBRANCH  14  21
BRANCH  17  22
ATOM     22  O   UNL     1       7.715   5.503  16.438  0.00  0.00    +0.000 OA
ATOM     23  C   UNL     1       7.253   6.764  16.904  0.00  0.00    +0.000 C 
ENDBRANCH  17  22
ENDBRANCH   1  18
TORSDOF 4
ENDMDL
MODEL 2
REMARK VINA RESULT:      -7.4      1.924      7.404
REMARK  Name = 
REMARK  6 active torsions:
REMARK  status: ('A' for Active; 'I' for Inactive)
REMARK    1  A    between atoms: C_1  and  O_2
REMARK    2  A    between atoms: O_2  and  C_3
REMARK    3  A    between atoms: C_6  and  O_7
REMARK    4  A    between atoms: O_7  and  C_8
REMARK    5  A    between atoms: C_9  and  N_10
REMARK    6  A    between atoms: C_11  and  C_13
REMARK                            x       y       z     vdW  Elec       q    Type
REMARK                         _______ _______ _______ _____ _____    ______ ____
ROOT
ATOM      1  N   UNL     1       4.633   5.037  17.958  0.00  0.00    +0.000 N 
ATOM      2  C   UNL     1       4.633   4.542  16.664  0.00  0.00    +0.000 C 
ATOM      3  O   UNL     1       3.736   3.901  16.128  0.00  0.00    +0.000 OA
ATOM      4  H   UNL     1       5.326   5.754  18.122  0.00  0.00    +0.000 HD
ENDROOT
BRANCH   2   5
ATOM      5  C   UNL     1       5.819   4.924  15.874  0.00  0.00    +0.000 A 
ATOM      6  N   UNL     1       6.808   5.716  16.347  0.00  0.00    +0.000 NA
ATOM      7  O   UNL     1       7.724   5.851  15.299  0.00  0.00    +0.000 OA
ATOM      8  C   UNL     1       7.277   5.146  14.235  0.00  0.00    +0.000 A 
ATOM      9  C   UNL     1       6.089   4.541  14.536  0.00  0.00    +0.000 A 
ATOM     10  C   UNL     1       5.338   3.709  13.563  0.00  0.00    +0.000 C 
ATOM     11  C   UNL     1       6.221   3.348  12.350  0.00  0.00    +0.000 C 
ATOM     12  C   UNL     1       7.091   4.529  11.865  0.00  0.00    +0.000 C 
ATOM     13  C   UNL     1       8.037   5.062  12.969  0.00  0.00    +0.000 C 
ENDBRANCH   2   5
BRANCH   1  18
ATOM     14  C   UNL     1       2.018   5.765  20.478  0.00  0.00    +0.000 A 
ATOM     15  C   UNL     1       1.780   4.513  21.035  0.00  0.00    +0.000 A 
ATOM     16  C   UNL     1       2.502   3.402  20.609  0.00  0.00    +0.000 A 
ATOM     17  C   UNL     1       3.488   3.522  19.618  0.00  0.00    +0.000 A 
ATOM     18  C   UNL     1       3.697   4.773  18.996  0.00  0.00    +0.000 A 
ATOM     19  C   UNL     1       2.970   5.890  19.461  0.00  0.00    +0.000 A 
BRANCH  14  21
ATOM     20  C   UNL     1       1.581   8.097  20.656  0.00  0.00    +0.000 C 
ATOM     21  O   UNL     1       1.262   6.764  21.021  0.00  0.00    +0.000 OA
ENDBRANCH  14  21
BRANCH  17  22
ATOM     22  O   UNL     1       4.296   2.476  19.274  0.00  0.00    +0.000 OA
ATOM     23  C   UNL     1       3.713   1.379  18.585  0.00  0.00    +0.000 C 
ENDBRANCH  17  22
ENDBRANCH   1  18
TORSDOF 4
ENDMDL
MODEL 3
REMARK VINA RESULT:      -7.4      1.919      7.302
REMARK  Name = 
REMARK  6 active torsions:
REMARK  status: ('A' for Active; 'I' for Inactive)
REMARK    1  A    between atoms: C_1  and  O_2
REMARK    2  A    between atoms: O_2  and  C_3
REMARK    3  A    between atoms: C_6  and  O_7
REMARK    4  A    between atoms: O_7  and  C_8
REMARK    5  A    between atoms: C_9  and  N_10
REMARK    6  A    between atoms: C_11  and  C_13
REMARK                            x       y       z     vdW  Elec       q    Type
REMARK                         _______ _______ _______ _____ _____    ______ ____
ROOT
ATOM      1  N   UNL     1       4.617   5.618  17.592  0.00  0.00    +0.000 N 
ATOM      2  C   UNL     1       4.884   4.627  16.661  0.00  0.00    +0.000 C 
ATOM      3  O   UNL     1       4.244   3.596  16.490  0.00  0.00    +0.000 OA
ATOM      4  H   UNL     1       5.082   6.496  17.401  0.00  0.00    +0.000 HD
ENDROOT
BRANCH   2   5
ATOM      5  C   UNL     1       6.011   4.937  15.760  0.00  0.00    +0.000 A 
ATOM      6  N   UNL     1       7.071   5.694  16.123  0.00  0.00    +0.000 NA
ATOM      7  O   UNL     1       7.896   5.762  14.995  0.00  0.00    +0.000 OA
ATOM      8  C   UNL     1       7.326   5.054  13.994  0.00  0.00    +0.000 A 
ATOM      9  C   UNL     1       6.144   4.511  14.414  0.00  0.00    +0.000 A 
ATOM     10  C   UNL     1       5.274   3.692  13.533  0.00  0.00    +0.000 C 
ATOM     11  C   UNL     1       6.029   3.263  12.258  0.00  0.00    +0.000 C 
ATOM     12  C   UNL     1       6.903   4.393  11.667  0.00  0.00    +0.000 C 
ATOM     13  C   UNL     1       7.965   4.907  12.668  0.00  0.00    +0.000 C 
ENDBRANCH   2   5
BRANCH   1  18
ATOM     14  C   UNL     1       2.792   4.262  20.515  0.00  0.00    +0.000 A 
ATOM     15  C   UNL     1       1.909   5.291  20.823  0.00  0.00    +0.000 A 
ATOM     16  C   UNL     1       1.877   6.448  20.049  0.00  0.00    +0.000 A 
ATOM     17  C   UNL     1       2.726   6.597  18.943  0.00  0.00    +0.000 A 
ATOM     18  C   UNL     1       3.673   5.589  18.656  0.00  0.00    +0.000 A 
ATOM     19  C   UNL     1       3.671   4.415  19.438  0.00  0.00    +0.000 A 
BRANCH  14  21
ATOM     20  C   UNL     1       1.382   2.662  21.572  0.00  0.00    +0.000 C 
ATOM     21  O   UNL     1       2.683   3.176  21.337  0.00  0.00    +0.000 OA
ENDBRANCH  14  21
BRANCH  17  22
ATOM     22  O   UNL     1       2.626   7.663  18.095  0.00  0.00    +0.000 OA
ATOM     23  C   UNL     1       1.836   8.771  18.505  0.00  0.00    +0.000 C 
ENDBRANCH  17  22
ENDBRANCH   1  18
TORSDOF 4
ENDMDL
MODEL 4
REMARK VINA RESULT:      -7.3      2.056      7.265
REMARK  Name = 
REMARK  6 active torsions:
REMARK  status: ('A' for Active; 'I' for Inactive)
REMARK    1  A    between atoms: C_1  and  O_2
REMARK    2  A    between atoms: O_2  and  C_3
REMARK    3  A    between atoms: C_6  and  O_7
REMARK    4  A    between atoms: O_7  and  C_8
REMARK    5  A    between atoms: C_9  and  N_10
REMARK    6  A    between atoms: C_11  and  C_13
REMARK                            x       y       z     vdW  Elec       q    Type
REMARK                         _______ _______ _______ _____ _____    ______ ____
ROOT
ATOM      1  N   UNL     1       4.238   4.942  17.316  0.00  0.00    +0.000 N 
ATOM      2  C   UNL     1       5.581   4.640  17.468  0.00  0.00    +0.000 C 
ATOM      3  O   UNL     1       6.089   4.023  18.397  0.00  0.00    +0.000 OA
ATOM      4  H   UNL     1       3.983   5.210  16.375  0.00  0.00    +0.000 HD
ENDROOT
BRANCH   2   5
ATOM      5  C   UNL     1       6.424   5.056  16.331  0.00  0.00    +0.000 A 
ATOM      6  N   UNL     1       7.380   6.009  16.419  0.00  0.00    +0.000 NA
ATOM      7  O   UNL     1       7.930   6.119  15.137  0.00  0.00    +0.000 OA
ATOM      8  C   UNL     1       7.305   5.243  14.319  0.00  0.00    +0.000 A 
ATOM      9  C   UNL     1       6.354   4.546  15.010  0.00  0.00    +0.000 A 
ATOM     10  C   UNL     1       5.486   3.521  14.379  0.00  0.00    +0.000 C 
ATOM     11  C   UNL     1       6.030   3.118  12.991  0.00  0.00    +0.000 C 
ATOM     12  C   UNL     1       6.543   4.324  12.172  0.00  0.00    +0.000 C 
ATOM     13  C   UNL     1       7.676   5.093  12.895  0.00  0.00    +0.000 C 
ENDBRANCH   2   5
BRANCH   1  18
ATOM     14  C   UNL     1       1.946   5.814  20.091  0.00  0.00    +0.000 A 
ATOM     15  C   UNL     1       1.162   4.671  20.206  0.00  0.00    +0.000 A 
ATOM     16  C   UNL     1       1.395   3.571  19.385  0.00  0.00    +0.000 A 
ATOM     17  C   UNL     1       2.426   3.589  18.434  0.00  0.00    +0.000 A 
ATOM     18  C   UNL     1       3.188   4.766  18.260  0.00  0.00    +0.000 A 
ATOM     19  C   UNL     1       2.950   5.859  19.119  0.00  0.00    +0.000 A 
BRANCH  14  21
ATOM     20  C   UNL     1       1.537   8.124  20.496  0.00  0.00    +0.000 C 
ATOM     21  O   UNL     1       1.625   6.796  20.986  0.00  0.00    +0.000 OA
ENDBRANCH  14  21
BRANCH  17  22
ATOM     22  O   UNL     1       2.757   2.481  17.707  0.00  0.00    +0.000 OA
ATOM     23  C   UNL     1       3.549   1.481  18.334  0.00  0.00    +0.000 C 
ENDBRANCH  17  22
ENDBRANCH   1  18
TORSDOF 4
ENDMDL
MODEL 5
REMARK VINA RESULT:      -7.2      1.733      1.990
REMARK  Name = 
REMARK  6 active torsions:
REMARK  status: ('A' for Active; 'I' for Inactive)
REMARK    1  A    between atoms: C_1  and  O_2
REMARK    2  A    between atoms: O_2  and  C_3
REMARK    3  A    between atoms: C_6  and  O_7
REMARK    4  A    between atoms: O_7  and  C_8
REMARK    5  A    between atoms: C_9  and  N_10
REMARK    6  A    between atoms: C_11  and  C_13
REMARK                            x       y       z     vdW  Elec       q    Type
REMARK                         _______ _______ _______ _____ _____    ______ ____
ROOT
ATOM      1  N   UNL     1       4.590   4.792  16.496  0.00  0.00    +0.000 N 
ATOM      2  C   UNL     1       4.150   5.957  17.103  0.00  0.00    +0.000 C 
ATOM      3  O   UNL     1       4.369   7.103  16.725  0.00  0.00    +0.000 OA
ATOM      4  H   UNL     1       4.091   3.963  16.791  0.00  0.00    +0.000 HD
ENDROOT
BRANCH   2   5
ATOM      5  C   UNL     1       3.269   5.735  18.265  0.00  0.00    +0.000 A 
ATOM      6  N   UNL     1       3.027   6.673  19.209  0.00  0.00    +0.000 NA
ATOM      7  O   UNL     1       2.169   6.071  20.135  0.00  0.00    +0.000 OA
ATOM      8  C   UNL     1       1.914   4.805  19.734  0.00  0.00    +0.000 A 
ATOM      9  C   UNL     1       2.573   4.538  18.567  0.00  0.00    +0.000 A 
ATOM     10  C   UNL     1       2.505   3.221  17.886  0.00  0.00    +0.000 C 
ATOM     11  C   UNL     1       1.357   2.363  18.458  0.00  0.00    +0.000 C 
ATOM     12  C   UNL     1       1.245   2.456  19.997  0.00  0.00    +0.000 C 
ATOM     13  C   UNL     1       1.013   3.906  20.488  0.00  0.00    +0.000 C 
ENDBRANCH   2   5
BRANCH   1  18
ATOM     14  C   UNL     1       5.851   3.797  13.159  0.00  0.00    +0.000 A 
ATOM     15  C   UNL     1       7.157   4.274  13.176  0.00  0.00    +0.000 A 
ATOM     16  C   UNL     1       7.661   4.911  14.307  0.00  0.00    +0.000 A 
ATOM     17  C   UNL     1       6.868   5.078  15.451  0.00  0.00    +0.000 A 
ATOM     18  C   UNL     1       5.519   4.657  15.427  0.00  0.00    +0.000 A 
ATOM     19  C   UNL     1       5.038   3.993  14.280  0.00  0.00    +0.000 A 
BRANCH  14  21
ATOM     20  C   UNL     1       4.175   3.314  11.539  0.00  0.00    +0.000 C 
ATOM     21  O   UNL     1       5.509   3.163  11.998  0.00  0.00    +0.000 OA
ENDBRANCH  14  21
BRANCH  17  22
ATOM     22  O   UNL     1       7.376   5.583  16.614  0.00  0.00    +0.000 OA
ATOM     23  C   UNL     1       7.661   4.675  17.670  0.00  0.00    +0.000 C 
ENDBRANCH  17  22
ENDBRANCH   1  18
TORSDOF 4
ENDMDL
MODEL 6
REMARK VINA RESULT:      -7.1      1.946      7.053
REMARK  Name = 
REMARK  6 active torsions:
REMARK  status: ('A' for Active; 'I' for Inactive)
REMARK    1  A    between atoms: C_1  and  O_2
REMARK    2  A    between atoms: O_2  and  C_3
REMARK    3  A    between atoms: C_6  and  O_7
REMARK    4  A    between atoms: O_7  and  C_8
REMARK    5  A    between atoms: C_9  and  N_10
REMARK    6  A    between atoms: C_11  and  C_13
REMARK                            x       y       z     vdW  Elec       q    Type
REMARK                         _______ _______ _______ _____ _____    ______ ____
ROOT
ATOM      1  N   UNL     1       4.648   5.155  16.844  0.00  0.00    +0.000 N 
ATOM      2  C   UNL     1       5.993   4.824  16.878  0.00  0.00    +0.000 C 
ATOM      3  O   UNL     1       6.605   4.356  17.832  0.00  0.00    +0.000 OA
ATOM      4  H   UNL     1       4.278   5.267  15.910  0.00  0.00    +0.000 HD
ENDROOT
BRANCH   2   5
ATOM      5  C   UNL     1       6.689   4.998  15.589  0.00  0.00    +0.000 A 
ATOM      6  N   UNL     1       7.785   5.774  15.430  0.00  0.00    +0.000 NA
ATOM      7  O   UNL     1       8.122   5.687  14.075  0.00  0.00    +0.000 OA
ATOM      8  C   UNL     1       7.238   4.872  13.458  0.00  0.00    +0.000 A 
ATOM      9  C   UNL     1       6.318   4.408  14.355  0.00  0.00    +0.000 A 
ATOM     10  C   UNL     1       5.205   3.503  13.974  0.00  0.00    +0.000 C 
ATOM     11  C   UNL     1       5.436   2.906  12.570  0.00  0.00    +0.000 C 
ATOM     12  C   UNL     1       5.990   3.937  11.560  0.00  0.00    +0.000 C 
ATOM     13  C   UNL     1       7.336   4.550  12.017  0.00  0.00    +0.000 C 
ENDBRANCH   2   5
BRANCH   1  18
ATOM     14  C   UNL     1       2.435   3.840  19.507  0.00  0.00    +0.000 A 
ATOM     15  C   UNL     1       1.926   5.002  20.077  0.00  0.00    +0.000 A 
ATOM     16  C   UNL     1       2.282   6.250  19.572  0.00  0.00    +0.000 A 
ATOM     17  C   UNL     1       3.151   6.361  18.477  0.00  0.00    +0.000 A 
ATOM     18  C   UNL     1       3.728   5.193  17.928  0.00  0.00    +0.000 A 
ATOM     19  C   UNL     1       3.334   3.939  18.440  0.00  0.00    +0.000 A 
BRANCH  14  21
ATOM     20  C   UNL     1       1.347   2.804  21.353  0.00  0.00    +0.000 C 
ATOM     21  O   UNL     1       1.968   2.692  20.083  0.00  0.00    +0.000 OA
ENDBRANCH  14  21
BRANCH  17  22
ATOM     22  O   UNL     1       3.415   7.563  17.884  0.00  0.00    +0.000 OA
ATOM     23  C   UNL     1       2.365   8.519  17.815  0.00  0.00    +0.000 C 
ENDBRANCH  17  22
ENDBRANCH   1  18
TORSDOF 4
ENDMDL
MODEL 7
REMARK VINA RESULT:      -7.1      3.663      4.471
REMARK  Name = 
REMARK  6 active torsions:
REMARK  status: ('A' for Active; 'I' for Inactive)
REMARK    1  A    between atoms: C_1  and  O_2
REMARK    2  A    between atoms: O_2  and  C_3
REMARK    3  A    between atoms: C_6  and  O_7
REMARK    4  A    between atoms: O_7  and  C_8
REMARK    5  A    between atoms: C_9  and  N_10
REMARK    6  A    between atoms: C_11  and  C_13
REMARK                            x       y       z     vdW  Elec       q    Type
REMARK                         _______ _______ _______ _____ _____    ______ ____
ROOT
ATOM      1  N   UNL     1       4.289   6.323  18.343  0.00  0.00    +0.000 N 
ATOM      2  C   UNL     1       3.125   5.822  18.904  0.00  0.00    +0.000 C 
ATOM      3  O   UNL     1       2.765   4.650  18.911  0.00  0.00    +0.000 OA
ATOM      4  H   UNL     1       4.536   7.247  18.670  0.00  0.00    +0.000 HD
ENDROOT
BRANCH   2   5
ATOM      5  C   UNL     1       2.320   6.830  19.619  0.00  0.00    +0.000 A 
ATOM      6  N   UNL     1       1.806   6.636  20.856  0.00  0.00    +0.000 NA
ATOM      7  O   UNL     1       1.104   7.805  21.165  0.00  0.00    +0.000 OA
ATOM      8  C   UNL     1       1.210   8.666  20.128  0.00  0.00    +0.000 A 
ATOM      9  C   UNL     1       1.963   8.112  19.131  0.00  0.00    +0.000 A 
ATOM     10  C   UNL     1       2.244   8.808  17.851  0.00  0.00    +0.000 C 
ATOM     11  C   UNL     1       1.889  10.307  17.949  0.00  0.00    +0.000 C 
ATOM     12  C   UNL     1       0.567  10.564  18.708  0.00  0.00    +0.000 C 
ATOM     13  C   UNL     1       0.597  10.012  20.154  0.00  0.00    +0.000 C 
ENDBRANCH   2   5
BRANCH   1  18
ATOM     14  C   UNL     1       5.675   4.836  15.247  0.00  0.00    +0.000 A 
ATOM     15  C   UNL     1       6.904   4.344  15.673  0.00  0.00    +0.000 A 
ATOM     16  C   UNL     1       7.290   4.467  17.005  0.00  0.00    +0.000 A 
ATOM     17  C   UNL     1       6.448   5.080  17.944  0.00  0.00    +0.000 A 
ATOM     18  C   UNL     1       5.225   5.643  17.514  0.00  0.00    +0.000 A 
ATOM     19  C   UNL     1       4.843   5.485  16.165  0.00  0.00    +0.000 A 
BRANCH  14  21
ATOM     20  C   UNL     1       6.226   3.655  13.255  0.00  0.00    +0.000 C 
ATOM     21  O   UNL     1       5.417   4.610  13.925  0.00  0.00    +0.000 OA
ENDBRANCH  14  21
BRANCH  17  22
ATOM     22  O   UNL     1       6.746   5.100  19.277  0.00  0.00    +0.000 OA
ATOM     23  C   UNL     1       7.950   5.736  19.683  0.00  0.00    +0.000 C 
ENDBRANCH  17  22
ENDBRANCH   1  18
TORSDOF 4
ENDMDL
MODEL 8
REMARK VINA RESULT:      -7.1      3.875      5.112
REMARK  Name = 
REMARK  6 active torsions:
REMARK  status: ('A' for Active; 'I' for Inactive)
REMARK    1  A    between atoms: C_1  and  O_2
REMARK    2  A    between atoms: O_2  and  C_3
REMARK    3  A    between atoms: C_6  and  O_7
REMARK    4  A    between atoms: O_7  and  C_8
REMARK    5  A    between atoms: C_9  and  N_10
REMARK    6  A    between atoms: C_11  and  C_13
REMARK                            x       y       z     vdW  Elec       q    Type
REMARK                         _______ _______ _______ _____ _____    ______ ____
ROOT
ATOM      1  N   UNL     1       4.166   7.266  17.762  0.00  0.00    +0.000 N 
ATOM      2  C   UNL     1       2.810   7.110  18.006  0.00  0.00    +0.000 C 
ATOM      3  O   UNL     1       2.194   6.051  18.048  0.00  0.00    +0.000 OA
ATOM      4  H   UNL     1       4.529   8.170  18.032  0.00  0.00    +0.000 HD
ENDROOT
BRANCH   2   5
ATOM      5  C   UNL     1       2.107   8.369  18.318  0.00  0.00    +0.000 A 
ATOM      6  N   UNL     1       1.984   9.393  17.443  0.00  0.00    +0.000 NA
ATOM      7  O   UNL     1       1.276  10.391  18.120  0.00  0.00    +0.000 OA
ATOM      8  C   UNL     1       0.990   9.954  19.367  0.00  0.00    +0.000 A 
ATOM      9  C   UNL     1       1.482   8.692  19.549  0.00  0.00    +0.000 A 
ATOM     10  C   UNL     1       1.342   7.947  20.825  0.00  0.00    +0.000 C 
ATOM     11  C   UNL     1       0.303   8.621  21.745  0.00  0.00    +0.000 C 
ATOM     12  C   UNL     1       0.408  10.163  21.744  0.00  0.00    +0.000 C 
ATOM     13  C   UNL     1       0.221  10.769  20.332  0.00  0.00    +0.000 C 
ENDBRANCH   2   5
BRANCH   1  18
ATOM     14  C   UNL     1       6.319   5.364  15.425  0.00  0.00    +0.000 A 
ATOM     15  C   UNL     1       6.924   4.433  16.262  0.00  0.00    +0.000 A 
ATOM     16  C   UNL     1       6.610   4.395  17.618  0.00  0.00    +0.000 A 
ATOM     17  C   UNL     1       5.674   5.285  18.164  0.00  0.00    +0.000 A 
ATOM     18  C   UNL     1       5.099   6.278  17.340  0.00  0.00    +0.000 A 
ATOM     19  C   UNL     1       5.414   6.283  15.965  0.00  0.00    +0.000 A 
BRANCH  14  21
ATOM     20  C   UNL     1       6.463   4.018  13.467  0.00  0.00    +0.000 C 
ATOM     21  O   UNL     1       6.696   5.258  14.116  0.00  0.00    +0.000 OA
ENDBRANCH  14  21
BRANCH  17  22
ATOM     22  O   UNL     1       5.254   5.184  19.461  0.00  0.00    +0.000 OA
ATOM     23  C   UNL     1       4.404   4.100  19.806  0.00  0.00    +0.000 C 
ENDBRANCH  17  22
ENDBRANCH   1  18
TORSDOF 4
ENDMDL
MODEL 9
REMARK VINA RESULT:      -6.9      4.531      6.225
REMARK  Name = 
REMARK  6 active torsions:
REMARK  status: ('A' for Active; 'I' for Inactive)
REMARK    1  A    between atoms: C_1  and  O_2
REMARK    2  A    between atoms: O_2  and  C_3
REMARK    3  A    between atoms: C_6  and  O_7
REMARK    4  A    between atoms: O_7  and  C_8
REMARK    5  A    between atoms: C_9  and  N_10
REMARK    6  A    between atoms: C_11  and  C_13
REMARK                            x       y       z     vdW  Elec       q    Type
REMARK                         _______ _______ _______ _____ _____    ______ ____
ROOT
ATOM      1  N   UNL     1       2.647   7.490  18.055  0.00  0.00    +0.000 N 
ATOM      2  C   UNL     1       2.142   7.731  19.322  0.00  0.00    +0.000 C 
ATOM      3  O   UNL     1       2.391   7.094  20.339  0.00  0.00    +0.000 OA
ATOM      4  H   UNL     1       2.543   8.269  17.418  0.00  0.00    +0.000 HD
ENDROOT
BRANCH   2   5
ATOM      5  C   UNL     1       1.292   8.934  19.413  0.00  0.00    +0.000 A 
ATOM      6  N   UNL     1       1.038   9.750  18.364  0.00  0.00    +0.000 NA
ATOM      7  O   UNL     1       0.219  10.768  18.862  0.00  0.00    +0.000 OA
ATOM      8  C   UNL     1      -0.002  10.546  20.177  0.00  0.00    +0.000 A 
ATOM      9  C   UNL     1       0.642   9.410  20.578  0.00  0.00    +0.000 A 
ATOM     10  C   UNL     1       0.603   8.912  21.976  0.00  0.00    +0.000 C 
ATOM     11  C   UNL     1      -0.504   9.622  22.784  0.00  0.00    +0.000 C 
ATOM     12  C   UNL     1      -0.588  11.136  22.488  0.00  0.00    +0.000 C 
ATOM     13  C   UNL     1      -0.859  11.434  20.993  0.00  0.00    +0.000 C 
ENDBRANCH   2   5
BRANCH   1  18
ATOM     14  C   UNL     1       5.488   5.671  16.527  0.00  0.00    +0.000 A 
ATOM     15  C   UNL     1       5.105   4.342  16.666  0.00  0.00    +0.000 A 
ATOM     16  C   UNL     1       3.880   4.018  17.243  0.00  0.00    +0.000 A 
ATOM     17  C   UNL     1       3.007   5.021  17.688  0.00  0.00    +0.000 A 
ATOM     18  C   UNL     1       3.410   6.373  17.613  0.00  0.00    +0.000 A 
ATOM     19  C   UNL     1       4.644   6.679  17.002  0.00  0.00    +0.000 A 
BRANCH  14  21
ATOM     20  C   UNL     1       7.036   4.918  14.883  0.00  0.00    +0.000 C 
ATOM     21  O   UNL     1       6.696   5.836  15.909  0.00  0.00    +0.000 OA
ENDBRANCH  14  21
BRANCH  17  22
ATOM     22  O   UNL     1       1.749   4.735  18.139  0.00  0.00    +0.000 OA
ATOM     23  C   UNL     1       1.412   3.373  18.359  0.00  0.00    +0.000 C 
ENDBRANCH  17  22
ENDBRANCH   1  18
TORSDOF 4
ENDMDL
