MODEL 1
REMARK VINA RESULT:      -7.3      0.000      0.000
REMARK  Name = 
REMARK  6 active torsions:
REMARK  status: ('A' for Active; 'I' for Inactive)
REMARK    1  A    between atoms: C_1  and  C_2
REMARK    2  A    between atoms: C_2  and  S_3
REMARK    3  A    between atoms: C_2  and  C_17
REMARK    4  A    between atoms: S_3  and  C_4
REMARK    5  A    between atoms: C_9  and  C_10
REMARK    6  A    between atoms: C_17  and  O_19
REMARK                            x       y       z     vdW  Elec       q    Type
REMARK                         _______ _______ _______ _____ _____    ______ ____
ROOT
ATOM      1  C   UNL     1       3.996   6.302  17.806  0.00  0.00    +0.000 A 
ATOM      2  N   UNL     1       4.288   5.075  18.290  0.00  0.00    +0.000 NA
ATOM      3  C   UNL     1       3.459   4.508  19.206  0.00  0.00    +0.000 A 
ATOM      4  C   UNL     1       2.305   5.144  19.659  0.00  0.00    +0.000 A 
ATOM      5  C   UNL     1       2.055   6.440  19.189  0.00  0.00    +0.000 A 
ATOM      6  C   UNL     1       2.912   7.040  18.264  0.00  0.00    +0.000 A 
ATOM      7  C   UNL     1       1.350   4.500  20.628  0.00  0.00    +0.000 C 
ATOM      8  C   UNL     1       0.737   3.201  20.101  0.00  0.00    +0.000 C 
ATOM      9  C   UNL     1       1.652   1.986  20.233  0.00  0.00    +0.000 C 
ATOM     10  C   UNL     1       2.906   2.032  19.361  0.00  0.00    +0.000 C 
ATOM     11  C   UNL     1       3.876   3.154  19.726  0.00  0.00    +0.000 C 
ENDROOT
BRANCH   6  12
ATOM     12  C   UNL     1       2.642   8.371  17.813  0.00  0.00    +0.000 C 
ATOM     13  N   UNL     1       2.404   9.451  17.473  0.00  0.00    +0.000 NA
ENDBRANCH   6  12
BRANCH   1  14
ATOM     14  S   UNL     1       5.093   6.880  16.519  0.00  0.00    +0.000 S 
BRANCH  14  16
ATOM     15  C   UNL     1       7.646   7.464  17.526  0.00  0.00    +0.000 C 
ATOM     16  C   UNL     1       6.706   6.310  17.192  0.00  0.00    +0.000 C 
BRANCH  16  17
ATOM     17  C   UNL     1       7.353   5.275  16.278  0.00  0.00    +0.000 C 
ATOM     18  O   UNL     1       7.505   5.406  15.071  0.00  0.00    +0.000 OA
BRANCH  17  19
ATOM     19  O   UNL     1       7.861   4.211  16.953  0.00  0.00    +0.000 OA
ATOM     20  H   UNL     1       8.838   4.193  16.925  0.00  0.00    +0.000 HD
ENDBRANCH  17  19
ENDBRANCH  16  17
ENDBRANCH  14  16
ENDBRANCH   1  14
TORSDOF 5
ENDMDL
MODEL 2
REMARK VINA RESULT:      -7.2      1.960      3.221
REMARK  Name = 
REMARK  6 active torsions:
REMARK  status: ('A' for Active; 'I' for Inactive)
REMARK    1  A    between atoms: C_1  and  C_2
REMARK    2  A    between atoms: C_2  and  S_3
REMARK    3  A    between atoms: C_2  and  C_17
REMARK    4  A    between atoms: S_3  and  C_4
REMARK    5  A    between atoms: C_9  and  C_10
REMARK    6  A    between atoms: C_17  and  O_19
REMARK                            x       y       z     vdW  Elec       q    Type
REMARK                         _______ _______ _______ _____ _____    ______ ____
ROOT
ATOM      1  C   UNL     1       4.993   5.590  17.019  0.00  0.00    +0.000 A 
ATOM      2  N   UNL     1       4.177   6.037  17.999  0.00  0.00    +0.000 NA
ATOM      3  C   UNL     1       3.147   5.253  18.413  0.00  0.00    +0.000 A 
ATOM      4  C   UNL     1       2.907   3.992  17.872  0.00  0.00    +0.000 A 
ATOM      5  C   UNL     1       3.728   3.575  16.815  0.00  0.00    +0.000 A 
ATOM      6  C   UNL     1       4.776   4.383  16.367  0.00  0.00    +0.000 A 
ATOM      7  C   UNL     1       1.807   3.092  18.366  0.00  0.00    +0.000 C 
ATOM      8  C   UNL     1       1.950   2.712  19.840  0.00  0.00    +0.000 C 
ATOM      9  C   UNL     1       1.468   3.792  20.807  0.00  0.00    +0.000 C 
ATOM     10  C   UNL     1       2.303   5.072  20.804  0.00  0.00    +0.000 C 
ATOM     11  C   UNL     1       2.259   5.839  19.484  0.00  0.00    +0.000 C 
ENDROOT
BRANCH   6  12
ATOM     12  C   UNL     1       5.589   3.941  15.276  0.00  0.00    +0.000 C 
ATOM     13  N   UNL     1       6.261   3.610  14.393  0.00  0.00    +0.000 NA
ENDBRANCH   6  12
BRANCH   1  14
ATOM     14  S   UNL     1       6.378   6.659  16.653  0.00  0.00    +0.000 S 
BRANCH  14  16
ATOM     15  C   UNL     1       8.217   7.825  18.422  0.00  0.00    +0.000 C 
ATOM     16  C   UNL     1       7.198   6.697  18.297  0.00  0.00    +0.000 C 
BRANCH  16  17
ATOM     17  C   UNL     1       7.787   5.337  18.655  0.00  0.00    +0.000 C 
ATOM     18  O   UNL     1       8.023   4.444  17.852  0.00  0.00    +0.000 OA
BRANCH  17  19
ATOM     19  O   UNL     1       8.139   5.236  19.964  0.00  0.00    +0.000 OA
ATOM     20  H   UNL     1       8.019   4.327  20.305  0.00  0.00    +0.000 HD
ENDBRANCH  17  19
ENDBRANCH  16  17
ENDBRANCH  14  16
ENDBRANCH   1  14
TORSDOF 5
ENDMDL
MODEL 3
REMARK VINA RESULT:      -7.0      2.064      3.274
REMARK  Name = 
REMARK  6 active torsions:
REMARK  status: ('A' for Active; 'I' for Inactive)
REMARK    1  A    between atoms: C_1  and  C_2
REMARK    2  A    between atoms: C_2  and  S_3
REMARK    3  A    between atoms: C_2  and  C_17
REMARK    4  A    between atoms: S_3  and  C_4
REMARK    5  A    between atoms: C_9  and  C_10
REMARK    6  A    between atoms: C_17  and  O_19
REMARK                            x       y       z     vdW  Elec       q    Type
REMARK                         _______ _______ _______ _____ _____    ______ ____
ROOT
ATOM      1  C   UNL     1       4.359   5.494  17.242  0.00  0.00    +0.000 A 
ATOM      2  N   UNL     1       3.420   5.759  18.176  0.00  0.00    +0.000 NA
ATOM      3  C   UNL     1       2.604   4.758  18.600  0.00  0.00    +0.000 A 
ATOM      4  C   UNL     1       2.708   3.458  18.113  0.00  0.00    +0.000 A 
ATOM      5  C   UNL     1       3.647   3.219  17.100  0.00  0.00    +0.000 A 
ATOM      6  C   UNL     1       4.476   4.246  16.643  0.00  0.00    +0.000 A 
ATOM      7  C   UNL     1       1.848   2.330  18.619  0.00  0.00    +0.000 C 
ATOM      8  C   UNL     1       2.025   2.057  20.114  0.00  0.00    +0.000 C 
ATOM      9  C   UNL     1       1.251   3.019  21.014  0.00  0.00    +0.000 C 
ATOM     10  C   UNL     1       1.739   4.466  20.972  0.00  0.00    +0.000 C 
ATOM     11  C   UNL     1       1.557   5.144  19.616  0.00  0.00    +0.000 C 
ENDROOT
BRANCH   6  12
ATOM     12  C   UNL     1       5.415   3.979  15.597  0.00  0.00    +0.000 C 
ATOM     13  N   UNL     1       6.151   3.760  14.731  0.00  0.00    +0.000 NA
ENDBRANCH   6  12
BRANCH   1  14
ATOM     14  S   UNL     1       5.446   6.860  16.863  0.00  0.00    +0.000 S 
BRANCH  14  16
ATOM     15  C   UNL     1       6.648   5.559  19.040  0.00  0.00    +0.000 C 
ATOM     16  C   UNL     1       6.960   6.324  17.757  0.00  0.00    +0.000 C 
BRANCH  16  17
ATOM     17  C   UNL     1       7.909   7.495  17.992  0.00  0.00    +0.000 C 
ATOM     18  O   UNL     1       7.957   8.505  17.303  0.00  0.00    +0.000 OA
BRANCH  17  19
ATOM     19  O   UNL     1       8.643   7.366  19.128  0.00  0.00    +0.000 OA
ATOM     20  H   UNL     1       8.095   7.476  19.931  0.00  0.00    +0.000 HD
ENDBRANCH  17  19
ENDBRANCH  16  17
ENDBRANCH  14  16
ENDBRANCH   1  14
TORSDOF 5
ENDMDL
MODEL 4
REMARK VINA RESULT:      -6.9      3.287      5.810
REMARK  Name = 
REMARK  6 active torsions:
REMARK  status: ('A' for Active; 'I' for Inactive)
REMARK    1  A    between atoms: C_1  and  C_2
REMARK    2  A    between atoms: C_2  and  S_3
REMARK    3  A    between atoms: C_2  and  C_17
REMARK    4  A    between atoms: S_3  and  C_4
REMARK    5  A    between atoms: C_9  and  C_10
REMARK    6  A    between atoms: C_17  and  O_19
REMARK                            x       y       z     vdW  Elec       q    Type
REMARK                         _______ _______ _______ _____ _____    ______ ____
ROOT
ATOM      1  C   UNL     1       2.852   6.124  19.451  0.00  0.00    +0.000 A 
ATOM      2  N   UNL     1       2.169   6.887  20.333  0.00  0.00    +0.000 NA
ATOM      3  C   UNL     1       1.763   8.129  19.960  0.00  0.00    +0.000 A 
ATOM      4  C   UNL     1       2.016   8.645  18.692  0.00  0.00    +0.000 A 
ATOM      5  C   UNL     1       2.779   7.862  17.815  0.00  0.00    +0.000 A 
ATOM      6  C   UNL     1       3.219   6.593  18.196  0.00  0.00    +0.000 A 
ATOM      7  C   UNL     1       1.518   9.996  18.250  0.00  0.00    +0.000 C 
ATOM      8  C   UNL     1      -0.006  10.119  18.276  0.00  0.00    +0.000 C 
ATOM      9  C   UNL     1      -0.582  10.388  19.665  0.00  0.00    +0.000 C 
ATOM     10  C   UNL     1      -0.414   9.240  20.660  0.00  0.00    +0.000 C 
ATOM     11  C   UNL     1       1.039   8.932  21.014  0.00  0.00    +0.000 C 
ENDROOT
BRANCH   6  12
ATOM     12  C   UNL     1       4.011   5.821  17.288  0.00  0.00    +0.000 C 
ATOM     13  N   UNL     1       4.650   5.219  16.533  0.00  0.00    +0.000 NA
ENDBRANCH   6  12
BRANCH   1  14
ATOM     14  S   UNL     1       3.218   4.470  20.018  0.00  0.00    +0.000 S 
BRANCH  14  16
ATOM     15  C   UNL     1       1.263   2.783  21.116  0.00  0.00    +0.000 C 
ATOM     16  C   UNL     1       1.538   3.728  19.950  0.00  0.00    +0.000 C 
BRANCH  16  17
ATOM     17  C   UNL     1       1.273   3.076  18.597  0.00  0.00    +0.000 C 
ATOM     18  O   UNL     1       1.179   3.681  17.537  0.00  0.00    +0.000 OA
BRANCH  17  19
ATOM     19  O   UNL     1       1.258   1.719  18.652  0.00  0.00    +0.000 OA
ATOM     20  H   UNL     1       0.425   1.378  19.033  0.00  0.00    +0.000 HD
ENDBRANCH  17  19
ENDBRANCH  16  17
ENDBRANCH  14  16
ENDBRANCH   1  14
TORSDOF 5
ENDMDL
MODEL 5
REMARK VINA RESULT:      -6.8      2.746      5.234
REMARK  Name = 
REMARK  6 active torsions:
REMARK  status: ('A' for Active; 'I' for Inactive)
REMARK    1  A    between atoms: C_1  and  C_2
REMARK    2  A    between atoms: C_2  and  S_3
REMARK    3  A    between atoms: C_2  and  C_17
REMARK    4  A    between atoms: S_3  and  C_4
REMARK    5  A    between atoms: C_9  and  C_10
REMARK    6  A    between atoms: C_17  and  O_19
REMARK                            x       y       z     vdW  Elec       q    Type
REMARK                         _______ _______ _______ _____ _____    ______ ____
ROOT
ATOM      1  C   UNL     1       2.618   4.380  18.258  0.00  0.00    +0.000 A 
ATOM      2  N   UNL     1       3.312   3.999  17.163  0.00  0.00    +0.000 NA
ATOM      3  C   UNL     1       4.319   4.790  16.707  0.00  0.00    +0.000 A 
ATOM      4  C   UNL     1       4.672   5.981  17.336  0.00  0.00    +0.000 A 
ATOM      5  C   UNL     1       3.899   6.388  18.432  0.00  0.00    +0.000 A 
ATOM      6  C   UNL     1       2.848   5.593  18.896  0.00  0.00    +0.000 A 
ATOM      7  C   UNL     1       5.824   6.834  16.874  0.00  0.00    +0.000 C 
ATOM      8  C   UNL     1       7.170   6.110  16.922  0.00  0.00    +0.000 C 
ATOM      9  C   UNL     1       7.416   5.179  15.737  0.00  0.00    +0.000 C 
ATOM     10  C   UNL     1       6.491   3.964  15.677  0.00  0.00    +0.000 C 
ATOM     11  C   UNL     1       5.021   4.313  15.458  0.00  0.00    +0.000 C 
ENDROOT
BRANCH   6  12
ATOM     12  C   UNL     1       2.065   6.039  20.006  0.00  0.00    +0.000 C 
ATOM     13  N   UNL     1       1.437   6.429  20.897  0.00  0.00    +0.000 NA
ENDBRANCH   6  12
BRANCH   1  14
ATOM     14  S   UNL     1       1.407   3.196  18.827  0.00  0.00    +0.000 S 
BRANCH  14  16
ATOM     15  C   UNL     1       2.386   2.814  21.429  0.00  0.00    +0.000 C 
ATOM     16  C   UNL     1       2.430   2.238  20.017  0.00  0.00    +0.000 C 
BRANCH  16  17
ATOM     17  C   UNL     1       3.855   2.058  19.505  0.00  0.00    +0.000 C 
ATOM     18  O   UNL     1       4.854   2.511  20.046  0.00  0.00    +0.000 OA
BRANCH  17  19
ATOM     19  O   UNL     1       3.933   1.236  18.426  0.00  0.00    +0.000 OA
ATOM     20  H   UNL     1       4.297   1.696  17.643  0.00  0.00    +0.000 HD
ENDBRANCH  17  19
ENDBRANCH  16  17
ENDBRANCH  14  16
ENDBRANCH   1  14
TORSDOF 5
ENDMDL
MODEL 6
REMARK VINA RESULT:      -6.6      2.128      3.260
REMARK  Name = 
REMARK  6 active torsions:
REMARK  status: ('A' for Active; 'I' for Inactive)
REMARK    1  A    between atoms: C_1  and  C_2
REMARK    2  A    between atoms: C_2  and  S_3
REMARK    3  A    between atoms: C_2  and  C_17
REMARK    4  A    between atoms: S_3  and  C_4
REMARK    5  A    between atoms: C_9  and  C_10
REMARK    6  A    between atoms: C_17  and  O_19
REMARK                            x       y       z     vdW  Elec       q    Type
REMARK                         _______ _______ _______ _____ _____    ______ ____
ROOT
ATOM      1  C   UNL     1       4.750   5.715  17.253  0.00  0.00    +0.000 A 
ATOM      2  N   UNL     1       4.026   5.952  18.369  0.00  0.00    +0.000 NA
ATOM      3  C   UNL     1       3.014   5.106  18.696  0.00  0.00    +0.000 A 
ATOM      4  C   UNL     1       2.701   3.989  17.925  0.00  0.00    +0.000 A 
ATOM      5  C   UNL     1       3.424   3.797  16.740  0.00  0.00    +0.000 A 
ATOM      6  C   UNL     1       4.451   4.673  16.384  0.00  0.00    +0.000 A 
ATOM      7  C   UNL     1       1.621   3.013  18.311  0.00  0.00    +0.000 C 
ATOM      8  C   UNL     1       1.873   2.332  19.657  0.00  0.00    +0.000 C 
ATOM      9  C   UNL     1       1.497   3.188  20.865  0.00  0.00    +0.000 C 
ATOM     10  C   UNL     1       2.360   4.434  21.058  0.00  0.00    +0.000 C 
ATOM     11  C   UNL     1       2.230   5.461  19.936  0.00  0.00    +0.000 C 
ENDROOT
BRANCH   6  12
ATOM     12  C   UNL     1       5.163   4.464  15.161  0.00  0.00    +0.000 C 
ATOM     13  N   UNL     1       5.715   4.278  14.160  0.00  0.00    +0.000 NA
ENDBRANCH   6  12
BRANCH   1  14
ATOM     14  S   UNL     1       6.127   6.826  17.003  0.00  0.00    +0.000 S 
BRANCH  14  16
ATOM     15  C   UNL     1       7.234   4.303  17.534  0.00  0.00    +0.000 C 
ATOM     16  C   UNL     1       7.495   5.799  17.675  0.00  0.00    +0.000 C 
BRANCH  16  17
ATOM     17  C   UNL     1       7.837   6.199  19.107  0.00  0.00    +0.000 C 
ATOM     18  O   UNL     1       7.530   5.558  20.103  0.00  0.00    +0.000 OA
BRANCH  17  19
ATOM     19  O   UNL     1       8.628   7.301  19.178  0.00  0.00    +0.000 OA
ATOM     20  H   UNL     1       8.870   7.635  18.291  0.00  0.00    +0.000 HD
ENDBRANCH  17  19
ENDBRANCH  16  17
ENDBRANCH  14  16
ENDBRANCH   1  14
TORSDOF 5
ENDMDL
MODEL 7
REMARK VINA RESULT:      -6.6      1.157      1.453
REMARK  Name = 
REMARK  6 active torsions:
REMARK  status: ('A' for Active; 'I' for Inactive)
REMARK    1  A    between atoms: C_1  and  C_2
REMARK    2  A    between atoms: C_2  and  S_3
REMARK    3  A    between atoms: C_2  and  C_17
REMARK    4  A    between atoms: S_3  and  C_4
REMARK    5  A    between atoms: C_9  and  C_10
REMARK    6  A    between atoms: C_17  and  O_19
REMARK                            x       y       z     vdW  Elec       q    Type
REMARK                         _______ _______ _______ _____ _____    ______ ____
ROOT
ATOM      1  C   UNL     1       4.498   6.120  18.086  0.00  0.00    +0.000 A 
ATOM      2  N   UNL     1       4.728   4.867  18.538  0.00  0.00    +0.000 NA
ATOM      3  C   UNL     1       3.686   4.128  19.003  0.00  0.00    +0.000 A 
ATOM      4  C   UNL     1       2.380   4.611  19.019  0.00  0.00    +0.000 A 
ATOM      5  C   UNL     1       2.175   5.934  18.604  0.00  0.00    +0.000 A 
ATOM      6  C   UNL     1       3.242   6.710  18.145  0.00  0.00    +0.000 A 
ATOM      7  C   UNL     1       1.212   3.779  19.476  0.00  0.00    +0.000 C 
ATOM      8  C   UNL     1       1.005   2.515  18.640  0.00  0.00    +0.000 C 
ATOM      9  C   UNL     1       1.939   1.366  19.015  0.00  0.00    +0.000 C 
ATOM     10  C   UNL     1       3.416   1.618  18.712  0.00  0.00    +0.000 C 
ATOM     11  C   UNL     1       4.031   2.754  19.525  0.00  0.00    +0.000 C 
ENDROOT
BRANCH   6  12
ATOM     12  C   UNL     1       3.007   8.062  17.742  0.00  0.00    +0.000 C 
ATOM     13  N   UNL     1       2.788   9.149  17.409  0.00  0.00    +0.000 NA
ENDBRANCH   6  12
BRANCH   1  14
ATOM     14  S   UNL     1       5.926   6.938  17.389  0.00  0.00    +0.000 S 
BRANCH  14  16
ATOM     15  C   UNL     1       5.140   5.521  15.098  0.00  0.00    +0.000 C 
ATOM     16  C   UNL     1       6.327   5.776  16.022  0.00  0.00    +0.000 C 
BRANCH  16  17
ATOM     17  C   UNL     1       6.940   4.485  16.554  0.00  0.00    +0.000 C 
ATOM     18  O   UNL     1       8.005   4.411  17.152  0.00  0.00    +0.000 OA
BRANCH  17  19
ATOM     19  O   UNL     1       6.129   3.406  16.398  0.00  0.00    +0.000 OA
ATOM     20  H   UNL     1       5.385   3.414  17.033  0.00  0.00    +0.000 HD
ENDBRANCH  17  19
ENDBRANCH  16  17
ENDBRANCH  14  16
ENDBRANCH   1  14
TORSDOF 5
ENDMDL
MODEL 8
REMARK VINA RESULT:      -6.6      1.632      2.673
REMARK  Name = 
REMARK  6 active torsions:
REMARK  status: ('A' for Active; 'I' for Inactive)
REMARK    1  A    between atoms: C_1  and  C_2
REMARK    2  A    between atoms: C_2  and  S_3
REMARK    3  A    between atoms: C_2  and  C_17
REMARK    4  A    between atoms: S_3  and  C_4
REMARK    5  A    between atoms: C_9  and  C_10
REMARK    6  A    between atoms: C_17  and  O_19
REMARK                            x       y       z     vdW  Elec       q    Type
REMARK                         _______ _______ _______ _____ _____    ______ ____
ROOT
ATOM      1  C   UNL     1       4.212   5.633  17.430  0.00  0.00    +0.000 A 
ATOM      2  N   UNL     1       3.509   5.843  18.565  0.00  0.00    +0.000 NA
ATOM      3  C   UNL     1       2.613   4.906  18.974  0.00  0.00    +0.000 A 
ATOM      4  C   UNL     1       2.399   3.725  18.269  0.00  0.00    +0.000 A 
ATOM      5  C   UNL     1       3.093   3.556  17.063  0.00  0.00    +0.000 A 
ATOM      6  C   UNL     1       4.000   4.522  16.623  0.00  0.00    +0.000 A 
ATOM      7  C   UNL     1       1.452   2.655  18.745  0.00  0.00    +0.000 C 
ATOM      8  C   UNL     1       1.831   2.074  20.108  0.00  0.00    +0.000 C 
ATOM      9  C   UNL     1       1.407   2.942  21.291  0.00  0.00    +0.000 C 
ATOM     10  C   UNL     1       2.130   4.284  21.390  0.00  0.00    +0.000 C 
ATOM     11  C   UNL     1       1.842   5.233  20.229  0.00  0.00    +0.000 C 
ENDROOT
BRANCH   6  12
ATOM     12  C   UNL     1       4.683   4.333  15.380  0.00  0.00    +0.000 C 
ATOM     13  N   UNL     1       5.215   4.159  14.367  0.00  0.00    +0.000 NA
ENDBRANCH   6  12
BRANCH   1  14
ATOM     14  S   UNL     1       5.443   6.876  17.071  0.00  0.00    +0.000 S 
BRANCH  14  16
ATOM     15  C   UNL     1       7.898   7.084  18.414  0.00  0.00    +0.000 C 
ATOM     16  C   UNL     1       6.929   6.078  17.800  0.00  0.00    +0.000 C 
BRANCH  16  17
ATOM     17  C   UNL     1       7.609   5.150  16.799  0.00  0.00    +0.000 C 
ATOM     18  O   UNL     1       7.751   5.391  15.608  0.00  0.00    +0.000 OA
BRANCH  17  19
ATOM     19  O   UNL     1       8.157   4.050  17.378  0.00  0.00    +0.000 OA
ATOM     20  H   UNL     1       7.516   3.314  17.443  0.00  0.00    +0.000 HD
ENDBRANCH  17  19
ENDBRANCH  16  17
ENDBRANCH  14  16
ENDBRANCH   1  14
TORSDOF 5
ENDMDL
MODEL 9
REMARK VINA RESULT:      -6.6      2.548      3.305
REMARK  Name = 
REMARK  6 active torsions:
REMARK  status: ('A' for Active; 'I' for Inactive)
REMARK    1  A    between atoms: C_1  and  C_2
REMARK    2  A    between atoms: C_2  and  S_3
REMARK    3  A    between atoms: C_2  and  C_17
REMARK    4  A    between atoms: S_3  and  C_4
REMARK    5  A    between atoms: C_9  and  C_10
REMARK    6  A    between atoms: C_17  and  O_19
REMARK                            x       y       z     vdW  Elec       q    Type
REMARK                         _______ _______ _______ _____ _____    ______ ____
ROOT
ATOM      1  C   UNL     1       5.318   4.697  18.166  0.00  0.00    +0.000 A 
ATOM      2  N   UNL     1       4.580   4.964  19.266  0.00  0.00    +0.000 NA
ATOM      3  C   UNL     1       3.304   4.500  19.338  0.00  0.00    +0.000 A 
ATOM      4  C   UNL     1       2.729   3.745  18.319  0.00  0.00    +0.000 A 
ATOM      5  C   UNL     1       3.491   3.533  17.162  0.00  0.00    +0.000 A 
ATOM      6  C   UNL     1       4.795   4.024  17.069  0.00  0.00    +0.000 A 
ATOM      7  C   UNL     1       1.338   3.176  18.416  0.00  0.00    +0.000 C 
ATOM      8  C   UNL     1       1.160   2.206  19.584  0.00  0.00    +0.000 C 
ATOM      9  C   UNL     1       0.946   2.892  20.932  0.00  0.00    +0.000 C 
ATOM     10  C   UNL     1       2.153   3.675  21.449  0.00  0.00    +0.000 C 
ATOM     11  C   UNL     1       2.534   4.872  20.582  0.00  0.00    +0.000 C 
ENDROOT
BRANCH   6  12
ATOM     12  C   UNL     1       5.545   3.807  15.871  0.00  0.00    +0.000 C 
ATOM     13  N   UNL     1       6.135   3.654  14.887  0.00  0.00    +0.000 NA
ENDBRANCH   6  12
BRANCH   1  14
ATOM     14  S   UNL     1       7.013   5.254  18.249  0.00  0.00    +0.000 S 
BRANCH  14  16
ATOM     15  C   UNL     1       6.536   7.101  16.191  0.00  0.00    +0.000 C 
ATOM     16  C   UNL     1       6.809   6.993  17.688  0.00  0.00    +0.000 C 
BRANCH  16  17
ATOM     17  C   UNL     1       7.982   7.861  18.131  0.00  0.00    +0.000 C 
ATOM     18  O   UNL     1       8.219   8.984  17.707  0.00  0.00    +0.000 OA
BRANCH  17  19
ATOM     19  O   UNL     1       8.699   7.310  19.144  0.00  0.00    +0.000 OA
ATOM     20  H   UNL     1       8.276   7.457  20.014  0.00  0.00    +0.000 HD
ENDBRANCH  17  19
ENDBRANCH  16  17
ENDBRANCH  14  16
ENDBRANCH   1  14
TORSDOF 5
ENDMDL
