MODEL 1
REMARK VINA RESULT:      -7.5      0.000      0.000
REMARK  Name = 
REMARK  4 active torsions:
REMARK  status: ('A' for Active; 'I' for Inactive)
REMARK    1  A    between atoms: C_1  and  C_2
REMARK    2  A    between atoms: C_5  and  C_7
REMARK    3  A    between atoms: C_8  and  C_9
REMARK    4  A    between atoms: C_19  and  C_20
REMARK                            x       y       z     vdW  Elec       q    Type
REMARK                         _______ _______ _______ _____ _____    ______ ____
ROOT
ATOM      1  C   UNL     1       2.223   7.278  19.608  0.00  0.00    +0.000 C 
ATOM      2  C   UNL     1       1.827   8.412  19.000  0.00  0.00    +0.000 C 
ENDROOT
BRANCH   1   7
ATOM      3  C   UNL     1       2.782   3.103  17.384  0.00  0.00    +0.000 C 
ATOM      4  C   UNL     1       3.677   2.933  18.609  0.00  0.00    +0.000 C 
ATOM      5  C   UNL     1       4.404   4.234  19.001  0.00  0.00    +0.000 C 
ATOM      6  N   UNL     1       3.480   5.185  19.620  0.00  0.00    +0.000 N 
ATOM      7  C   UNL     1       3.175   6.355  18.947  0.00  0.00    +0.000 C 
ATOM      8  O   UNL     1       3.666   6.653  17.860  0.00  0.00    +0.000 OA
ATOM      9  C   UNL     1       2.758   4.605  20.759  0.00  0.00    +0.000 C 
ATOM     10  C   UNL     1       2.025   3.323  20.323  0.00  0.00    +0.000 C 
ATOM     11  C   UNL     1       1.373   2.642  21.520  0.00  0.00    +0.000 C 
ATOM     12  O   UNL     1       2.941   2.386  19.725  0.00  0.00    +0.000 OA
ENDBRANCH   1   7
BRANCH   2  13
ATOM     13  C   UNL     1       0.913   9.379  19.629  0.00  0.00    +0.000 A 
ATOM     14  C   UNL     1       0.026  10.169  18.857  0.00  0.00    +0.000 A 
ATOM     15  C   UNL     1      -0.838  11.089  19.455  0.00  0.00    +0.000 A 
ATOM     16  C   UNL     1      -0.811  11.192  20.825  0.00  0.00    +0.000 A 
ATOM     17  C   UNL     1       0.027  10.416  21.592  0.00  0.00    +0.000 A 
ATOM     18  C   UNL     1       0.890   9.497  21.027  0.00  0.00    +0.000 A 
ATOM     19  O   UNL     1      -0.108  10.673  22.921  0.00  0.00    +0.000 OA
ATOM     20  C   UNL     1      -1.098  11.723  22.896  0.00  0.00    +0.000 C 
ATOM     21  O   UNL     1      -1.574  12.035  21.571  0.00  0.00    +0.000 OA
ENDBRANCH   2  13
TORSDOF 2
ENDMDL
MODEL 2
REMARK VINA RESULT:      -7.4      1.931      7.857
REMARK  Name = 
REMARK  4 active torsions:
REMARK  status: ('A' for Active; 'I' for Inactive)
REMARK    1  A    between atoms: C_1  and  C_2
REMARK    2  A    between atoms: C_5  and  C_7
REMARK    3  A    between atoms: C_8  and  C_9
REMARK    4  A    between atoms: C_19  and  C_20
REMARK                            x       y       z     vdW  Elec       q    Type
REMARK                         _______ _______ _______ _____ _____    ______ ____
ROOT
ATOM      1  C   UNL     1       1.059   7.925  21.006  0.00  0.00    +0.000 C 
ATOM      2  C   UNL     1       2.054   7.318  20.333  0.00  0.00    +0.000 C 
ENDROOT
BRANCH   1   7
ATOM      3  C   UNL     1      -1.404  11.940  21.714  0.00  0.00    +0.000 C 
ATOM      4  C   UNL     1      -0.548  12.301  20.503  0.00  0.00    +0.000 C 
ATOM      5  C   UNL     1       0.864  11.688  20.567  0.00  0.00    +0.000 C 
ATOM      6  N   UNL     1       0.825  10.250  20.299  0.00  0.00    +0.000 N 
ATOM      7  C   UNL     1       1.129   9.371  21.323  0.00  0.00    +0.000 C 
ATOM      8  O   UNL     1       1.463   9.737  22.448  0.00  0.00    +0.000 OA
ATOM      9  C   UNL     1       0.155   9.935  19.031  0.00  0.00    +0.000 C 
ATOM     10  C   UNL     1      -1.260  10.542  19.015  0.00  0.00    +0.000 C 
ATOM     11  C   UNL     1      -1.922  10.330  17.659  0.00  0.00    +0.000 C 
ATOM     12  O   UNL     1      -1.214  11.959  19.268  0.00  0.00    +0.000 OA
ENDBRANCH   1   7
BRANCH   2  13
ATOM     13  C   UNL     1       2.015   5.893  19.961  0.00  0.00    +0.000 A 
ATOM     14  C   UNL     1       1.349   4.937  20.765  0.00  0.00    +0.000 A 
ATOM     15  C   UNL     1       1.316   3.586  20.413  0.00  0.00    +0.000 A 
ATOM     16  C   UNL     1       1.941   3.216  19.246  0.00  0.00    +0.000 A 
ATOM     17  C   UNL     1       2.573   4.135  18.441  0.00  0.00    +0.000 A 
ATOM     18  C   UNL     1       2.619   5.478  18.764  0.00  0.00    +0.000 A 
ATOM     19  O   UNL     1       3.121   3.560  17.337  0.00  0.00    +0.000 OA
ATOM     20  C   UNL     1       2.792   2.173  17.560  0.00  0.00    +0.000 C 
ATOM     21  O   UNL     1       2.015   1.950  18.754  0.00  0.00    +0.000 OA
ENDBRANCH   2  13
TORSDOF 2
ENDMDL
MODEL 3
REMARK VINA RESULT:      -7.4      2.057      2.299
REMARK  Name = 
REMARK  4 active torsions:
REMARK  status: ('A' for Active; 'I' for Inactive)
REMARK    1  A    between atoms: C_1  and  C_2
REMARK    2  A    between atoms: C_5  and  C_7
REMARK    3  A    between atoms: C_8  and  C_9
REMARK    4  A    between atoms: C_19  and  C_20
REMARK                            x       y       z     vdW  Elec       q    Type
REMARK                         _______ _______ _______ _____ _____    ______ ____
ROOT
ATOM      1  C   UNL     1       2.316   7.667  18.422  0.00  0.00    +0.000 C 
ATOM      2  C   UNL     1       2.324   8.918  17.925  0.00  0.00    +0.000 C 
ENDROOT
BRANCH   1   7
ATOM      3  C   UNL     1       3.655   3.258  17.212  0.00  0.00    +0.000 C 
ATOM      4  C   UNL     1       4.229   3.390  18.620  0.00  0.00    +0.000 C 
ATOM      5  C   UNL     1       4.758   4.806  18.918  0.00  0.00    +0.000 C 
ATOM      6  N   UNL     1       3.655   5.748  19.117  0.00  0.00    +0.000 N 
ATOM      7  C   UNL     1       3.456   6.749  18.184  0.00  0.00    +0.000 C 
ATOM      8  O   UNL     1       4.180   6.910  17.204  0.00  0.00    +0.000 OA
ATOM      9  C   UNL     1       2.711   5.295  20.146  0.00  0.00    +0.000 C 
ATOM     10  C   UNL     1       2.186   3.889  19.801  0.00  0.00    +0.000 C 
ATOM     11  C   UNL     1       1.301   3.355  20.921  0.00  0.00    +0.000 C 
ATOM     12  O   UNL     1       3.275   2.965  19.618  0.00  0.00    +0.000 OA
ENDBRANCH   1   7
BRANCH   2  13
ATOM     13  C   UNL     1       1.235   9.880  18.164  0.00  0.00    +0.000 A 
ATOM     14  C   UNL     1       1.495  11.187  18.642  0.00  0.00    +0.000 A 
ATOM     15  C   UNL     1       0.459  12.097  18.872  0.00  0.00    +0.000 A 
ATOM     16  C   UNL     1      -0.823  11.685  18.602  0.00  0.00    +0.000 A 
ATOM     17  C   UNL     1      -1.091  10.427  18.114  0.00  0.00    +0.000 A 
ATOM     18  C   UNL     1      -0.087   9.508  17.876  0.00  0.00    +0.000 A 
ATOM     19  O   UNL     1      -2.422  10.227  17.913  0.00  0.00    +0.000 OA
ATOM     20  C   UNL     1      -2.959  11.488  18.364  0.00  0.00    +0.000 C 
ATOM     21  O   UNL     1      -1.947  12.431  18.772  0.00  0.00    +0.000 OA
ENDBRANCH   2  13
TORSDOF 2
ENDMDL
MODEL 4
REMARK VINA RESULT:      -7.3      1.107      1.626
REMARK  Name = 
REMARK  4 active torsions:
REMARK  status: ('A' for Active; 'I' for Inactive)
REMARK    1  A    between atoms: C_1  and  C_2
REMARK    2  A    between atoms: C_5  and  C_7
REMARK    3  A    between atoms: C_8  and  C_9
REMARK    4  A    between atoms: C_19  and  C_20
REMARK                            x       y       z     vdW  Elec       q    Type
REMARK                         _______ _______ _______ _____ _____    ______ ____
ROOT
ATOM      1  C   UNL     1       1.810   7.447  20.311  0.00  0.00    +0.000 C 
ATOM      2  C   UNL     1       1.496   8.731  20.056  0.00  0.00    +0.000 C 
ENDROOT
BRANCH   1   7
ATOM      3  C   UNL     1       1.967   3.647  17.444  0.00  0.00    +0.000 C 
ATOM      4  C   UNL     1       3.083   3.341  18.440  0.00  0.00    +0.000 C 
ATOM      5  C   UNL     1       3.860   4.600  18.869  0.00  0.00    +0.000 C 
ATOM      6  N   UNL     1       3.065   5.421  19.783  0.00  0.00    +0.000 N 
ATOM      7  C   UNL     1       2.625   6.661  19.355  0.00  0.00    +0.000 C 
ATOM      8  O   UNL     1       2.894   7.126  18.250  0.00  0.00    +0.000 OA
ATOM      9  C   UNL     1       2.582   4.661  20.943  0.00  0.00    +0.000 C 
ATOM     10  C   UNL     1       1.790   3.427  20.474  0.00  0.00    +0.000 C 
ATOM     11  C   UNL     1       1.388   2.562  21.662  0.00  0.00    +0.000 C 
ATOM     12  O   UNL     1       2.582   2.616  19.584  0.00  0.00    +0.000 OA
ENDBRANCH   1   7
BRANCH   2  13
ATOM     13  C   UNL     1       0.721   9.565  20.989  0.00  0.00    +0.000 A 
ATOM     14  C   UNL     1       0.075   9.007  22.118  0.00  0.00    +0.000 A 
ATOM     15  C   UNL     1      -0.663   9.800  23.001  0.00  0.00    +0.000 A 
ATOM     16  C   UNL     1      -0.728  11.148  22.745  0.00  0.00    +0.000 A 
ATOM     17  C   UNL     1      -0.086  11.711  21.667  0.00  0.00    +0.000 A 
ATOM     18  C   UNL     1       0.651  10.951  20.779  0.00  0.00    +0.000 A 
ATOM     19  O   UNL     1      -0.276  13.056  21.601  0.00  0.00    +0.000 OA
ATOM     20  C   UNL     1      -1.138  13.266  22.739  0.00  0.00    +0.000 C 
ATOM     21  O   UNL     1      -1.402  12.064  23.490  0.00  0.00    +0.000 OA
ENDBRANCH   2  13
TORSDOF 2
ENDMDL
MODEL 5
REMARK VINA RESULT:      -7.3      2.244      7.750
REMARK  Name = 
REMARK  4 active torsions:
REMARK  status: ('A' for Active; 'I' for Inactive)
REMARK    1  A    between atoms: C_1  and  C_2
REMARK    2  A    between atoms: C_5  and  C_7
REMARK    3  A    between atoms: C_8  and  C_9
REMARK    4  A    between atoms: C_19  and  C_20
REMARK                            x       y       z     vdW  Elec       q    Type
REMARK                         _______ _______ _______ _____ _____    ______ ____
ROOT
ATOM      1  C   UNL     1       1.887   8.386  18.666  0.00  0.00    +0.000 C 
ATOM      2  C   UNL     1       2.799   7.789  17.876  0.00  0.00    +0.000 C 
ENDROOT
BRANCH   1   7
ATOM      3  C   UNL     1       1.911  12.784  20.495  0.00  0.00    +0.000 C 
ATOM      4  C   UNL     1       0.417  12.511  20.341  0.00  0.00    +0.000 C 
ATOM      5  C   UNL     1       0.087  11.700  19.074  0.00  0.00    +0.000 C 
ATOM      6  N   UNL     1       0.479  10.299  19.230  0.00  0.00    +0.000 N 
ATOM      7  C   UNL     1       1.517   9.806  18.459  0.00  0.00    +0.000 C 
ATOM      8  O   UNL     1       2.112  10.480  17.621  0.00  0.00    +0.000 OA
ATOM      9  C   UNL     1      -0.101   9.686  20.432  0.00  0.00    +0.000 C 
ATOM     10  C   UNL     1       0.271  10.509  21.678  0.00  0.00    +0.000 C 
ATOM     11  C   UNL     1      -0.425   9.957  22.916  0.00  0.00    +0.000 C 
ATOM     12  O   UNL     1      -0.128  11.885  21.523  0.00  0.00    +0.000 OA
ENDBRANCH   1   7
BRANCH   2  13
ATOM     13  C   UNL     1       3.174   6.372  18.017  0.00  0.00    +0.000 A 
ATOM     14  C   UNL     1       4.522   5.978  18.193  0.00  0.00    +0.000 A 
ATOM     15  C   UNL     1       4.876   4.633  18.323  0.00  0.00    +0.000 A 
ATOM     16  C   UNL     1       3.867   3.702  18.290  0.00  0.00    +0.000 A 
ATOM     17  C   UNL     1       2.549   4.068  18.144  0.00  0.00    +0.000 A 
ATOM     18  C   UNL     1       2.170   5.391  18.015  0.00  0.00    +0.000 A 
ATOM     19  O   UNL     1       1.714   2.994  18.141  0.00  0.00    +0.000 OA
ATOM     20  C   UNL     1       2.661   1.912  18.266  0.00  0.00    +0.000 C 
ATOM     21  O   UNL     1       4.027   2.355  18.394  0.00  0.00    +0.000 OA
ENDBRANCH   2  13
TORSDOF 2
ENDMDL
MODEL 6
REMARK VINA RESULT:      -7.3      1.541      1.619
REMARK  Name = 
REMARK  4 active torsions:
REMARK  status: ('A' for Active; 'I' for Inactive)
REMARK    1  A    between atoms: C_1  and  C_2
REMARK    2  A    between atoms: C_5  and  C_7
REMARK    3  A    between atoms: C_8  and  C_9
REMARK    4  A    between atoms: C_19  and  C_20
REMARK                            x       y       z     vdW  Elec       q    Type
REMARK                         _______ _______ _______ _____ _____    ______ ____
ROOT
ATOM      1  C   UNL     1       2.243   7.829  18.722  0.00  0.00    +0.000 C 
ATOM      2  C   UNL     1       1.816   8.792  17.883  0.00  0.00    +0.000 C 
ENDROOT
BRANCH   1   7
ATOM      3  C   UNL     1       3.310   3.494  17.063  0.00  0.00    +0.000 C 
ATOM      4  C   UNL     1       3.997   3.491  18.427  0.00  0.00    +0.000 C 
ATOM      5  C   UNL     1       4.603   4.860  18.791  0.00  0.00    +0.000 C 
ATOM      6  N   UNL     1       3.557   5.817  19.153  0.00  0.00    +0.000 N 
ATOM      7  C   UNL     1       3.324   6.898  18.321  0.00  0.00    +0.000 C 
ATOM      8  O   UNL     1       3.975   7.115  17.301  0.00  0.00    +0.000 OA
ATOM      9  C   UNL     1       2.679   5.313  20.216  0.00  0.00    +0.000 C 
ATOM     10  C   UNL     1       2.074   3.958  19.805  0.00  0.00    +0.000 C 
ATOM     11  C   UNL     1       1.260   3.363  20.947  0.00  0.00    +0.000 C 
ATOM     12  O   UNL     1       3.109   3.016  19.462  0.00  0.00    +0.000 OA
ENDBRANCH   1   7
BRANCH   2  13
ATOM     13  C   UNL     1       0.773   9.765  18.247  0.00  0.00    +0.000 A 
ATOM     14  C   UNL     1      -0.527   9.699  17.688  0.00  0.00    +0.000 A 
ATOM     15  C   UNL     1      -1.515  10.625  18.032  0.00  0.00    +0.000 A 
ATOM     16  C   UNL     1      -1.187  11.597  18.947  0.00  0.00    +0.000 A 
ATOM     17  C   UNL     1       0.063  11.660  19.518  0.00  0.00    +0.000 A 
ATOM     18  C   UNL     1       1.058  10.757  19.198  0.00  0.00    +0.000 A 
ATOM     19  O   UNL     1       0.174  12.692  20.398  0.00  0.00    +0.000 OA
ATOM     20  C   UNL     1      -1.136  13.288  20.286  0.00  0.00    +0.000 C 
ATOM     21  O   UNL     1      -2.017  12.578  19.391  0.00  0.00    +0.000 OA
ENDBRANCH   2  13
TORSDOF 2
ENDMDL
MODEL 7
REMARK VINA RESULT:      -7.2      2.715      4.180
REMARK  Name = 
REMARK  4 active torsions:
REMARK  status: ('A' for Active; 'I' for Inactive)
REMARK    1  A    between atoms: C_1  and  C_2
REMARK    2  A    between atoms: C_5  and  C_7
REMARK    3  A    between atoms: C_8  and  C_9
REMARK    4  A    between atoms: C_19  and  C_20
REMARK                            x       y       z     vdW  Elec       q    Type
REMARK                         _______ _______ _______ _____ _____    ______ ____
ROOT
ATOM      1  C   UNL     1       3.261   6.382  18.484  0.00  0.00    +0.000 C 
ATOM      2  C   UNL     1       2.458   7.418  18.177  0.00  0.00    +0.000 C 
ENDROOT
BRANCH   1   7
ATOM      3  C   UNL     1       7.272   4.223  17.088  0.00  0.00    +0.000 C 
ATOM      4  C   UNL     1       7.087   5.284  16.005  0.00  0.00    +0.000 C 
ATOM      5  C   UNL     1       5.608   5.507  15.635  0.00  0.00    +0.000 C 
ATOM      6  N   UNL     1       4.909   6.245  16.688  0.00  0.00    +0.000 N 
ATOM      7  C   UNL     1       3.929   5.597  17.418  0.00  0.00    +0.000 C 
ATOM      8  O   UNL     1       3.590   4.434  17.208  0.00  0.00    +0.000 OA
ATOM      9  C   UNL     1       5.578   7.507  17.027  0.00  0.00    +0.000 C 
ATOM     10  C   UNL     1       7.044   7.240  17.416  0.00  0.00    +0.000 C 
ATOM     11  C   UNL     1       7.785   8.551  17.650  0.00  0.00    +0.000 C 
ATOM     12  O   UNL     1       7.731   6.525  16.370  0.00  0.00    +0.000 OA
ENDBRANCH   1   7
BRANCH   2  13
ATOM     13  C   UNL     1       1.803   8.251  19.199  0.00  0.00    +0.000 A 
ATOM     14  C   UNL     1       1.698   7.825  20.545  0.00  0.00    +0.000 A 
ATOM     15  C   UNL     1       1.072   8.615  21.513  0.00  0.00    +0.000 A 
ATOM     16  C   UNL     1       0.573   9.832  21.116  0.00  0.00    +0.000 A 
ATOM     17  C   UNL     1       0.687  10.272  19.818  0.00  0.00    +0.000 A 
ATOM     18  C   UNL     1       1.302   9.513  18.841  0.00  0.00    +0.000 A 
ATOM     19  O   UNL     1       0.131  11.501  19.641  0.00  0.00    +0.000 OA
ATOM     20  C   UNL     1      -0.375  11.764  20.967  0.00  0.00    +0.000 C 
ATOM     21  O   UNL     1      -0.069  10.723  21.917  0.00  0.00    +0.000 OA
ENDBRANCH   2  13
TORSDOF 2
ENDMDL
MODEL 8
REMARK VINA RESULT:      -7.2      2.110      7.685
REMARK  Name = 
REMARK  4 active torsions:
REMARK  status: ('A' for Active; 'I' for Inactive)
REMARK    1  A    between atoms: C_1  and  C_2
REMARK    2  A    between atoms: C_5  and  C_7
REMARK    3  A    between atoms: C_8  and  C_9
REMARK    4  A    between atoms: C_19  and  C_20
REMARK                            x       y       z     vdW  Elec       q    Type
REMARK                         _______ _______ _______ _____ _____    ______ ____
ROOT
ATOM      1  C   UNL     1       1.809   8.146  18.855  0.00  0.00    +0.000 C 
ATOM      2  C   UNL     1       2.287   7.285  17.938  0.00  0.00    +0.000 C 
ENDROOT
BRANCH   1   7
ATOM      3  C   UNL     1       2.060  12.678  20.302  0.00  0.00    +0.000 C 
ATOM      4  C   UNL     1       0.560  12.498  20.078  0.00  0.00    +0.000 C 
ATOM      5  C   UNL     1       0.242  11.601  18.866  0.00  0.00    +0.000 C 
ATOM      6  N   UNL     1       0.519  10.196  19.165  0.00  0.00    +0.000 N 
ATOM      7  C   UNL     1       1.558   9.565  18.505  0.00  0.00    +0.000 C 
ATOM      8  O   UNL     1       2.248  10.118  17.652  0.00  0.00    +0.000 OA
ATOM      9  C   UNL     1      -0.172   9.734  20.376  0.00  0.00    +0.000 C 
ATOM     10  C   UNL     1       0.191  10.638  21.569  0.00  0.00    +0.000 C 
ATOM     11  C   UNL     1      -0.613  10.248  22.803  0.00  0.00    +0.000 C 
ATOM     12  O   UNL     1      -0.095  12.019  21.273  0.00  0.00    +0.000 OA
ENDBRANCH   1   7
BRANCH   2  13
ATOM     13  C   UNL     1       2.517   5.859  18.224  0.00  0.00    +0.000 A 
ATOM     14  C   UNL     1       1.595   4.865  17.818  0.00  0.00    +0.000 A 
ATOM     15  C   UNL     1       1.814   3.512  18.094  0.00  0.00    +0.000 A 
ATOM     16  C   UNL     1       2.966   3.177  18.762  0.00  0.00    +0.000 A 
ATOM     17  C   UNL     1       3.884   4.127  19.143  0.00  0.00    +0.000 A 
ATOM     18  C   UNL     1       3.695   5.471  18.882  0.00  0.00    +0.000 A 
ATOM     19  O   UNL     1       4.952   3.581  19.787  0.00  0.00    +0.000 OA
ATOM     20  C   UNL     1       4.581   2.187  19.796  0.00  0.00    +0.000 C 
ATOM     21  O   UNL     1       3.337   1.918  19.118  0.00  0.00    +0.000 OA
ENDBRANCH   2  13
TORSDOF 2
ENDMDL
MODEL 9
REMARK VINA RESULT:      -7.2      2.072      7.636
REMARK  Name = 
REMARK  4 active torsions:
REMARK  status: ('A' for Active; 'I' for Inactive)
REMARK    1  A    between atoms: C_1  and  C_2
REMARK    2  A    between atoms: C_5  and  C_7
REMARK    3  A    between atoms: C_8  and  C_9
REMARK    4  A    between atoms: C_19  and  C_20
REMARK                            x       y       z     vdW  Elec       q    Type
REMARK                         _______ _______ _______ _____ _____    ______ ____
ROOT
ATOM      1  C   UNL     1       2.046   8.333  18.904  0.00  0.00    +0.000 C 
ATOM      2  C   UNL     1       2.834   7.619  18.078  0.00  0.00    +0.000 C 
ENDROOT
BRANCH   1   7
ATOM      3  C   UNL     1       1.312  12.929  19.914  0.00  0.00    +0.000 C 
ATOM      4  C   UNL     1      -0.113  12.384  19.858  0.00  0.00    +0.000 C 
ATOM      5  C   UNL     1      -0.298  11.312  18.767  0.00  0.00    +0.000 C 
ATOM      6  N   UNL     1       0.330  10.050  19.160  0.00  0.00    +0.000 N 
ATOM      7  C   UNL     1       1.437   9.608  18.457  0.00  0.00    +0.000 C 
ATOM      8  O   UNL     1       1.907  10.209  17.494  0.00  0.00    +0.000 OA
ATOM      9  C   UNL     1      -0.136   9.576  20.469  0.00  0.00    +0.000 C 
ATOM     10  C   UNL     1       0.089  10.663  21.536  0.00  0.00    +0.000 C 
ATOM     11  C   UNL     1      -0.501  10.235  22.874  0.00  0.00    +0.000 C 
ATOM     12  O   UNL     1      -0.542  11.900  21.149  0.00  0.00    +0.000 OA
ENDBRANCH   1   7
BRANCH   2  13
ATOM     13  C   UNL     1       3.433   6.329  18.460  0.00  0.00    +0.000 A 
ATOM     14  C   UNL     1       4.678   5.908  17.936  0.00  0.00    +0.000 A 
ATOM     15  C   UNL     1       5.243   4.682  18.297  0.00  0.00    +0.000 A 
ATOM     16  C   UNL     1       4.554   3.902  19.194  0.00  0.00    +0.000 A 
ATOM     17  C   UNL     1       3.355   4.307  19.732  0.00  0.00    +0.000 A 
ATOM     18  C   UNL     1       2.774   5.514  19.395  0.00  0.00    +0.000 A 
ATOM     19  O   UNL     1       2.845   3.391  20.599  0.00  0.00    +0.000 OA
ATOM     20  C   UNL     1       3.843   2.352  20.516  0.00  0.00    +0.000 C 
ATOM     21  O   UNL     1       4.948   2.684  19.651  0.00  0.00    +0.000 OA
ENDBRANCH   2  13
TORSDOF 2
ENDMDL
