MODEL 1
REMARK VINA RESULT:      -6.7      0.000      0.000
REMARK  Name = 
REMARK  7 active torsions:
REMARK  status: ('A' for Active; 'I' for Inactive)
REMARK    1  A    between atoms: C_1  and  C_2
REMARK    2  A    between atoms: C_2  and  C_3
REMARK    3  A    between atoms: C_3  and  C_4
REMARK    4  A    between atoms: C_4  and  O_5
REMARK    5  A    between atoms: O_5  and  C_6
REMARK    6  A    between atoms: C_6  and  N_8
REMARK    7  A    between atoms: C_9  and  C_11
REMARK                            x       y       z     vdW  Elec       q    Type
REMARK                         _______ _______ _______ _____ _____    ______ ____
ROOT
ATOM      1  N   UNL     1       5.257   4.283  15.194  0.00  0.00    +0.000 N 
ATOM      2  C   UNL     1       4.880   5.302  16.056  0.00  0.00    +0.000 C 
ATOM      3  O   UNL     1       5.223   6.472  15.899  0.00  0.00    +0.000 OA
ATOM      4  H   UNL     1       4.928   3.345  15.379  0.00  0.00    +0.000 HD
ENDROOT
BRANCH   2   5
ATOM      5  C   UNL     1       4.068   4.893  17.195  0.00  0.00    +0.000 A 
ATOM      6  S   UNL     1       4.103   3.230  17.605  0.00  0.00    +0.000 S 
ATOM      7  C   UNL     1       3.003   3.428  18.899  0.00  0.00    +0.000 A 
ATOM      8  C   UNL     1       2.513   2.406  19.735  0.00  0.00    +0.000 A 
ATOM      9  C   UNL     1       1.623   2.736  20.756  0.00  0.00    +0.000 A 
ATOM     10  C   UNL     1       1.235   4.053  20.946  0.00  0.00    +0.000 A 
ATOM     11  C   UNL     1       1.724   5.065  20.112  0.00  0.00    +0.000 A 
ATOM     12  C   UNL     1       2.622   4.762  19.052  0.00  0.00    +0.000 A 
ATOM     13  C   UNL     1       3.254   5.599  18.057  0.00  0.00    +0.000 A 
ATOM     14 CL   UNL     1       2.995   7.300  18.016  0.00  0.00    +0.000 Cl
ENDBRANCH   2   5
BRANCH   1  15
ATOM     15  C   UNL     1       6.058   4.397  14.082  0.00  0.00    +0.000 C 
ATOM     16  S   UNL     1       7.593   5.029  14.186  0.00  0.00    +0.000 S 
BRANCH  15  17
ATOM     17  O   UNL     1       5.488   4.005  12.923  0.00  0.00    +0.000 OA
BRANCH  17  18
ATOM     18  C   UNL     1       5.995   2.925  12.115  0.00  0.00    +0.000 C 
BRANCH  18  19
ATOM     19  C   UNL     1       4.935   2.553  11.077  0.00  0.00    +0.000 C 
BRANCH  19  21
ATOM     20  C   UNL     1       3.102   3.759   9.826  0.00  0.00    +0.000 C 
ATOM     21  C   UNL     1       3.672   3.411  11.192  0.00  0.00    +0.000 C 
ENDBRANCH  19  21
ENDBRANCH  18  19
ENDBRANCH  17  18
ENDBRANCH  15  17
ENDBRANCH   1  15
TORSDOF 6
ENDMDL
MODEL 2
REMARK VINA RESULT:      -6.6      0.988      1.501
REMARK  Name = 
REMARK  7 active torsions:
REMARK  status: ('A' for Active; 'I' for Inactive)
REMARK    1  A    between atoms: C_1  and  C_2
REMARK    2  A    between atoms: C_2  and  C_3
REMARK    3  A    between atoms: C_3  and  C_4
REMARK    4  A    between atoms: C_4  and  O_5
REMARK    5  A    between atoms: O_5  and  C_6
REMARK    6  A    between atoms: C_6  and  N_8
REMARK    7  A    between atoms: C_9  and  C_11
REMARK                            x       y       z     vdW  Elec       q    Type
REMARK                         _______ _______ _______ _____ _____    ______ ____
ROOT
ATOM      1  N   UNL     1       5.210   4.210  15.351  0.00  0.00    +0.000 N 
ATOM      2  C   UNL     1       4.798   5.224  16.203  0.00  0.00    +0.000 C 
ATOM      3  O   UNL     1       5.119   6.401  16.046  0.00  0.00    +0.000 OA
ATOM      4  H   UNL     1       4.898   3.265  15.535  0.00  0.00    +0.000 HD
ENDROOT
BRANCH   2   5
ATOM      5  C   UNL     1       3.979   4.802  17.331  0.00  0.00    +0.000 A 
ATOM      6  S   UNL     1       3.976   3.129  17.694  0.00  0.00    +0.000 S 
ATOM      7  C   UNL     1       2.882   3.316  18.996  0.00  0.00    +0.000 A 
ATOM      8  C   UNL     1       2.369   2.283  19.804  0.00  0.00    +0.000 A 
ATOM      9  C   UNL     1       1.488   2.605  20.835  0.00  0.00    +0.000 A 
ATOM     10  C   UNL     1       1.132   3.925  21.063  0.00  0.00    +0.000 A 
ATOM     11  C   UNL     1       1.644   4.949  20.257  0.00  0.00    +0.000 A 
ATOM     12  C   UNL     1       2.533   4.654  19.187  0.00  0.00    +0.000 A 
ATOM     13  C   UNL     1       3.183   5.503  18.214  0.00  0.00    +0.000 A 
ATOM     14 CL   UNL     1       2.964   7.210  18.221  0.00  0.00    +0.000 Cl
ENDBRANCH   2   5
BRANCH   1  15
ATOM     15  C   UNL     1       6.025   4.335  14.250  0.00  0.00    +0.000 C 
ATOM     16  S   UNL     1       7.476   5.143  14.340  0.00  0.00    +0.000 S 
BRANCH  15  17
ATOM     17  O   UNL     1       5.535   3.802  13.111  0.00  0.00    +0.000 OA
BRANCH  17  18
ATOM     18  C   UNL     1       6.363   3.190  12.102  0.00  0.00    +0.000 C 
BRANCH  18  19
ATOM     19  C   UNL     1       5.597   2.016  11.490  0.00  0.00    +0.000 C 
BRANCH  19  21
ATOM     20  C   UNL     1       6.084  -0.457  11.344  0.00  0.00    +0.000 C 
ATOM     21  C   UNL     1       6.525   0.937  10.926  0.00  0.00    +0.000 C 
ENDBRANCH  19  21
ENDBRANCH  18  19
ENDBRANCH  17  18
ENDBRANCH  15  17
ENDBRANCH   1  15
TORSDOF 6
ENDMDL
MODEL 3
REMARK VINA RESULT:      -6.6      3.045      4.081
REMARK  Name = 
REMARK  7 active torsions:
REMARK  status: ('A' for Active; 'I' for Inactive)
REMARK    1  A    between atoms: C_1  and  C_2
REMARK    2  A    between atoms: C_2  and  C_3
REMARK    3  A    between atoms: C_3  and  C_4
REMARK    4  A    between atoms: C_4  and  O_5
REMARK    5  A    between atoms: O_5  and  C_6
REMARK    6  A    between atoms: C_6  and  N_8
REMARK    7  A    between atoms: C_9  and  C_11
REMARK                            x       y       z     vdW  Elec       q    Type
REMARK                         _______ _______ _______ _____ _____    ______ ____
ROOT
ATOM      1  N   UNL     1       5.047   6.249  17.322  0.00  0.00    +0.000 N 
ATOM      2  C   UNL     1       3.814   5.757  17.725  0.00  0.00    +0.000 C 
ATOM      3  O   UNL     1       3.420   4.627  17.442  0.00  0.00    +0.000 OA
ATOM      4  H   UNL     1       5.310   7.185  17.602  0.00  0.00    +0.000 HD
ENDROOT
BRANCH   2   5
ATOM      5  C   UNL     1       2.988   6.682  18.488  0.00  0.00    +0.000 A 
ATOM      6  S   UNL     1       2.643   8.190  17.752  0.00  0.00    +0.000 S 
ATOM      7  C   UNL     1       1.734   8.744  19.090  0.00  0.00    +0.000 A 
ATOM      8  C   UNL     1       1.120  10.005  19.211  0.00  0.00    +0.000 A 
ATOM      9  C   UNL     1       0.403  10.300  20.370  0.00  0.00    +0.000 A 
ATOM     10  C   UNL     1       0.293   9.359  21.382  0.00  0.00    +0.000 A 
ATOM     11  C   UNL     1       0.905   8.107  21.257  0.00  0.00    +0.000 A 
ATOM     12  C   UNL     1       1.656   7.779  20.096  0.00  0.00    +0.000 A 
ATOM     13  C   UNL     1       2.386   6.586  19.727  0.00  0.00    +0.000 A 
ATOM     14 CL   UNL     1       2.444   5.211  20.760  0.00  0.00    +0.000 Cl
ENDBRANCH   2   5
BRANCH   1  15
ATOM     15  C   UNL     1       5.985   5.599  16.555  0.00  0.00    +0.000 C 
ATOM     16  S   UNL     1       7.289   4.836  17.251  0.00  0.00    +0.000 S 
BRANCH  15  17
ATOM     17  O   UNL     1       5.786   5.673  15.222  0.00  0.00    +0.000 OA
BRANCH  17  18
ATOM     18  C   UNL     1       5.438   4.536  14.407  0.00  0.00    +0.000 C 
BRANCH  18  19
ATOM     19  C   UNL     1       6.675   4.107  13.616  0.00  0.00    +0.000 C 
BRANCH  19  21
ATOM     20  C   UNL     1       4.818   3.373  12.071  0.00  0.00    +0.000 C 
ATOM     21  C   UNL     1       6.323   3.490  12.260  0.00  0.00    +0.000 C 
ENDBRANCH  19  21
ENDBRANCH  18  19
ENDBRANCH  17  18
ENDBRANCH  15  17
ENDBRANCH   1  15
TORSDOF 6
ENDMDL
MODEL 4
REMARK VINA RESULT:      -6.6      2.419      3.077
REMARK  Name = 
REMARK  7 active torsions:
REMARK  status: ('A' for Active; 'I' for Inactive)
REMARK    1  A    between atoms: C_1  and  C_2
REMARK    2  A    between atoms: C_2  and  C_3
REMARK    3  A    between atoms: C_3  and  C_4
REMARK    4  A    between atoms: C_4  and  O_5
REMARK    5  A    between atoms: O_5  and  C_6
REMARK    6  A    between atoms: C_6  and  N_8
REMARK    7  A    between atoms: C_9  and  C_11
REMARK                            x       y       z     vdW  Elec       q    Type
REMARK                         _______ _______ _______ _____ _____    ______ ____
ROOT
ATOM      1  N   UNL     1       6.180   5.990  17.508  0.00  0.00    +0.000 N 
ATOM      2  C   UNL     1       4.827   6.275  17.392  0.00  0.00    +0.000 C 
ATOM      3  O   UNL     1       4.398   7.233  16.752  0.00  0.00    +0.000 OA
ATOM      4  H   UNL     1       6.460   5.178  18.042  0.00  0.00    +0.000 HD
ENDROOT
BRANCH   2   5
ATOM      5  C   UNL     1       3.933   5.378  18.112  0.00  0.00    +0.000 A 
ATOM      6  S   UNL     1       3.251   5.976  19.564  0.00  0.00    +0.000 S 
ATOM      7  C   UNL     1       2.402   4.525  19.876  0.00  0.00    +0.000 A 
ATOM      8  C   UNL     1       1.588   4.263  20.995  0.00  0.00    +0.000 A 
ATOM      9  C   UNL     1       0.955   3.025  21.096  0.00  0.00    +0.000 A 
ATOM     10  C   UNL     1       1.120   2.073  20.103  0.00  0.00    +0.000 A 
ATOM     11  C   UNL     1       1.930   2.337  18.992  0.00  0.00    +0.000 A 
ATOM     12  C   UNL     1       2.602   3.584  18.865  0.00  0.00    +0.000 A 
ATOM     13  C   UNL     1       3.490   4.098  17.847  0.00  0.00    +0.000 A 
ATOM     14 CL   UNL     1       3.900   3.169  16.457  0.00  0.00    +0.000 Cl
ENDBRANCH   2   5
BRANCH   1  15
ATOM     15  C   UNL     1       7.224   6.707  16.972  0.00  0.00    +0.000 C 
ATOM     16  S   UNL     1       7.753   8.118  17.676  0.00  0.00    +0.000 S 
BRANCH  15  17
ATOM     17  O   UNL     1       7.737   6.204  15.829  0.00  0.00    +0.000 OA
BRANCH  17  18
ATOM     18  C   UNL     1       7.494   4.858  15.376  0.00  0.00    +0.000 C 
BRANCH  18  19
ATOM     19  C   UNL     1       7.034   4.910  13.917  0.00  0.00    +0.000 C 
BRANCH  19  21
ATOM     20  C   UNL     1       6.101   3.323  12.189  0.00  0.00    +0.000 C 
ATOM     21  C   UNL     1       5.957   3.870  13.601  0.00  0.00    +0.000 C 
ENDBRANCH  19  21
ENDBRANCH  18  19
ENDBRANCH  17  18
ENDBRANCH  15  17
ENDBRANCH   1  15
TORSDOF 6
ENDMDL
MODEL 5
REMARK VINA RESULT:      -6.4      1.280      1.406
REMARK  Name = 
REMARK  7 active torsions:
REMARK  status: ('A' for Active; 'I' for Inactive)
REMARK    1  A    between atoms: C_1  and  C_2
REMARK    2  A    between atoms: C_2  and  C_3
REMARK    3  A    between atoms: C_3  and  C_4
REMARK    4  A    between atoms: C_4  and  O_5
REMARK    5  A    between atoms: O_5  and  C_6
REMARK    6  A    between atoms: C_6  and  N_8
REMARK    7  A    between atoms: C_9  and  C_11
REMARK                            x       y       z     vdW  Elec       q    Type
REMARK                         _______ _______ _______ _____ _____    ______ ____
ROOT
ATOM      1  N   UNL     1       5.800   4.552  15.118  0.00  0.00    +0.000 N 
ATOM      2  C   UNL     1       6.246   4.548  16.431  0.00  0.00    +0.000 C 
ATOM      3  O   UNL     1       7.421   4.356  16.738  0.00  0.00    +0.000 OA
ATOM      4  H   UNL     1       4.820   4.728  14.939  0.00  0.00    +0.000 HD
ENDROOT
BRANCH   2   5
ATOM      5  C   UNL     1       5.219   4.756  17.444  0.00  0.00    +0.000 A 
ATOM      6  S   UNL     1       4.972   3.481  18.560  0.00  0.00    +0.000 S 
ATOM      7  C   UNL     1       3.717   4.310  19.375  0.00  0.00    +0.000 A 
ATOM      8  C   UNL     1       2.973   3.822  20.466  0.00  0.00    +0.000 A 
ATOM      9  C   UNL     1       1.984   4.630  21.026  0.00  0.00    +0.000 A 
ATOM     10  C   UNL     1       1.747   5.898  20.517  0.00  0.00    +0.000 A 
ATOM     11  C   UNL     1       2.490   6.378  19.432  0.00  0.00    +0.000 A 
ATOM     12  C   UNL     1       3.495   5.575  18.828  0.00  0.00    +0.000 A 
ATOM     13  C   UNL     1       4.379   5.819  17.710  0.00  0.00    +0.000 A 
ATOM     14 CL   UNL     1       4.355   7.311  16.853  0.00  0.00    +0.000 Cl
ENDBRANCH   2   5
BRANCH   1  15
ATOM     15  C   UNL     1       6.554   4.330  13.989  0.00  0.00    +0.000 C 
ATOM     16  S   UNL     1       7.713   5.418  13.500  0.00  0.00    +0.000 S 
BRANCH  15  17
ATOM     17  O   UNL     1       6.246   3.207  13.306  0.00  0.00    +0.000 OA
BRANCH  17  18
ATOM     18  C   UNL     1       6.227   3.134  11.867  0.00  0.00    +0.000 C 
BRANCH  18  19
ATOM     19  C   UNL     1       4.872   2.578  11.426  0.00  0.00    +0.000 C 
BRANCH  19  21
ATOM     20  C   UNL     1       3.220   3.716   9.891  0.00  0.00    +0.000 C 
ATOM     21  C   UNL     1       3.803   3.666  11.296  0.00  0.00    +0.000 C 
ENDBRANCH  19  21
ENDBRANCH  18  19
ENDBRANCH  17  18
ENDBRANCH  15  17
ENDBRANCH   1  15
TORSDOF 6
ENDMDL
MODEL 6
REMARK VINA RESULT:      -6.4      4.605      6.807
REMARK  Name = 
REMARK  7 active torsions:
REMARK  status: ('A' for Active; 'I' for Inactive)
REMARK    1  A    between atoms: C_1  and  C_2
REMARK    2  A    between atoms: C_2  and  C_3
REMARK    3  A    between atoms: C_3  and  C_4
REMARK    4  A    between atoms: C_4  and  O_5
REMARK    5  A    between atoms: O_5  and  C_6
REMARK    6  A    between atoms: C_6  and  N_8
REMARK    7  A    between atoms: C_9  and  C_11
REMARK                            x       y       z     vdW  Elec       q    Type
REMARK                         _______ _______ _______ _____ _____    ______ ____
ROOT
ATOM      1  N   UNL     1       3.320   6.038  19.869  0.00  0.00    +0.000 N 
ATOM      2  C   UNL     1       2.573   6.896  19.076  0.00  0.00    +0.000 C 
ATOM      3  O   UNL     1       2.565   6.835  17.848  0.00  0.00    +0.000 OA
ATOM      4  H   UNL     1       3.269   6.139  20.874  0.00  0.00    +0.000 HD
ENDROOT
BRANCH   2   5
ATOM      5  C   UNL     1       1.812   7.911  19.793  0.00  0.00    +0.000 A 
ATOM      6  S   UNL     1       1.260   7.493  21.359  0.00  0.00    +0.000 S 
ATOM      7  C   UNL     1       0.485   8.999  21.593  0.00  0.00    +0.000 A 
ATOM      8  C   UNL     1      -0.251   9.386  22.729  0.00  0.00    +0.000 A 
ATOM      9  C   UNL     1      -0.816  10.660  22.767  0.00  0.00    +0.000 A 
ATOM     10  C   UNL     1      -0.646  11.532  21.703  0.00  0.00    +0.000 A 
ATOM     11  C   UNL     1       0.087  11.143  20.576  0.00  0.00    +0.000 A 
ATOM     12  C   UNL     1       0.664   9.846  20.498  0.00  0.00    +0.000 A 
ATOM     13  C   UNL     1       1.440   9.199  19.464  0.00  0.00    +0.000 A 
ATOM     14 CL   UNL     1       1.847  10.011  18.002  0.00  0.00    +0.000 Cl
ENDBRANCH   2   5
BRANCH   1  15
ATOM     15  C   UNL     1       4.157   5.034  19.439  0.00  0.00    +0.000 C 
ATOM     16  S   UNL     1       5.700   5.364  18.915  0.00  0.00    +0.000 S 
BRANCH  15  17
ATOM     17  O   UNL     1       3.614   3.798  19.436  0.00  0.00    +0.000 OA
BRANCH  17  18
ATOM     18  C   UNL     1       2.680   3.345  18.436  0.00  0.00    +0.000 C 
BRANCH  18  19
ATOM     19  C   UNL     1       1.553   2.580  19.133  0.00  0.00    +0.000 C 
BRANCH  19  21
ATOM     20  C   UNL     1       1.395   2.635  21.653  0.00  0.00    +0.000 C 
ATOM     21  C   UNL     1       1.004   3.323  20.353  0.00  0.00    +0.000 C 
ENDBRANCH  19  21
ENDBRANCH  18  19
ENDBRANCH  17  18
ENDBRANCH  15  17
ENDBRANCH   1  15
TORSDOF 6
ENDMDL
MODEL 7
REMARK VINA RESULT:      -6.4      1.761      2.134
REMARK  Name = 
REMARK  7 active torsions:
REMARK  status: ('A' for Active; 'I' for Inactive)
REMARK    1  A    between atoms: C_1  and  C_2
REMARK    2  A    between atoms: C_2  and  C_3
REMARK    3  A    between atoms: C_3  and  C_4
REMARK    4  A    between atoms: C_4  and  O_5
REMARK    5  A    between atoms: O_5  and  C_6
REMARK    6  A    between atoms: C_6  and  N_8
REMARK    7  A    between atoms: C_9  and  C_11
REMARK                            x       y       z     vdW  Elec       q    Type
REMARK                         _______ _______ _______ _____ _____    ______ ____
ROOT
ATOM      1  N   UNL     1       5.433   4.307  15.128  0.00  0.00    +0.000 N 
ATOM      2  C   UNL     1       5.811   4.318  16.462  0.00  0.00    +0.000 C 
ATOM      3  O   UNL     1       6.978   4.192  16.828  0.00  0.00    +0.000 OA
ATOM      4  H   UNL     1       4.455   4.428  14.899  0.00  0.00    +0.000 HD
ENDROOT
BRANCH   2   5
ATOM      5  C   UNL     1       4.723   4.459  17.421  0.00  0.00    +0.000 A 
ATOM      6  S   UNL     1       4.408   6.040  18.000  0.00  0.00    +0.000 S 
ATOM      7  C   UNL     1       3.139   5.518  19.020  0.00  0.00    +0.000 A 
ATOM      8  C   UNL     1       2.378   6.331  19.881  0.00  0.00    +0.000 A 
ATOM      9  C   UNL     1       1.368   5.749  20.645  0.00  0.00    +0.000 A 
ATOM     10  C   UNL     1       1.114   4.390  20.547  0.00  0.00    +0.000 A 
ATOM     11  C   UNL     1       1.873   3.585  19.690  0.00  0.00    +0.000 A 
ATOM     12  C   UNL     1       2.920   4.143  18.908  0.00  0.00    +0.000 A 
ATOM     13  C   UNL     1       3.846   3.546  17.972  0.00  0.00    +0.000 A 
ATOM     14 CL   UNL     1       3.797   1.865  17.606  0.00  0.00    +0.000 Cl
ENDBRANCH   2   5
BRANCH   1  15
ATOM     15  C   UNL     1       6.255   4.138  14.038  0.00  0.00    +0.000 C 
ATOM     16  S   UNL     1       7.435   5.250  13.669  0.00  0.00    +0.000 S 
BRANCH  15  17
ATOM     17  O   UNL     1       5.996   3.045  13.289  0.00  0.00    +0.000 OA
BRANCH  17  18
ATOM     18  C   UNL     1       5.805   3.090  11.861  0.00  0.00    +0.000 C 
BRANCH  18  19
ATOM     19  C   UNL     1       4.302   3.081  11.571  0.00  0.00    +0.000 C 
BRANCH  19  21
ATOM     20  C   UNL     1       2.728   3.622   9.672  0.00  0.00    +0.000 C 
ATOM     21  C   UNL     1       3.902   4.108  10.509  0.00  0.00    +0.000 C 
ENDBRANCH  19  21
ENDBRANCH  18  19
ENDBRANCH  17  18
ENDBRANCH  15  17
ENDBRANCH   1  15
TORSDOF 6
ENDMDL
MODEL 8
REMARK VINA RESULT:      -6.4      2.916      6.946
REMARK  Name = 
REMARK  7 active torsions:
REMARK  status: ('A' for Active; 'I' for Inactive)
REMARK    1  A    between atoms: C_1  and  C_2
REMARK    2  A    between atoms: C_2  and  C_3
REMARK    3  A    between atoms: C_3  and  C_4
REMARK    4  A    between atoms: C_4  and  O_5
REMARK    5  A    between atoms: O_5  and  C_6
REMARK    6  A    between atoms: C_6  and  N_8
REMARK    7  A    between atoms: C_9  and  C_11
REMARK                            x       y       z     vdW  Elec       q    Type
REMARK                         _______ _______ _______ _____ _____    ______ ____
ROOT
ATOM      1  N   UNL     1       3.390   5.646  18.617  0.00  0.00    +0.000 N 
ATOM      2  C   UNL     1       4.759   5.430  18.572  0.00  0.00    +0.000 C 
ATOM      3  O   UNL     1       5.473   5.448  19.573  0.00  0.00    +0.000 OA
ATOM      4  H   UNL     1       2.864   5.606  17.754  0.00  0.00    +0.000 HD
ENDROOT
BRANCH   2   5
ATOM      5  C   UNL     1       5.317   5.211  17.244  0.00  0.00    +0.000 A 
ATOM      6  S   UNL     1       4.485   4.104  16.236  0.00  0.00    +0.000 S 
ATOM      7  C   UNL     1       5.600   4.288  14.952  0.00  0.00    +0.000 A 
ATOM      8  C   UNL     1       5.561   3.615  13.716  0.00  0.00    +0.000 A 
ATOM      9  C   UNL     1       6.545   3.885  12.767  0.00  0.00    +0.000 A 
ATOM     10  C   UNL     1       7.541   4.811  13.038  0.00  0.00    +0.000 A 
ATOM     11  C   UNL     1       7.575   5.478  14.267  0.00  0.00    +0.000 A 
ATOM     12  C   UNL     1       6.596   5.215  15.263  0.00  0.00    +0.000 A 
ATOM     13  C   UNL     1       6.413   5.743  16.597  0.00  0.00    +0.000 A 
ATOM     14 CL   UNL     1       7.475   6.931  17.247  0.00  0.00    +0.000 Cl
ENDBRANCH   2   5
BRANCH   1  15
ATOM     15  C   UNL     1       2.634   5.925  19.732  0.00  0.00    +0.000 C 
ATOM     16  S   UNL     1       2.058   7.458  20.022  0.00  0.00    +0.000 S 
BRANCH  15  17
ATOM     17  O   UNL     1       2.446   4.885  20.572  0.00  0.00    +0.000 OA
BRANCH  17  18
ATOM     18  C   UNL     1       1.212   4.146  20.656  0.00  0.00    +0.000 C 
BRANCH  18  19
ATOM     19  C   UNL     1       1.512   2.666  20.413  0.00  0.00    +0.000 C 
BRANCH  19  21
ATOM     20  C   UNL     1       3.095   1.755  18.669  0.00  0.00    +0.000 C 
ATOM     21  C   UNL     1       1.716   2.343  18.930  0.00  0.00    +0.000 C 
ENDBRANCH  19  21
ENDBRANCH  18  19
ENDBRANCH  17  18
ENDBRANCH  15  17
ENDBRANCH   1  15
TORSDOF 6
ENDMDL
MODEL 9
REMARK VINA RESULT:      -6.4      3.848      6.251
REMARK  Name = 
REMARK  7 active torsions:
REMARK  status: ('A' for Active; 'I' for Inactive)
REMARK    1  A    between atoms: C_1  and  C_2
REMARK    2  A    between atoms: C_2  and  C_3
REMARK    3  A    between atoms: C_3  and  C_4
REMARK    4  A    between atoms: C_4  and  O_5
REMARK    5  A    between atoms: O_5  and  C_6
REMARK    6  A    between atoms: C_6  and  N_8
REMARK    7  A    between atoms: C_9  and  C_11
REMARK                            x       y       z     vdW  Elec       q    Type
REMARK                         _______ _______ _______ _____ _____    ______ ____
ROOT
ATOM      1  N   UNL     1       2.704   5.265  17.948  0.00  0.00    +0.000 N 
ATOM      2  C   UNL     1       3.108   5.841  19.144  0.00  0.00    +0.000 C 
ATOM      3  O   UNL     1       4.040   5.403  19.816  0.00  0.00    +0.000 OA
ATOM      4  H   UNL     1       1.936   5.686  17.443  0.00  0.00    +0.000 HD
ENDROOT
BRANCH   2   5
ATOM      5  C   UNL     1       2.330   6.993  19.580  0.00  0.00    +0.000 A 
ATOM      6  S   UNL     1       1.650   6.909  21.150  0.00  0.00    +0.000 S 
ATOM      7  C   UNL     1       0.911   8.446  21.015  0.00  0.00    +0.000 A 
ATOM      8  C   UNL     1       0.105   9.068  21.988  0.00  0.00    +0.000 A 
ATOM      9  C   UNL     1      -0.418  10.333  21.725  0.00  0.00    +0.000 A 
ATOM     10  C   UNL     1      -0.139  10.968  20.526  0.00  0.00    +0.000 A 
ATOM     11  C   UNL     1       0.662  10.346  19.561  0.00  0.00    +0.000 A 
ATOM     12  C   UNL     1       1.199   9.051  19.790  0.00  0.00    +0.000 A 
ATOM     13  C   UNL     1       2.028   8.194  18.972  0.00  0.00    +0.000 A 
ATOM     14 CL   UNL     1       2.570   8.687  17.415  0.00  0.00    +0.000 Cl
ENDBRANCH   2   5
BRANCH   1  15
ATOM     15  C   UNL     1       3.236   4.147  17.348  0.00  0.00    +0.000 C 
ATOM     16  S   UNL     1       4.719   4.196  16.596  0.00  0.00    +0.000 S 
BRANCH  15  17
ATOM     17  O   UNL     1       2.450   3.050  17.381  0.00  0.00    +0.000 OA
BRANCH  17  18
ATOM     18  C   UNL     1       2.277   2.234  18.556  0.00  0.00    +0.000 C 
BRANCH  18  19
ATOM     19  C   UNL     1       0.865   2.459  19.102  0.00  0.00    +0.000 C 
BRANCH  19  21
ATOM     20  C   UNL     1       2.067   2.871  21.284  0.00  0.00    +0.000 C 
ATOM     21  C   UNL     1       0.862   3.226  20.426  0.00  0.00    +0.000 C 
ENDBRANCH  19  21
ENDBRANCH  18  19
ENDBRANCH  17  18
ENDBRANCH  15  17
ENDBRANCH   1  15
TORSDOF 6
ENDMDL
