MODEL 1
REMARK VINA RESULT:      -8.2      0.000      0.000
REMARK  Name = 
REMARK  4 active torsions:
REMARK  status: ('A' for Active; 'I' for Inactive)
REMARK    1  A    between atoms: C_1  and  N_2
REMARK    2  A    between atoms: N_2  and  C_3
REMARK    3  A    between atoms: C_3  and  C_4
REMARK    4  A    between atoms: C_12  and  C_14
REMARK                            x       y       z     vdW  Elec       q    Type
REMARK                         _______ _______ _______ _____ _____    ______ ____
ROOT
ATOM      1  C   UNL     1       4.062   2.642  19.761  0.00  0.00    +0.000 C 
ATOM      2  N   UNL     1       3.884   4.074  19.595  0.00  0.00    +0.000 N 
ATOM      3  C   UNL     1       2.574   4.563  19.716  0.00  0.00    +0.000 C 
ATOM      4  O   UNL     1       1.640   3.820  20.032  0.00  0.00    +0.000 OA
ENDROOT
BRANCH   3   5
ATOM      5  C   UNL     1       2.262   6.019  19.526  0.00  0.00    +0.000 A 
ATOM      6  C   UNL     1       2.395   6.554  18.254  0.00  0.00    +0.000 A 
ATOM      7  C   UNL     1       2.067   7.891  18.062  0.00  0.00    +0.000 A 
ATOM      8  C   UNL     1       1.629   8.659  19.146  0.00  0.00    +0.000 A 
ATOM      9  C   UNL     1       1.271  10.009  18.997  0.00  0.00    +0.000 A 
ATOM     10  C   UNL     1       0.836  10.747  20.097  0.00  0.00    +0.000 A 
ATOM     11  C   UNL     1       0.762  10.141  21.345  0.00  0.00    +0.000 A 
ATOM     12  C   UNL     1       1.119   8.797  21.490  0.00  0.00    +0.000 A 
ATOM     13  C   UNL     1       1.550   8.038  20.410  0.00  0.00    +0.000 A 
ATOM     14  N   UNL     1       1.863   6.747  20.599  0.00  0.00    +0.000 NA
ENDBRANCH   3   5
BRANCH   2  15
ATOM     15  C   UNL     1       5.061   4.871  19.239  0.00  0.00    +0.000 C 
BRANCH  15  16
ATOM     16  C   UNL     1       5.618   4.700  17.843  0.00  0.00    +0.000 A 
ATOM     17  C   UNL     1       4.845   4.294  16.746  0.00  0.00    +0.000 A 
ATOM     18  F   UNL     1       3.546   3.994  16.880  0.00  0.00    +0.000 F 
ATOM     19  C   UNL     1       5.377   4.181  15.461  0.00  0.00    +0.000 A 
ATOM     20  C   UNL     1       6.715   4.472  15.230  0.00  0.00    +0.000 A 
ATOM     21  C   UNL     1       7.516   4.868  16.297  0.00  0.00    +0.000 A 
ATOM     22  C   UNL     1       6.975   4.979  17.587  0.00  0.00    +0.000 A 
ATOM     23 CL   UNL     1       8.055   5.482  18.844  0.00  0.00    +0.000 Cl
ENDBRANCH  15  16
ENDBRANCH   2  15
TORSDOF 3
ENDMDL
MODEL 2
REMARK VINA RESULT:      -8.0      0.809      1.641
REMARK  Name = 
REMARK  4 active torsions:
REMARK  status: ('A' for Active; 'I' for Inactive)
REMARK    1  A    between atoms: C_1  and  N_2
REMARK    2  A    between atoms: N_2  and  C_3
REMARK    3  A    between atoms: C_3  and  C_4
REMARK    4  A    between atoms: C_12  and  C_14
REMARK                            x       y       z     vdW  Elec       q    Type
REMARK                         _______ _______ _______ _____ _____    ______ ____
ROOT
ATOM      1  C   UNL     1       4.275   2.301  19.542  0.00  0.00    +0.000 C 
ATOM      2  N   UNL     1       3.973   3.722  19.566  0.00  0.00    +0.000 N 
ATOM      3  C   UNL     1       2.650   4.078  19.873  0.00  0.00    +0.000 C 
ATOM      4  O   UNL     1       1.814   3.225  20.189  0.00  0.00    +0.000 OA
ENDROOT
BRANCH   3   5
ATOM      5  C   UNL     1       2.210   5.513  19.890  0.00  0.00    +0.000 A 
ATOM      6  C   UNL     1       1.589   5.991  21.034  0.00  0.00    +0.000 A 
ATOM      7  C   UNL     1       1.216   7.330  21.073  0.00  0.00    +0.000 A 
ATOM      8  C   UNL     1       1.462   8.149  19.966  0.00  0.00    +0.000 A 
ATOM      9  C   UNL     1       1.119   9.511  19.965  0.00  0.00    +0.000 A 
ATOM     10  C   UNL     1       1.378  10.301  18.846  0.00  0.00    +0.000 A 
ATOM     11  C   UNL     1       1.976   9.734  17.727  0.00  0.00    +0.000 A 
ATOM     12  C   UNL     1       2.316   8.378  17.731  0.00  0.00    +0.000 A 
ATOM     13  C   UNL     1       2.074   7.570  18.834  0.00  0.00    +0.000 A 
ATOM     14  N   UNL     1       2.437   6.278  18.794  0.00  0.00    +0.000 NA
ENDBRANCH   3   5
BRANCH   2  15
ATOM     15  C   UNL     1       5.041   4.653  19.194  0.00  0.00    +0.000 C 
BRANCH  15  16
ATOM     16  C   UNL     1       5.559   4.582  17.774  0.00  0.00    +0.000 A 
ATOM     17  C   UNL     1       4.753   4.262  16.672  0.00  0.00    +0.000 A 
ATOM     18  F   UNL     1       3.457   3.960  16.819  0.00  0.00    +0.000 F 
ATOM     19  C   UNL     1       5.250   4.239  15.368  0.00  0.00    +0.000 A 
ATOM     20  C   UNL     1       6.584   4.540  15.122  0.00  0.00    +0.000 A 
ATOM     21  C   UNL     1       7.416   4.851  16.193  0.00  0.00    +0.000 A 
ATOM     22  C   UNL     1       6.911   4.871  17.502  0.00  0.00    +0.000 A 
ATOM     23 CL   UNL     1       8.028   5.274  18.762  0.00  0.00    +0.000 Cl
ENDBRANCH  15  16
ENDBRANCH   2  15
TORSDOF 3
ENDMDL
MODEL 3
REMARK VINA RESULT:      -7.7      2.728      4.257
REMARK  Name = 
REMARK  4 active torsions:
REMARK  status: ('A' for Active; 'I' for Inactive)
REMARK    1  A    between atoms: C_1  and  N_2
REMARK    2  A    between atoms: N_2  and  C_3
REMARK    3  A    between atoms: C_3  and  C_4
REMARK    4  A    between atoms: C_12  and  C_14
REMARK                            x       y       z     vdW  Elec       q    Type
REMARK                         _______ _______ _______ _____ _____    ______ ____
ROOT
ATOM      1  C   UNL     1       4.075   5.030  17.204  0.00  0.00    +0.000 C 
ATOM      2  N   UNL     1       3.020   5.839  17.791  0.00  0.00    +0.000 N 
ATOM      3  C   UNL     1       3.290   7.208  17.944  0.00  0.00    +0.000 C 
ATOM      4  O   UNL     1       4.338   7.706  17.520  0.00  0.00    +0.000 OA
ENDROOT
BRANCH   3   5
ATOM      5  C   UNL     1       2.292   8.136  18.573  0.00  0.00    +0.000 A 
ATOM      6  C   UNL     1       1.578   8.987  17.742  0.00  0.00    +0.000 A 
ATOM      7  C   UNL     1       0.622   9.819  18.312  0.00  0.00    +0.000 A 
ATOM      8  C   UNL     1       0.414   9.789  19.695  0.00  0.00    +0.000 A 
ATOM      9  C   UNL     1      -0.551  10.599  20.314  0.00  0.00    +0.000 A 
ATOM     10  C   UNL     1      -0.735  10.545  21.695  0.00  0.00    +0.000 A 
ATOM     11  C   UNL     1       0.046   9.686  22.459  0.00  0.00    +0.000 A 
ATOM     12  C   UNL     1       1.006   8.881  21.840  0.00  0.00    +0.000 A 
ATOM     13  C   UNL     1       1.206   8.912  20.466  0.00  0.00    +0.000 A 
ATOM     14  N   UNL     1       2.128   8.105  19.918  0.00  0.00    +0.000 NA
ENDBRANCH   3   5
BRANCH   2  15
ATOM     15  C   UNL     1       1.807   5.154  18.243  0.00  0.00    +0.000 C 
BRANCH  15  16
ATOM     16  C   UNL     1       1.952   4.163  19.378  0.00  0.00    +0.000 A 
ATOM     17  C   UNL     1       1.878   4.521  20.732  0.00  0.00    +0.000 A 
ATOM     18  F   UNL     1       1.705   5.795  21.108  0.00  0.00    +0.000 F 
ATOM     19  C   UNL     1       1.979   3.581  21.757  0.00  0.00    +0.000 A 
ATOM     20  C   UNL     1       2.160   2.236  21.457  0.00  0.00    +0.000 A 
ATOM     21  C   UNL     1       2.249   1.845  20.125  0.00  0.00    +0.000 A 
ATOM     22  C   UNL     1       2.148   2.796  19.098  0.00  0.00    +0.000 A 
ATOM     23 CL   UNL     1       2.268   2.206  17.475  0.00  0.00    +0.000 Cl
ENDBRANCH  15  16
ENDBRANCH   2  15
TORSDOF 3
ENDMDL
MODEL 4
REMARK VINA RESULT:      -7.7      2.169      6.326
REMARK  Name = 
REMARK  4 active torsions:
REMARK  status: ('A' for Active; 'I' for Inactive)
REMARK    1  A    between atoms: C_1  and  N_2
REMARK    2  A    between atoms: N_2  and  C_3
REMARK    3  A    between atoms: C_3  and  C_4
REMARK    4  A    between atoms: C_12  and  C_14
REMARK                            x       y       z     vdW  Elec       q    Type
REMARK                         _______ _______ _______ _____ _____    ______ ____
ROOT
ATOM      1  C   UNL     1       0.943   4.505  20.431  0.00  0.00    +0.000 C 
ATOM      2  N   UNL     1       2.171   4.872  19.746  0.00  0.00    +0.000 N 
ATOM      3  C   UNL     1       2.678   3.944  18.824  0.00  0.00    +0.000 C 
ATOM      4  O   UNL     1       2.061   2.909  18.552  0.00  0.00    +0.000 OA
ENDROOT
BRANCH   3   5
ATOM      5  C   UNL     1       3.959   4.196  18.084  0.00  0.00    +0.000 A 
ATOM      6  C   UNL     1       5.106   4.434  18.828  0.00  0.00    +0.000 A 
ATOM      7  C   UNL     1       6.304   4.627  18.151  0.00  0.00    +0.000 A 
ATOM      8  C   UNL     1       6.323   4.589  16.753  0.00  0.00    +0.000 A 
ATOM      9  C   UNL     1       7.512   4.762  16.026  0.00  0.00    +0.000 A 
ATOM     10  C   UNL     1       7.498   4.717  14.633  0.00  0.00    +0.000 A 
ATOM     11  C   UNL     1       6.299   4.505  13.964  0.00  0.00    +0.000 A 
ATOM     12  C   UNL     1       5.117   4.334  14.690  0.00  0.00    +0.000 A 
ATOM     13  C   UNL     1       5.104   4.368  16.078  0.00  0.00    +0.000 A 
ATOM     14  N   UNL     1       3.945   4.179  16.728  0.00  0.00    +0.000 NA
ENDBRANCH   3   5
BRANCH   2  15
ATOM     15  C   UNL     1       2.814   6.132  20.128  0.00  0.00    +0.000 C 
BRANCH  15  16
ATOM     16  C   UNL     1       2.304   7.398  19.474  0.00  0.00    +0.000 A 
ATOM     17  C   UNL     1       2.613   7.766  18.157  0.00  0.00    +0.000 A 
ATOM     18  F   UNL     1       3.424   7.020  17.395  0.00  0.00    +0.000 F 
ATOM     19  C   UNL     1       2.100   8.921  17.567  0.00  0.00    +0.000 A 
ATOM     20  C   UNL     1       1.250   9.755  18.284  0.00  0.00    +0.000 A 
ATOM     21  C   UNL     1       0.930   9.426  19.598  0.00  0.00    +0.000 A 
ATOM     22  C   UNL     1       1.451   8.264  20.186  0.00  0.00    +0.000 A 
ATOM     23 CL   UNL     1       0.988   7.944  21.824  0.00  0.00    +0.000 Cl
ENDBRANCH  15  16
ENDBRANCH   2  15
TORSDOF 3
ENDMDL
MODEL 5
REMARK VINA RESULT:      -7.4      1.122      1.249
REMARK  Name = 
REMARK  4 active torsions:
REMARK  status: ('A' for Active; 'I' for Inactive)
REMARK    1  A    between atoms: C_1  and  N_2
REMARK    2  A    between atoms: N_2  and  C_3
REMARK    3  A    between atoms: C_3  and  C_4
REMARK    4  A    between atoms: C_12  and  C_14
REMARK                            x       y       z     vdW  Elec       q    Type
REMARK                         _______ _______ _______ _____ _____    ______ ____
ROOT
ATOM      1  C   UNL     1       4.603   4.167  19.410  0.00  0.00    +0.000 C 
ATOM      2  N   UNL     1       4.088   5.492  19.107  0.00  0.00    +0.000 N 
ATOM      3  C   UNL     1       2.899   5.867  19.753  0.00  0.00    +0.000 C 
ATOM      4  O   UNL     1       2.372   5.137  20.598  0.00  0.00    +0.000 OA
ENDROOT
BRANCH   3   5
ATOM      5  C   UNL     1       2.252   7.195  19.489  0.00  0.00    +0.000 A 
ATOM      6  C   UNL     1       2.241   7.668  18.185  0.00  0.00    +0.000 A 
ATOM      7  C   UNL     1       1.606   8.877  17.927  0.00  0.00    +0.000 A 
ATOM      8  C   UNL     1       1.012   9.585  18.976  0.00  0.00    +0.000 A 
ATOM      9  C   UNL     1       0.345  10.802  18.761  0.00  0.00    +0.000 A 
ATOM     10  C   UNL     1      -0.239  11.483  19.828  0.00  0.00    +0.000 A 
ATOM     11  C   UNL     1      -0.155  10.953  21.110  0.00  0.00    +0.000 A 
ATOM     12  C   UNL     1       0.510   9.742  21.321  0.00  0.00    +0.000 A 
ATOM     13  C   UNL     1       1.095   9.041  20.275  0.00  0.00    +0.000 A 
ATOM     14  N   UNL     1       1.705   7.872  20.529  0.00  0.00    +0.000 NA
ENDBRANCH   3   5
BRANCH   2  15
ATOM     15  C   UNL     1       4.800   6.287  18.103  0.00  0.00    +0.000 C 
BRANCH  15  16
ATOM     16  C   UNL     1       5.451   5.539  16.960  0.00  0.00    +0.000 A 
ATOM     17  C   UNL     1       4.789   4.571  16.192  0.00  0.00    +0.000 A 
ATOM     18  F   UNL     1       3.523   4.220  16.452  0.00  0.00    +0.000 F 
ATOM     19  C   UNL     1       5.403   3.923  15.121  0.00  0.00    +0.000 A 
ATOM     20  C   UNL     1       6.716   4.226  14.779  0.00  0.00    +0.000 A 
ATOM     21  C   UNL     1       7.408   5.174  15.526  0.00  0.00    +0.000 A 
ATOM     22  C   UNL     1       6.785   5.821  16.604  0.00  0.00    +0.000 A 
ATOM     23 CL   UNL     1       7.732   6.986  17.467  0.00  0.00    +0.000 Cl
ENDBRANCH  15  16
ENDBRANCH   2  15
TORSDOF 3
ENDMDL
MODEL 6
REMARK VINA RESULT:      -7.3      3.331      7.215
REMARK  Name = 
REMARK  4 active torsions:
REMARK  status: ('A' for Active; 'I' for Inactive)
REMARK    1  A    between atoms: C_1  and  N_2
REMARK    2  A    between atoms: N_2  and  C_3
REMARK    3  A    between atoms: C_3  and  C_4
REMARK    4  A    between atoms: C_12  and  C_14
REMARK                            x       y       z     vdW  Elec       q    Type
REMARK                         _______ _______ _______ _____ _____    ______ ____
ROOT
ATOM      1  C   UNL     1       6.047   5.347  19.851  0.00  0.00    +0.000 C 
ATOM      2  N   UNL     1       5.774   5.069  18.451  0.00  0.00    +0.000 N 
ATOM      3  C   UNL     1       6.873   4.712  17.656  0.00  0.00    +0.000 C 
ATOM      4  O   UNL     1       7.996   4.560  18.146  0.00  0.00    +0.000 OA
ENDROOT
BRANCH   3   5
ATOM      5  C   UNL     1       6.721   4.440  16.187  0.00  0.00    +0.000 A 
ATOM      6  C   UNL     1       5.792   3.488  15.793  0.00  0.00    +0.000 A 
ATOM      7  C   UNL     1       5.615   3.261  14.433  0.00  0.00    +0.000 A 
ATOM      8  C   UNL     1       6.377   3.980  13.507  0.00  0.00    +0.000 A 
ATOM      9  C   UNL     1       6.222   3.797  12.123  0.00  0.00    +0.000 A 
ATOM     10  C   UNL     1       6.996   4.530  11.225  0.00  0.00    +0.000 A 
ATOM     11  C   UNL     1       7.927   5.442  11.706  0.00  0.00    +0.000 A 
ATOM     12  C   UNL     1       8.080   5.622  13.083  0.00  0.00    +0.000 A 
ATOM     13  C   UNL     1       7.318   4.909  13.999  0.00  0.00    +0.000 A 
ATOM     14  N   UNL     1       7.490   5.133  15.311  0.00  0.00    +0.000 NA
ENDBRANCH   3   5
BRANCH   2  15
ATOM     15  C   UNL     1       4.402   5.261  17.973  0.00  0.00    +0.000 C 
BRANCH  15  16
ATOM     16  C   UNL     1       3.294   4.595  18.760  0.00  0.00    +0.000 A 
ATOM     17  C   UNL     1       3.118   3.205  18.825  0.00  0.00    +0.000 A 
ATOM     18  F   UNL     1       3.918   2.369  18.152  0.00  0.00    +0.000 F 
ATOM     19  C   UNL     1       2.109   2.618  19.588  0.00  0.00    +0.000 A 
ATOM     20  C   UNL     1       1.233   3.410  20.319  0.00  0.00    +0.000 A 
ATOM     21  C   UNL     1       1.370   4.794  20.270  0.00  0.00    +0.000 A 
ATOM     22  C   UNL     1       2.386   5.379  19.499  0.00  0.00    +0.000 A 
ATOM     23 CL   UNL     1       2.474   7.109  19.509  0.00  0.00    +0.000 Cl
ENDBRANCH  15  16
ENDBRANCH   2  15
TORSDOF 3
ENDMDL
MODEL 7
REMARK VINA RESULT:      -7.3      1.651      2.071
REMARK  Name = 
REMARK  4 active torsions:
REMARK  status: ('A' for Active; 'I' for Inactive)
REMARK    1  A    between atoms: C_1  and  N_2
REMARK    2  A    between atoms: N_2  and  C_3
REMARK    3  A    between atoms: C_3  and  C_4
REMARK    4  A    between atoms: C_12  and  C_14
REMARK                            x       y       z     vdW  Elec       q    Type
REMARK                         _______ _______ _______ _____ _____    ______ ____
ROOT
ATOM      1  C   UNL     1       3.732   2.476  18.575  0.00  0.00    +0.000 C 
ATOM      2  N   UNL     1       3.528   3.910  18.456  0.00  0.00    +0.000 N 
ATOM      3  C   UNL     1       2.610   4.489  19.346  0.00  0.00    +0.000 C 
ATOM      4  O   UNL     1       2.074   3.823  20.237  0.00  0.00    +0.000 OA
ENDROOT
BRANCH   3   5
ATOM      5  C   UNL     1       2.288   5.954  19.293  0.00  0.00    +0.000 A 
ATOM      6  C   UNL     1       2.366   6.595  18.065  0.00  0.00    +0.000 A 
ATOM      7  C   UNL     1       2.028   7.942  18.000  0.00  0.00    +0.000 A 
ATOM      8  C   UNL     1       1.634   8.613  19.162  0.00  0.00    +0.000 A 
ATOM      9  C   UNL     1       1.268   9.969  19.143  0.00  0.00    +0.000 A 
ATOM     10  C   UNL     1       0.879  10.610  20.318  0.00  0.00    +0.000 A 
ATOM     11  C   UNL     1       0.859   9.901  21.513  0.00  0.00    +0.000 A 
ATOM     12  C   UNL     1       1.225   8.552  21.529  0.00  0.00    +0.000 A 
ATOM     13  C   UNL     1       1.611   7.888  20.372  0.00  0.00    +0.000 A 
ATOM     14  N   UNL     1       1.934   6.587  20.438  0.00  0.00    +0.000 NA
ENDBRANCH   3   5
BRANCH   2  15
ATOM     15  C   UNL     1       4.228   4.611  17.377  0.00  0.00    +0.000 C 
BRANCH  15  16
ATOM     16  C   UNL     1       5.475   5.385  17.746  0.00  0.00    +0.000 A 
ATOM     17  C   UNL     1       6.244   5.112  18.886  0.00  0.00    +0.000 A 
ATOM     18  F   UNL     1       5.893   4.153  19.752  0.00  0.00    +0.000 F 
ATOM     19  C   UNL     1       7.410   5.818  19.183  0.00  0.00    +0.000 A 
ATOM     20  C   UNL     1       7.849   6.831  18.339  0.00  0.00    +0.000 A 
ATOM     21  C   UNL     1       7.105   7.136  17.204  0.00  0.00    +0.000 A 
ATOM     22  C   UNL     1       5.932   6.423  16.912  0.00  0.00    +0.000 A 
ATOM     23 CL   UNL     1       5.082   6.879  15.473  0.00  0.00    +0.000 Cl
ENDBRANCH  15  16
ENDBRANCH   2  15
TORSDOF 3
ENDMDL
MODEL 8
REMARK VINA RESULT:      -7.3      1.684      2.526
REMARK  Name = 
REMARK  4 active torsions:
REMARK  status: ('A' for Active; 'I' for Inactive)
REMARK    1  A    between atoms: C_1  and  N_2
REMARK    2  A    between atoms: N_2  and  C_3
REMARK    3  A    between atoms: C_3  and  C_4
REMARK    4  A    between atoms: C_12  and  C_14
REMARK                            x       y       z     vdW  Elec       q    Type
REMARK                         _______ _______ _______ _____ _____    ______ ____
ROOT
ATOM      1  C   UNL     1       3.363   1.991  17.964  0.00  0.00    +0.000 C 
ATOM      2  N   UNL     1       3.186   3.416  18.181  0.00  0.00    +0.000 N 
ATOM      3  C   UNL     1       2.257   3.792  19.164  0.00  0.00    +0.000 C 
ATOM      4  O   UNL     1       1.687   2.948  19.862  0.00  0.00    +0.000 OA
ENDROOT
BRANCH   3   5
ATOM      5  C   UNL     1       1.961   5.236  19.449  0.00  0.00    +0.000 A 
ATOM      6  C   UNL     1       1.566   5.579  20.734  0.00  0.00    +0.000 A 
ATOM      7  C   UNL     1       1.332   6.920  21.017  0.00  0.00    +0.000 A 
ATOM      8  C   UNL     1       1.485   7.877  20.008  0.00  0.00    +0.000 A 
ATOM      9  C   UNL     1       1.274   9.244  20.251  0.00  0.00    +0.000 A 
ATOM     10  C   UNL     1       1.436  10.174  19.225  0.00  0.00    +0.000 A 
ATOM     11  C   UNL     1       1.803   9.741  17.957  0.00  0.00    +0.000 A 
ATOM     12  C   UNL     1       2.011   8.379  17.718  0.00  0.00    +0.000 A 
ATOM     13  C   UNL     1       1.862   7.433  18.723  0.00  0.00    +0.000 A 
ATOM     14  N   UNL     1       2.092   6.140  18.447  0.00  0.00    +0.000 NA
ENDBRANCH   3   5
BRANCH   2  15
ATOM     15  C   UNL     1       3.925   4.335  17.311  0.00  0.00    +0.000 C 
BRANCH  15  16
ATOM     16  C   UNL     1       5.348   4.667  17.702  0.00  0.00    +0.000 A 
ATOM     17  C   UNL     1       5.695   5.271  18.919  0.00  0.00    +0.000 A 
ATOM     18  F   UNL     1       4.762   5.628  19.812  0.00  0.00    +0.000 F 
ATOM     19  C   UNL     1       7.019   5.533  19.269  0.00  0.00    +0.000 A 
ATOM     20  C   UNL     1       8.052   5.196  18.403  0.00  0.00    +0.000 A 
ATOM     21  C   UNL     1       7.745   4.605  17.181  0.00  0.00    +0.000 A 
ATOM     22  C   UNL     1       6.410   4.345  16.835  0.00  0.00    +0.000 A 
ATOM     23 CL   UNL     1       6.136   3.604  15.293  0.00  0.00    +0.000 Cl
ENDBRANCH  15  16
ENDBRANCH   2  15
TORSDOF 3
ENDMDL
MODEL 9
REMARK VINA RESULT:      -7.2      4.030      7.646
REMARK  Name = 
REMARK  4 active torsions:
REMARK  status: ('A' for Active; 'I' for Inactive)
REMARK    1  A    between atoms: C_1  and  N_2
REMARK    2  A    between atoms: N_2  and  C_3
REMARK    3  A    between atoms: C_3  and  C_4
REMARK    4  A    between atoms: C_12  and  C_14
REMARK                            x       y       z     vdW  Elec       q    Type
REMARK                         _______ _______ _______ _____ _____    ______ ____
ROOT
ATOM      1  C   UNL     1       2.017  10.751  17.955  0.00  0.00    +0.000 C 
ATOM      2  N   UNL     1       1.730   9.499  18.634  0.00  0.00    +0.000 N 
ATOM      3  C   UNL     1       2.474   8.380  18.228  0.00  0.00    +0.000 C 
ATOM      4  O   UNL     1       3.383   8.481  17.398  0.00  0.00    +0.000 OA
ENDROOT
BRANCH   3   5
ATOM      5  C   UNL     1       2.239   7.025  18.829  0.00  0.00    +0.000 A 
ATOM      6  C   UNL     1       2.025   6.946  20.198  0.00  0.00    +0.000 A 
ATOM      7  C   UNL     1       1.765   5.700  20.755  0.00  0.00    +0.000 A 
ATOM      8  C   UNL     1       1.738   4.567  19.935  0.00  0.00    +0.000 A 
ATOM      9  C   UNL     1       1.463   3.289  20.450  0.00  0.00    +0.000 A 
ATOM     10  C   UNL     1       1.443   2.180  19.607  0.00  0.00    +0.000 A 
ATOM     11  C   UNL     1       1.700   2.343  18.251  0.00  0.00    +0.000 A 
ATOM     12  C   UNL     1       1.973   3.615  17.742  0.00  0.00    +0.000 A 
ATOM     13  C   UNL     1       1.995   4.737  18.558  0.00  0.00    +0.000 A 
ATOM     14  N   UNL     1       2.244   5.939  18.016  0.00  0.00    +0.000 NA
ENDBRANCH   3   5
BRANCH   2  15
ATOM     15  C   UNL     1       0.645   9.489  19.618  0.00  0.00    +0.000 C 
BRANCH  15  16
ATOM     16  C   UNL     1      -0.560  10.358  19.330  0.00  0.00    +0.000 A 
ATOM     17  C   UNL     1      -1.348  10.231  18.177  0.00  0.00    +0.000 A 
ATOM     18  F   UNL     1      -1.054   9.335  17.226  0.00  0.00    +0.000 F 
ATOM     19  C   UNL     1      -2.475  11.022  17.955  0.00  0.00    +0.000 A 
ATOM     20  C   UNL     1      -2.855  11.978  18.890  0.00  0.00    +0.000 A 
ATOM     21  C   UNL     1      -2.090  12.140  20.041  0.00  0.00    +0.000 A 
ATOM     22  C   UNL     1      -0.956  11.342  20.257  0.00  0.00    +0.000 A 
ATOM     23 CL   UNL     1      -0.076  11.621  21.723  0.00  0.00    +0.000 Cl
ENDBRANCH  15  16
ENDBRANCH   2  15
TORSDOF 3
ENDMDL
