MODEL 1
REMARK VINA RESULT:      -6.7      0.000      0.000
REMARK  Name = 
REMARK  6 active torsions:
REMARK  status: ('A' for Active; 'I' for Inactive)
REMARK    1  A    between atoms: C_1  and  C_2
REMARK    2  A    between atoms: C_8  and  N_9
REMARK    3  A    between atoms: N_12  and  CA_13
REMARK    4  A    between atoms: CA_13  and  CB_14
REMARK    5  A    between atoms: CA_13  and  C_15
REMARK    6  A    between atoms: C_15  and  OXT_17
REMARK                            x       y       z     vdW  Elec       q    Type
REMARK                         _______ _______ _______ _____ _____    ______ ____
ROOT
ATOM      1  N   UNK A   0       4.909   3.325  17.524  0.00  0.00    +0.000 N 
ATOM      2  C   UNK A   0       3.792   3.932  18.060  0.00  0.00    +0.000 C 
ATOM      3  O   UNK A   0       3.318   5.007  17.701  0.00  0.00    +0.000 OA
ATOM      4  N   ALA A   1       3.174   3.217  19.051  0.00  0.00    +0.000 N 
ATOM      5  H   UNK A   0       5.291   2.542  18.030  0.00  0.00    +0.000 HD
ATOM      6  H   ALA A   1       3.699   2.547  19.601  0.00  0.00    +0.000 HD
ENDROOT
BRANCH   1  14
ATOM      7  C   UNK A   0       7.256   5.111  17.951  0.00  0.00    +0.000 C 
ATOM      8  C   UNK A   0       6.755   4.683  16.598  0.00  0.00    +0.000 A 
ATOM      9  C   UNK A   0       7.447   5.175  15.468  0.00  0.00    +0.000 A 
ATOM     10  C   UNK A   0       7.058   4.834  14.175  0.00  0.00    +0.000 A 
ATOM     11  C   UNK A   0       5.991   3.971  13.995  0.00  0.00    +0.000 A 
ATOM     12 CL   UNK A   0       5.505   3.521  12.407  0.00  0.00    +0.000 Cl
ATOM     13  C   UNK A   0       5.308   3.461  15.097  0.00  0.00    +0.000 A 
ATOM     14  C   UNK A   0       5.651   3.823  16.411  0.00  0.00    +0.000 A 
ENDBRANCH   1  14
BRANCH   4  15
ATOM     15  CA  ALA A   1       1.954   3.773  19.653  0.00  0.00    +0.000 C 
ATOM     16  CB  ALA A   1       0.793   2.793  19.521  0.00  0.00    +0.000 C 
BRANCH  15  17
ATOM     17  C   ALA A   1       2.179   4.145  21.117  0.00  0.00    +0.000 C 
ATOM     18  O   ALA A   1       2.161   3.335  22.035  0.00  0.00    +0.000 OA
BRANCH  17  19
ATOM     19  OXT ALA A   1       2.425   5.464  21.316  0.00  0.00    +0.000 OA
ATOM     20  HXT ALA A   1       3.361   5.723  21.217  0.00  0.00    +0.000 HD
ENDBRANCH  17  19
ENDBRANCH  15  17
ENDBRANCH   4  15
TORSDOF 4
ENDMDL
MODEL 2
REMARK VINA RESULT:      -6.5      3.423      6.445
REMARK  Name = 
REMARK  6 active torsions:
REMARK  status: ('A' for Active; 'I' for Inactive)
REMARK    1  A    between atoms: C_1  and  C_2
REMARK    2  A    between atoms: C_8  and  N_9
REMARK    3  A    between atoms: N_12  and  CA_13
REMARK    4  A    between atoms: CA_13  and  CB_14
REMARK    5  A    between atoms: CA_13  and  C_15
REMARK    6  A    between atoms: C_15  and  OXT_17
REMARK                            x       y       z     vdW  Elec       q    Type
REMARK                         _______ _______ _______ _____ _____    ______ ____
ROOT
ATOM      1  N   UNK A   0       3.283   5.053  17.203  0.00  0.00    +0.000 N 
ATOM      2  C   UNK A   0       4.547   4.550  16.968  0.00  0.00    +0.000 C 
ATOM      3  O   UNK A   0       5.345   4.187  17.828  0.00  0.00    +0.000 OA
ATOM      4  N   ALA A   1       4.877   4.434  15.644  0.00  0.00    +0.000 N 
ATOM      5  H   UNK A   0       2.808   5.479  16.423  0.00  0.00    +0.000 HD
ATOM      6  H   ALA A   1       4.430   5.023  14.951  0.00  0.00    +0.000 HD
ENDROOT
BRANCH   1  14
ATOM      7  C   UNK A   0       2.706   7.729  18.379  0.00  0.00    +0.000 C 
ATOM      8  C   UNK A   0       2.413   6.423  19.067  0.00  0.00    +0.000 A 
ATOM      9  C   UNK A   0       1.835   6.487  20.355  0.00  0.00    +0.000 A 
ATOM     10  C   UNK A   0       1.528   5.331  21.069  0.00  0.00    +0.000 A 
ATOM     11  C   UNK A   0       1.764   4.096  20.492  0.00  0.00    +0.000 A 
ATOM     12 CL   UNK A   0       1.374   2.655  21.348  0.00  0.00    +0.000 Cl
ATOM     13  C   UNK A   0       2.316   4.012  19.215  0.00  0.00    +0.000 A 
ATOM     14  C   UNK A   0       2.677   5.161  18.491  0.00  0.00    +0.000 A 
ENDBRANCH   1  14
BRANCH   4  15
ATOM     15  CA  ALA A   1       6.191   3.871  15.302  0.00  0.00    +0.000 C 
ATOM     16  CB  ALA A   1       6.334   3.715  13.792  0.00  0.00    +0.000 C 
BRANCH  15  17
ATOM     17  C   ALA A   1       7.323   4.730  15.862  0.00  0.00    +0.000 C 
ATOM     18  O   ALA A   1       7.594   5.851  15.451  0.00  0.00    +0.000 OA
BRANCH  17  19
ATOM     19  OXT ALA A   1       8.000   4.147  16.883  0.00  0.00    +0.000 OA
ATOM     20  HXT ALA A   1       8.948   4.378  16.927  0.00  0.00    +0.000 HD
ENDBRANCH  17  19
ENDBRANCH  15  17
ENDBRANCH   4  15
TORSDOF 4
ENDMDL
MODEL 3
REMARK VINA RESULT:      -6.5      3.329      6.556
REMARK  Name = 
REMARK  6 active torsions:
REMARK  status: ('A' for Active; 'I' for Inactive)
REMARK    1  A    between atoms: C_1  and  C_2
REMARK    2  A    between atoms: C_8  and  N_9
REMARK    3  A    between atoms: N_12  and  CA_13
REMARK    4  A    between atoms: CA_13  and  CB_14
REMARK    5  A    between atoms: CA_13  and  C_15
REMARK    6  A    between atoms: C_15  and  OXT_17
REMARK                            x       y       z     vdW  Elec       q    Type
REMARK                         _______ _______ _______ _____ _____    ______ ____
ROOT
ATOM      1  N   UNK A   0       3.202   4.622  17.070  0.00  0.00    +0.000 N 
ATOM      2  C   UNK A   0       4.530   4.294  16.892  0.00  0.00    +0.000 C 
ATOM      3  O   UNK A   0       5.322   3.998  17.784  0.00  0.00    +0.000 OA
ATOM      4  N   ALA A   1       4.943   4.277  15.587  0.00  0.00    +0.000 N 
ATOM      5  H   UNK A   0       2.718   5.018  16.280  0.00  0.00    +0.000 HD
ATOM      6  H   ALA A   1       4.462   4.834  14.890  0.00  0.00    +0.000 HD
ENDROOT
BRANCH   1  14
ATOM      7  C   UNK A   0       2.113   2.066  18.148  0.00  0.00    +0.000 C 
ATOM      8  C   UNK A   0       1.985   3.397  18.839  0.00  0.00    +0.000 A 
ATOM      9  C   UNK A   0       1.294   3.420  20.071  0.00  0.00    +0.000 A 
ATOM     10  C   UNK A   0       1.125   4.604  20.785  0.00  0.00    +0.000 A 
ATOM     11  C   UNK A   0       1.672   5.775  20.291  0.00  0.00    +0.000 A 
ATOM     12 CL   UNK A   0       1.492   7.246  21.165  0.00  0.00    +0.000 Cl
ATOM     13  C   UNK A   0       2.372   5.769  19.086  0.00  0.00    +0.000 A 
ATOM     14  C   UNK A   0       2.519   4.598  18.324  0.00  0.00    +0.000 A 
ENDBRANCH   1  14
BRANCH   4  15
ATOM     15  CA  ALA A   1       6.335   3.901  15.302  0.00  0.00    +0.000 C 
ATOM     16  CB  ALA A   1       6.604   3.924  13.801  0.00  0.00    +0.000 C 
BRANCH  15  17
ATOM     17  C   ALA A   1       7.316   4.811  16.038  0.00  0.00    +0.000 C 
ATOM     18  O   ALA A   1       7.442   6.006  15.802  0.00  0.00    +0.000 OA
BRANCH  17  19
ATOM     19  OXT ALA A   1       8.031   4.181  17.003  0.00  0.00    +0.000 OA
ATOM     20  HXT ALA A   1       7.587   3.405  17.397  0.00  0.00    +0.000 HD
ENDBRANCH  17  19
ENDBRANCH  15  17
ENDBRANCH   4  15
TORSDOF 4
ENDMDL
MODEL 4
REMARK VINA RESULT:      -6.4      3.619      4.731
REMARK  Name = 
REMARK  6 active torsions:
REMARK  status: ('A' for Active; 'I' for Inactive)
REMARK    1  A    between atoms: C_1  and  C_2
REMARK    2  A    between atoms: C_8  and  N_9
REMARK    3  A    between atoms: N_12  and  CA_13
REMARK    4  A    between atoms: CA_13  and  CB_14
REMARK    5  A    between atoms: CA_13  and  C_15
REMARK    6  A    between atoms: C_15  and  OXT_17
REMARK                            x       y       z     vdW  Elec       q    Type
REMARK                         _______ _______ _______ _____ _____    ______ ____
ROOT
ATOM      1  N   UNK A   0       3.067   5.812  20.096  0.00  0.00    +0.000 N 
ATOM      2  C   UNK A   0       2.378   7.008  20.057  0.00  0.00    +0.000 C 
ATOM      3  O   UNK A   0       2.322   7.771  19.097  0.00  0.00    +0.000 OA
ATOM      4  N   ALA A   1       1.686   7.304  21.200  0.00  0.00    +0.000 N 
ATOM      5  H   UNK A   0       3.179   5.378  20.998  0.00  0.00    +0.000 HD
ATOM      6  H   ALA A   1       1.978   6.918  22.090  0.00  0.00    +0.000 HD
ENDROOT
BRANCH   1  14
ATOM      7  C   UNK A   0       1.577   4.437  17.913  0.00  0.00    +0.000 C 
ATOM      8  C   UNK A   0       3.076   4.573  17.958  0.00  0.00    +0.000 A 
ATOM      9  C   UNK A   0       3.808   3.999  16.894  0.00  0.00    +0.000 A 
ATOM     10  C   UNK A   0       5.198   4.074  16.848  0.00  0.00    +0.000 A 
ATOM     11  C   UNK A   0       5.872   4.751  17.849  0.00  0.00    +0.000 A 
ATOM     12 CL   UNK A   0       7.588   4.873  17.803  0.00  0.00    +0.000 Cl
ATOM     13  C   UNK A   0       5.166   5.339  18.897  0.00  0.00    +0.000 A 
ATOM     14  C   UNK A   0       3.768   5.241  18.991  0.00  0.00    +0.000 A 
ENDBRANCH   1  14
BRANCH   4  15
ATOM     15  CA  ALA A   1       0.893   8.542  21.232  0.00  0.00    +0.000 C 
ATOM     16  CB  ALA A   1      -0.598   8.227  21.206  0.00  0.00    +0.000 C 
BRANCH  15  17
ATOM     17  C   ALA A   1       1.242   9.391  22.453  0.00  0.00    +0.000 C 
ATOM     18  O   ALA A   1       0.459  10.163  22.990  0.00  0.00    +0.000 OA
BRANCH  17  19
ATOM     19  OXT ALA A   1       2.504   9.199  22.912  0.00  0.00    +0.000 OA
ATOM     20  HXT ALA A   1       3.082   9.984  22.853  0.00  0.00    +0.000 HD
ENDBRANCH  17  19
ENDBRANCH  15  17
ENDBRANCH   4  15
TORSDOF 4
ENDMDL
MODEL 5
REMARK VINA RESULT:      -6.3      1.489      1.700
REMARK  Name = 
REMARK  6 active torsions:
REMARK  status: ('A' for Active; 'I' for Inactive)
REMARK    1  A    between atoms: C_1  and  C_2
REMARK    2  A    between atoms: C_8  and  N_9
REMARK    3  A    between atoms: N_12  and  CA_13
REMARK    4  A    between atoms: CA_13  and  CB_14
REMARK    5  A    between atoms: CA_13  and  C_15
REMARK    6  A    between atoms: C_15  and  OXT_17
REMARK                            x       y       z     vdW  Elec       q    Type
REMARK                         _______ _______ _______ _____ _____    ______ ____
ROOT
ATOM      1  N   UNK A   0       4.614   4.661  17.869  0.00  0.00    +0.000 N 
ATOM      2  C   UNK A   0       3.841   3.601  18.298  0.00  0.00    +0.000 C 
ATOM      3  O   UNK A   0       3.719   2.524  17.721  0.00  0.00    +0.000 OA
ATOM      4  N   ALA A   1       3.204   3.806  19.492  0.00  0.00    +0.000 N 
ATOM      5  H   UNK A   0       4.481   5.543  18.338  0.00  0.00    +0.000 HD
ATOM      6  H   ALA A   1       2.990   4.746  19.803  0.00  0.00    +0.000 HD
ENDROOT
BRANCH   1  14
ATOM      7  C   UNK A   0       7.487   5.425  18.080  0.00  0.00    +0.000 C 
ATOM      8  C   UNK A   0       6.813   5.015  16.797  0.00  0.00    +0.000 A 
ATOM      9  C   UNK A   0       7.605   5.006  15.627  0.00  0.00    +0.000 A 
ATOM     10  C   UNK A   0       7.070   4.640  14.394  0.00  0.00    +0.000 A 
ATOM     11  C   UNK A   0       5.745   4.249  14.321  0.00  0.00    +0.000 A 
ATOM     12 CL   UNK A   0       5.068   3.776  12.811  0.00  0.00    +0.000 Cl
ATOM     13  C   UNK A   0       4.953   4.235  15.467  0.00  0.00    +0.000 A 
ATOM     14  C   UNK A   0       5.454   4.641  16.715  0.00  0.00    +0.000 A 
ENDBRANCH   1  14
BRANCH   4  15
ATOM     15  CA  ALA A   1       2.389   2.714  20.042  0.00  0.00    +0.000 C 
ATOM     16  CB  ALA A   1       2.529   2.648  21.559  0.00  0.00    +0.000 C 
BRANCH  15  17
ATOM     17  C   ALA A   1       0.922   2.864  19.644  0.00  0.00    +0.000 C 
ATOM     18  O   ALA A   1       0.368   2.158  18.811  0.00  0.00    +0.000 OA
BRANCH  17  19
ATOM     19  OXT ALA A   1       0.269   3.844  20.316  0.00  0.00    +0.000 OA
ATOM     20  HXT ALA A   1      -0.614   4.063  19.960  0.00  0.00    +0.000 HD
ENDBRANCH  17  19
ENDBRANCH  15  17
ENDBRANCH   4  15
TORSDOF 4
ENDMDL
MODEL 6
REMARK VINA RESULT:      -6.3      5.029      6.903
REMARK  Name = 
REMARK  6 active torsions:
REMARK  status: ('A' for Active; 'I' for Inactive)
REMARK    1  A    between atoms: C_1  and  C_2
REMARK    2  A    between atoms: C_8  and  N_9
REMARK    3  A    between atoms: N_12  and  CA_13
REMARK    4  A    between atoms: CA_13  and  CB_14
REMARK    5  A    between atoms: CA_13  and  C_15
REMARK    6  A    between atoms: C_15  and  OXT_17
REMARK                            x       y       z     vdW  Elec       q    Type
REMARK                         _______ _______ _______ _____ _____    ______ ____
ROOT
ATOM      1  N   UNK A   0       2.765   6.890  20.056  0.00  0.00    +0.000 N 
ATOM      2  C   UNK A   0       2.430   5.560  19.903  0.00  0.00    +0.000 C 
ATOM      3  O   UNK A   0       1.293   5.099  19.942  0.00  0.00    +0.000 OA
ATOM      4  N   ALA A   1       3.490   4.730  19.653  0.00  0.00    +0.000 N 
ATOM      5  H   UNK A   0       3.741   7.104  20.184  0.00  0.00    +0.000 HD
ATOM      6  H   ALA A   1       4.422   4.985  19.957  0.00  0.00    +0.000 HD
ENDROOT
BRANCH   1  14
ATOM      7  C   UNK A   0       2.055   8.632  17.745  0.00  0.00    +0.000 C 
ATOM      8  C   UNK A   0       1.491   8.796  19.131  0.00  0.00    +0.000 A 
ATOM      9  C   UNK A   0       0.575   9.852  19.335  0.00  0.00    +0.000 A 
ATOM     10  C   UNK A   0      -0.000  10.082  20.582  0.00  0.00    +0.000 A 
ATOM     11  C   UNK A   0       0.309   9.238  21.635  0.00  0.00    +0.000 A 
ATOM     12 CL   UNK A   0      -0.404   9.492  23.181  0.00  0.00    +0.000 Cl
ATOM     13  C   UNK A   0       1.197   8.181  21.450  0.00  0.00    +0.000 A 
ATOM     14  C   UNK A   0       1.825   7.953  20.214  0.00  0.00    +0.000 A 
ENDBRANCH   1  14
BRANCH   4  15
ATOM     15  CA  ALA A   1       3.219   3.301  19.439  0.00  0.00    +0.000 C 
ATOM     16  CB  ALA A   1       3.631   2.880  18.032  0.00  0.00    +0.000 C 
BRANCH  15  17
ATOM     17  C   ALA A   1       3.925   2.442  20.486  0.00  0.00    +0.000 C 
ATOM     18  O   ALA A   1       3.461   2.203  21.593  0.00  0.00    +0.000 OA
BRANCH  17  19
ATOM     19  OXT ALA A   1       5.115   1.940  20.072  0.00  0.00    +0.000 OA
ATOM     20  HXT ALA A   1       5.594   1.419  20.745  0.00  0.00    +0.000 HD
ENDBRANCH  17  19
ENDBRANCH  15  17
ENDBRANCH   4  15
TORSDOF 4
ENDMDL
MODEL 7
REMARK VINA RESULT:      -6.3      5.067      6.986
REMARK  Name = 
REMARK  6 active torsions:
REMARK  status: ('A' for Active; 'I' for Inactive)
REMARK    1  A    between atoms: C_1  and  C_2
REMARK    2  A    between atoms: C_8  and  N_9
REMARK    3  A    between atoms: N_12  and  CA_13
REMARK    4  A    between atoms: CA_13  and  CB_14
REMARK    5  A    between atoms: CA_13  and  C_15
REMARK    6  A    between atoms: C_15  and  OXT_17
REMARK                            x       y       z     vdW  Elec       q    Type
REMARK                         _______ _______ _______ _____ _____    ______ ____
ROOT
ATOM      1  N   UNK A   0       2.511   6.953  20.305  0.00  0.00    +0.000 N 
ATOM      2  C   UNK A   0       2.079   5.646  20.208  0.00  0.00    +0.000 C 
ATOM      3  O   UNK A   0       0.908   5.275  20.229  0.00  0.00    +0.000 OA
ATOM      4  N   ALA A   1       3.079   4.726  20.042  0.00  0.00    +0.000 N 
ATOM      5  H   UNK A   0       3.496   7.100  20.457  0.00  0.00    +0.000 HD
ATOM      6  H   ALA A   1       4.017   4.926  20.368  0.00  0.00    +0.000 HD
ENDROOT
BRANCH   1  14
ATOM      7  C   UNK A   0       2.002   8.605  17.877  0.00  0.00    +0.000 C 
ATOM      8  C   UNK A   0       1.414   8.891  19.232  0.00  0.00    +0.000 A 
ATOM      9  C   UNK A   0       0.576  10.024  19.345  0.00  0.00    +0.000 A 
ATOM     10  C   UNK A   0      -0.014  10.369  20.558  0.00  0.00    +0.000 A 
ATOM     11  C   UNK A   0       0.199   9.569  21.667  0.00  0.00    +0.000 A 
ATOM     12 CL   UNK A   0      -0.536   9.966  23.171  0.00  0.00    +0.000 Cl
ATOM     13  C   UNK A   0       1.007   8.438  21.571  0.00  0.00    +0.000 A 
ATOM     14  C   UNK A   0       1.651   8.091  20.371  0.00  0.00    +0.000 A 
ENDBRANCH   1  14
BRANCH   4  15
ATOM     15  CA  ALA A   1       2.705   3.312  19.893  0.00  0.00    +0.000 C 
ATOM     16  CB  ALA A   1       3.875   2.500  19.348  0.00  0.00    +0.000 C 
BRANCH  15  17
ATOM     17  C   ALA A   1       2.215   2.726  21.216  0.00  0.00    +0.000 C 
ATOM     18  O   ALA A   1       2.962   2.330  22.102  0.00  0.00    +0.000 OA
BRANCH  17  19
ATOM     19  OXT ALA A   1       0.865   2.702  21.338  0.00  0.00    +0.000 OA
ATOM     20  HXT ALA A   1       0.473   3.527  21.686  0.00  0.00    +0.000 HD
ENDBRANCH  17  19
ENDBRANCH  15  17
ENDBRANCH   4  15
TORSDOF 4
ENDMDL
MODEL 8
REMARK VINA RESULT:      -6.2      1.641      1.944
REMARK  Name = 
REMARK  6 active torsions:
REMARK  status: ('A' for Active; 'I' for Inactive)
REMARK    1  A    between atoms: C_1  and  C_2
REMARK    2  A    between atoms: C_8  and  N_9
REMARK    3  A    between atoms: N_12  and  CA_13
REMARK    4  A    between atoms: CA_13  and  CB_14
REMARK    5  A    between atoms: CA_13  and  C_15
REMARK    6  A    between atoms: C_15  and  OXT_17
REMARK                            x       y       z     vdW  Elec       q    Type
REMARK                         _______ _______ _______ _____ _____    ______ ____
ROOT
ATOM      1  N   UNK A   0       4.191   5.038  17.161  0.00  0.00    +0.000 N 
ATOM      2  C   UNK A   0       3.787   4.025  18.008  0.00  0.00    +0.000 C 
ATOM      3  O   UNK A   0       4.231   2.881  18.019  0.00  0.00    +0.000 OA
ATOM      4  N   ALA A   1       2.831   4.390  18.917  0.00  0.00    +0.000 N 
ATOM      5  H   UNK A   0       3.621   5.868  17.136  0.00  0.00    +0.000 HD
ATOM      6  H   ALA A   1       2.207   5.165  18.722  0.00  0.00    +0.000 HD
ENDROOT
BRANCH   1  14
ATOM      7  C   UNK A   0       6.892   6.139  17.769  0.00  0.00    +0.000 C 
ATOM      8  C   UNK A   0       6.528   5.459  16.477  0.00  0.00    +0.000 A 
ATOM      9  C   UNK A   0       7.541   5.351  15.497  0.00  0.00    +0.000 A 
ATOM     10  C   UNK A   0       7.299   4.737  14.270  0.00  0.00    +0.000 A 
ATOM     11  C   UNK A   0       6.051   4.195  14.019  0.00  0.00    +0.000 A 
ATOM     12 CL   UNK A   0       5.736   3.416  12.518  0.00  0.00    +0.000 Cl
ATOM     13  C   UNK A   0       5.045   4.275  14.980  0.00  0.00    +0.000 A 
ATOM     14  C   UNK A   0       5.248   4.928  16.208  0.00  0.00    +0.000 A 
ENDBRANCH   1  14
BRANCH   4  15
ATOM     15  CA  ALA A   1       2.369   3.383  19.883  0.00  0.00    +0.000 C 
ATOM     16  CB  ALA A   1       1.805   4.053  21.132  0.00  0.00    +0.000 C 
BRANCH  15  17
ATOM     17  C   ALA A   1       1.333   2.451  19.258  0.00  0.00    +0.000 C 
ATOM     18  O   ALA A   1       0.139   2.713  19.186  0.00  0.00    +0.000 OA
BRANCH  17  19
ATOM     19  OXT ALA A   1       1.856   1.302  18.764  0.00  0.00    +0.000 OA
ATOM     20  HXT ALA A   1       2.830   1.300  18.683  0.00  0.00    +0.000 HD
ENDBRANCH  17  19
ENDBRANCH  15  17
ENDBRANCH   4  15
TORSDOF 4
ENDMDL
MODEL 9
REMARK VINA RESULT:      -6.1      3.819      6.618
REMARK  Name = 
REMARK  6 active torsions:
REMARK  status: ('A' for Active; 'I' for Inactive)
REMARK    1  A    between atoms: C_1  and  C_2
REMARK    2  A    between atoms: C_8  and  N_9
REMARK    3  A    between atoms: N_12  and  CA_13
REMARK    4  A    between atoms: CA_13  and  CB_14
REMARK    5  A    between atoms: CA_13  and  C_15
REMARK    6  A    between atoms: C_15  and  OXT_17
REMARK                            x       y       z     vdW  Elec       q    Type
REMARK                         _______ _______ _______ _____ _____    ______ ____
ROOT
ATOM      1  N   UNK A   0       5.818   3.478  16.066  0.00  0.00    +0.000 N 
ATOM      2  C   UNK A   0       5.581   3.926  14.782  0.00  0.00    +0.000 C 
ATOM      3  O   UNK A   0       4.869   4.878  14.474  0.00  0.00    +0.000 OA
ATOM      4  N   ALA A   1       6.250   3.237  13.806  0.00  0.00    +0.000 N 
ATOM      5  H   UNK A   0       6.271   2.583  16.162  0.00  0.00    +0.000 HD
ATOM      6  H   ALA A   1       6.538   2.278  13.962  0.00  0.00    +0.000 HD
ENDROOT
BRANCH   1  14
ATOM      7  C   UNK A   0       7.680   4.867  17.932  0.00  0.00    +0.000 C 
ATOM      8  C   UNK A   0       6.195   4.752  18.150  0.00  0.00    +0.000 A 
ATOM      9  C   UNK A   0       5.668   5.337  19.323  0.00  0.00    +0.000 A 
ATOM     10  C   UNK A   0       4.306   5.282  19.611  0.00  0.00    +0.000 A 
ATOM     11  C   UNK A   0       3.449   4.669  18.714  0.00  0.00    +0.000 A 
ATOM     12 CL   UNK A   0       1.761   4.606  19.040  0.00  0.00    +0.000 Cl
ATOM     13  C   UNK A   0       3.948   4.102  17.543  0.00  0.00    +0.000 A 
ATOM     14  C   UNK A   0       5.322   4.104  17.249  0.00  0.00    +0.000 A 
ENDBRANCH   1  14
BRANCH   4  15
ATOM     15  CA  ALA A   1       6.086   3.671  12.411  0.00  0.00    +0.000 C 
ATOM     16  CB  ALA A   1       7.436   4.011  11.789  0.00  0.00    +0.000 C 
BRANCH  15  17
ATOM     17  C   ALA A   1       5.365   2.609  11.582  0.00  0.00    +0.000 C 
ATOM     18  O   ALA A   1       5.853   1.525  11.295  0.00  0.00    +0.000 OA
BRANCH  17  19
ATOM     19  OXT ALA A   1       4.112   2.966  11.205  0.00  0.00    +0.000 OA
ATOM     20  HXT ALA A   1       3.758   3.754  11.661  0.00  0.00    +0.000 HD
ENDBRANCH  17  19
ENDBRANCH  15  17
ENDBRANCH   4  15
TORSDOF 4
ENDMDL
