MODEL 1
REMARK VINA RESULT:      -8.3      0.000      0.000
REMARK  Name = 
REMARK  10 active torsions:
REMARK  status: ('A' for Active; 'I' for Inactive)
REMARK    1  A    between atoms: C_1  and  N_2
REMARK    2  A    between atoms: N_2  and  C_3
REMARK    3  A    between atoms: N_2  and  C_10
REMARK    4  A    between atoms: C_3  and  C_4
REMARK    5  A    between atoms: C_10  and  C_11
REMARK    6  A    between atoms: C_14  and  C_15
REMARK    7  A    between atoms: C_15  and  O_16
REMARK    8  A    between atoms: O_16  and  C_17
REMARK    9  A    between atoms: C_21  and  C_22
REMARK   10  A    between atoms: C_22  and  O_23
REMARK                            x       y       z     vdW  Elec       q    Type
REMARK                         _______ _______ _______ _____ _____    ______ ____
ROOT
ATOM      1  C   UNL     1       3.463   6.515  18.538  0.00  0.00    +0.000 A 
ATOM      2  C   UNL     1       2.741   6.600  19.741  0.00  0.00    +0.000 A 
ATOM      3  C   UNL     1       1.865   7.674  19.974  0.00  0.00    +0.000 A 
ATOM      4  C   UNL     1       1.684   8.671  19.002  0.00  0.00    +0.000 A 
ATOM      5  C   UNL     1       2.414   8.589  17.803  0.00  0.00    +0.000 A 
ATOM      6  C   UNL     1       3.302   7.528  17.579  0.00  0.00    +0.000 A 
ENDROOT
BRANCH   1   7
ATOM      7  C   UNL     1       4.422   5.361  18.282  0.00  0.00    +0.000 C 
BRANCH   7   9
ATOM      8  C   UNL     1       4.812   4.399  16.069  0.00  0.00    +0.000 C 
ATOM      9  N   UNL     1       3.932   4.406  17.255  0.00  0.00    +0.000 NA
BRANCH   9  10
ATOM     10  C   UNL     1       3.846   3.042  17.836  0.00  0.00    +0.000 C 
BRANCH  10  11
ATOM     11  C   UNL     1       2.931   3.018  19.036  0.00  0.00    +0.000 A 
ATOM     12  C   UNL     1       3.434   2.758  20.326  0.00  0.00    +0.000 A 
ATOM     13  C   UNL     1       2.568   2.702  21.420  0.00  0.00    +0.000 A 
ATOM     14  C   UNL     1       1.196   2.907  21.242  0.00  0.00    +0.000 A 
ATOM     15  C   UNL     1       0.691   3.177  19.967  0.00  0.00    +0.000 A 
ATOM     16  C   UNL     1       1.553   3.232  18.869  0.00  0.00    +0.000 A 
ENDBRANCH  10  11
ENDBRANCH   9  10
ENDBRANCH   7   9
ENDBRANCH   1   7
BRANCH   4  17
ATOM     17  C   UNL     1       0.716   9.814  19.227  0.00  0.00    +0.000 C 
BRANCH  17  18
ATOM     18  O   UNL     1       0.523  10.007  20.581  0.00  0.00    +0.000 OA
BRANCH  18  19
ATOM     19  C   UNL     1      -0.483  10.713  21.170  0.00  0.00    +0.000 A 
ATOM     20  C   UNL     1      -0.677  10.535  22.542  0.00  0.00    +0.000 A 
ATOM     21  C   UNL     1      -1.665  11.239  23.232  0.00  0.00    +0.000 A 
ATOM     22  C   UNL     1      -2.495  12.158  22.562  0.00  0.00    +0.000 A 
ATOM     23  C   UNL     1      -3.506  12.921  23.211  0.00  0.00    +0.000 A 
ATOM     24  C   UNL     1      -4.254  13.824  22.444  0.00  0.00    +0.000 A 
ATOM     25  C   UNL     1      -4.006  13.944  21.077  0.00  0.00    +0.000 A 
ATOM     26  O   UNL     1      -4.657  14.724  20.407  0.00  0.00    +0.000 OA
ATOM     27  O   UNL     1      -3.060  13.212  20.496  0.00  0.00    +0.000 OA
ATOM     28  C   UNL     1      -2.306  12.343  21.167  0.00  0.00    +0.000 A 
ATOM     29  C   UNL     1      -1.311  11.624  20.479  0.00  0.00    +0.000 A 
BRANCH  23  30
ATOM     30  C   UNL     1      -3.843  12.827  24.687  0.00  0.00    +0.000 C 
BRANCH  30  31
ATOM     31  O   UNL     1      -4.767  11.795  24.909  0.00  0.00    +0.000 OA
ATOM     32  H   UNL     1      -4.897  11.342  24.035  0.00  0.00    +0.000 HD
ENDBRANCH  30  31
ENDBRANCH  23  30
ENDBRANCH  18  19
ENDBRANCH  17  18
ENDBRANCH   4  17
TORSDOF 9
ENDMDL
MODEL 2
REMARK VINA RESULT:      -8.2      2.030      3.077
REMARK  Name = 
REMARK  10 active torsions:
REMARK  status: ('A' for Active; 'I' for Inactive)
REMARK    1  A    between atoms: C_1  and  N_2
REMARK    2  A    between atoms: N_2  and  C_3
REMARK    3  A    between atoms: N_2  and  C_10
REMARK    4  A    between atoms: C_3  and  C_4
REMARK    5  A    between atoms: C_10  and  C_11
REMARK    6  A    between atoms: C_14  and  C_15
REMARK    7  A    between atoms: C_15  and  O_16
REMARK    8  A    between atoms: O_16  and  C_17
REMARK    9  A    between atoms: C_21  and  C_22
REMARK   10  A    between atoms: C_22  and  O_23
REMARK                            x       y       z     vdW  Elec       q    Type
REMARK                         _______ _______ _______ _____ _____    ______ ____
ROOT
ATOM      1  C   UNL     1       3.273   6.553  18.689  0.00  0.00    +0.000 A 
ATOM      2  C   UNL     1       3.203   7.472  17.628  0.00  0.00    +0.000 A 
ATOM      3  C   UNL     1       2.377   8.606  17.717  0.00  0.00    +0.000 A 
ATOM      4  C   UNL     1       1.620   8.847  18.876  0.00  0.00    +0.000 A 
ATOM      5  C   UNL     1       1.685   7.922  19.932  0.00  0.00    +0.000 A 
ATOM      6  C   UNL     1       2.494   6.782  19.835  0.00  0.00    +0.000 A 
ENDROOT
BRANCH   1   7
ATOM      7  C   UNL     1       4.157   5.318  18.597  0.00  0.00    +0.000 C 
BRANCH   7   9
ATOM      8  C   UNL     1       5.095   4.560  16.470  0.00  0.00    +0.000 C 
ATOM      9  N   UNL     1       3.923   4.518  17.367  0.00  0.00    +0.000 NA
BRANCH   9  10
ATOM     10  C   UNL     1       3.609   3.113  17.732  0.00  0.00    +0.000 C 
BRANCH  10  11
ATOM     11  C   UNL     1       2.778   3.050  18.991  0.00  0.00    +0.000 A 
ATOM     12  C   UNL     1       1.403   3.358  18.968  0.00  0.00    +0.000 A 
ATOM     13  C   UNL     1       0.658   3.333  20.149  0.00  0.00    +0.000 A 
ATOM     14  C   UNL     1       1.271   2.998  21.360  0.00  0.00    +0.000 A 
ATOM     15  C   UNL     1       2.631   2.680  21.389  0.00  0.00    +0.000 A 
ATOM     16  C   UNL     1       3.382   2.706  20.211  0.00  0.00    +0.000 A 
ENDBRANCH  10  11
ENDBRANCH   9  10
ENDBRANCH   7   9
ENDBRANCH   1   7
BRANCH   4  17
ATOM     17  C   UNL     1       0.754  10.084  18.998  0.00  0.00    +0.000 C 
BRANCH  17  18
ATOM     18  O   UNL     1      -0.319   9.993  18.134  0.00  0.00    +0.000 OA
BRANCH  18  19
ATOM     19  C   UNL     1      -1.551  10.553  18.300  0.00  0.00    +0.000 A 
ATOM     20  C   UNL     1      -2.599  10.044  17.529  0.00  0.00    +0.000 A 
ATOM     21  C   UNL     1      -3.899  10.538  17.656  0.00  0.00    +0.000 A 
ATOM     22  C   UNL     1      -4.193  11.565  18.572  0.00  0.00    +0.000 A 
ATOM     23  C   UNL     1      -5.498  12.097  18.763  0.00  0.00    +0.000 A 
ATOM     24  C   UNL     1      -5.673  13.102  19.724  0.00  0.00    +0.000 A 
ATOM     25  C   UNL     1      -4.577  13.563  20.453  0.00  0.00    +0.000 A 
ATOM     26  O   UNL     1      -4.726  14.439  21.285  0.00  0.00    +0.000 OA
ATOM     27  O   UNL     1      -3.367  13.052  20.247  0.00  0.00    +0.000 OA
ATOM     28  C   UNL     1      -3.133  12.090  19.358  0.00  0.00    +0.000 A 
ATOM     29  C   UNL     1      -1.824  11.589  19.219  0.00  0.00    +0.000 A 
BRANCH  23  30
ATOM     30  C   UNL     1      -6.729  11.659  17.993  0.00  0.00    +0.000 C 
BRANCH  30  31
ATOM     31  O   UNL     1      -7.277  10.504  18.570  0.00  0.00    +0.000 OA
ATOM     32  H   UNL     1      -7.929  10.814  19.252  0.00  0.00    +0.000 HD
ENDBRANCH  30  31
ENDBRANCH  23  30
ENDBRANCH  18  19
ENDBRANCH  17  18
ENDBRANCH   4  17
TORSDOF 9
ENDMDL
MODEL 3
REMARK VINA RESULT:      -7.8      3.138      4.435
REMARK  Name = 
REMARK  10 active torsions:
REMARK  status: ('A' for Active; 'I' for Inactive)
REMARK    1  A    between atoms: C_1  and  N_2
REMARK    2  A    between atoms: N_2  and  C_3
REMARK    3  A    between atoms: N_2  and  C_10
REMARK    4  A    between atoms: C_3  and  C_4
REMARK    5  A    between atoms: C_10  and  C_11
REMARK    6  A    between atoms: C_14  and  C_15
REMARK    7  A    between atoms: C_15  and  O_16
REMARK    8  A    between atoms: O_16  and  C_17
REMARK    9  A    between atoms: C_21  and  C_22
REMARK   10  A    between atoms: C_22  and  O_23
REMARK                            x       y       z     vdW  Elec       q    Type
REMARK                         _______ _______ _______ _____ _____    ______ ____
ROOT
ATOM      1  C   UNL     1       3.660   6.437  18.353  0.00  0.00    +0.000 A 
ATOM      2  C   UNL     1       3.363   7.519  17.507  0.00  0.00    +0.000 A 
ATOM      3  C   UNL     1       2.424   8.492  17.892  0.00  0.00    +0.000 A 
ATOM      4  C   UNL     1       1.779   8.407  19.137  0.00  0.00    +0.000 A 
ATOM      5  C   UNL     1       2.071   7.319  19.978  0.00  0.00    +0.000 A 
ATOM      6  C   UNL     1       2.992   6.339  19.585  0.00  0.00    +0.000 A 
ENDROOT
BRANCH   1   7
ATOM      7  C   UNL     1       4.666   5.374  17.939  0.00  0.00    +0.000 C 
BRANCH   7   9
ATOM      8  C   UNL     1       4.729   4.129  15.836  0.00  0.00    +0.000 C 
ATOM      9  N   UNL     1       4.064   4.270  17.147  0.00  0.00    +0.000 NA
BRANCH   9  10
ATOM     10  C   UNL     1       4.157   2.997  17.906  0.00  0.00    +0.000 C 
BRANCH  10  11
ATOM     11  C   UNL     1       3.105   2.931  18.987  0.00  0.00    +0.000 A 
ATOM     12  C   UNL     1       1.745   3.152  18.691  0.00  0.00    +0.000 A 
ATOM     13  C   UNL     1       0.791   3.125  19.711  0.00  0.00    +0.000 A 
ATOM     14  C   UNL     1       1.179   2.876  21.031  0.00  0.00    +0.000 A 
ATOM     15  C   UNL     1       2.524   2.644  21.331  0.00  0.00    +0.000 A 
ATOM     16  C   UNL     1       3.483   2.672  20.316  0.00  0.00    +0.000 A 
ENDBRANCH  10  11
ENDBRANCH   9  10
ENDBRANCH   7   9
ENDBRANCH   1   7
BRANCH   4  17
ATOM     17  C   UNL     1       0.793   9.468  19.579  0.00  0.00    +0.000 C 
BRANCH  17  18
ATOM     18  O   UNL     1       0.605  10.386  18.564  0.00  0.00    +0.000 OA
BRANCH  18  19
ATOM     19  C   UNL     1       0.879  11.721  18.609  0.00  0.00    +0.000 A 
ATOM     20  C   UNL     1       2.198  12.116  18.376  0.00  0.00    +0.000 A 
ATOM     21  C   UNL     1       2.562  13.463  18.374  0.00  0.00    +0.000 A 
ATOM     22  C   UNL     1       1.604  14.469  18.604  0.00  0.00    +0.000 A 
ATOM     23  C   UNL     1       1.906  15.859  18.595  0.00  0.00    +0.000 A 
ATOM     24  C   UNL     1       0.862  16.768  18.812  0.00  0.00    +0.000 A 
ATOM     25  C   UNL     1      -0.430  16.298  19.042  0.00  0.00    +0.000 A 
ATOM     26  O   UNL     1      -1.338  17.086  19.235  0.00  0.00    +0.000 OA
ATOM     27  O   UNL     1      -0.682  14.993  19.053  0.00  0.00    +0.000 OA
ATOM     28  C   UNL     1       0.261  14.076  18.844  0.00  0.00    +0.000 A 
ATOM     29  C   UNL     1      -0.096  12.713  18.850  0.00  0.00    +0.000 A 
BRANCH  23  30
ATOM     30  C   UNL     1       3.289  16.438  18.372  0.00  0.00    +0.000 C 
BRANCH  30  31
ATOM     31  O   UNL     1       3.255  17.399  17.350  0.00  0.00    +0.000 OA
ATOM     32  H   UNL     1       2.602  18.090  17.637  0.00  0.00    +0.000 HD
ENDBRANCH  30  31
ENDBRANCH  23  30
ENDBRANCH  18  19
ENDBRANCH  17  18
ENDBRANCH   4  17
TORSDOF 9
ENDMDL
MODEL 4
REMARK VINA RESULT:      -7.8      3.646      5.143
REMARK  Name = 
REMARK  10 active torsions:
REMARK  status: ('A' for Active; 'I' for Inactive)
REMARK    1  A    between atoms: C_1  and  N_2
REMARK    2  A    between atoms: N_2  and  C_3
REMARK    3  A    between atoms: N_2  and  C_10
REMARK    4  A    between atoms: C_3  and  C_4
REMARK    5  A    between atoms: C_10  and  C_11
REMARK    6  A    between atoms: C_14  and  C_15
REMARK    7  A    between atoms: C_15  and  O_16
REMARK    8  A    between atoms: O_16  and  C_17
REMARK    9  A    between atoms: C_21  and  C_22
REMARK   10  A    between atoms: C_22  and  O_23
REMARK                            x       y       z     vdW  Elec       q    Type
REMARK                         _______ _______ _______ _____ _____    ______ ____
ROOT
ATOM      1  C   UNL     1       3.243   6.643  18.774  0.00  0.00    +0.000 A 
ATOM      2  C   UNL     1       2.994   7.640  17.815  0.00  0.00    +0.000 A 
ATOM      3  C   UNL     1       2.097   8.687  18.089  0.00  0.00    +0.000 A 
ATOM      4  C   UNL     1       1.448   8.763  19.333  0.00  0.00    +0.000 A 
ATOM      5  C   UNL     1       1.691   7.760  20.286  0.00  0.00    +0.000 A 
ATOM      6  C   UNL     1       2.571   6.705  20.005  0.00  0.00    +0.000 A 
ENDROOT
BRANCH   1   7
ATOM      7  C   UNL     1       4.204   5.500  18.482  0.00  0.00    +0.000 C 
BRANCH   7   9
ATOM      8  C   UNL     1       4.866   4.845  16.221  0.00  0.00    +0.000 C 
ATOM      9  N   UNL     1       3.837   4.718  17.274  0.00  0.00    +0.000 NA
BRANCH   9  10
ATOM     10  C   UNL     1       3.652   3.289  17.635  0.00  0.00    +0.000 C 
BRANCH  10  11
ATOM     11  C   UNL     1       2.817   3.149  18.885  0.00  0.00    +0.000 A 
ATOM     12  C   UNL     1       1.429   3.385  18.861  0.00  0.00    +0.000 A 
ATOM     13  C   UNL     1       0.679   3.288  20.036  0.00  0.00    +0.000 A 
ATOM     14  C   UNL     1       1.302   2.952  21.242  0.00  0.00    +0.000 A 
ATOM     15  C   UNL     1       2.677   2.705  21.272  0.00  0.00    +0.000 A 
ATOM     16  C   UNL     1       3.432   2.803  20.100  0.00  0.00    +0.000 A 
ENDBRANCH  10  11
ENDBRANCH   9  10
ENDBRANCH   7   9
ENDBRANCH   1   7
BRANCH   4  17
ATOM     17  C   UNL     1       0.507   9.906  19.652  0.00  0.00    +0.000 C 
BRANCH  17  18
ATOM     18  O   UNL     1       0.459  10.787  18.590  0.00  0.00    +0.000 OA
BRANCH  18  19
ATOM     19  C   UNL     1       0.951  12.058  18.560  0.00  0.00    +0.000 A 
ATOM     20  C   UNL     1       0.052  13.102  18.786  0.00  0.00    +0.000 A 
ATOM     21  C   UNL     1       0.474  14.433  18.803  0.00  0.00    +0.000 A 
ATOM     22  C   UNL     1       1.828  14.761  18.596  0.00  0.00    +0.000 A 
ATOM     23  C   UNL     1       2.325  16.094  18.620  0.00  0.00    +0.000 A 
ATOM     24  C   UNL     1       3.698  16.296  18.425  0.00  0.00    +0.000 A 
ATOM     25  C   UNL     1       4.534  15.203  18.200  0.00  0.00    +0.000 A 
ATOM     26  O   UNL     1       5.727  15.376  18.026  0.00  0.00    +0.000 OA
ATOM     27  O   UNL     1       4.040  13.969  18.174  0.00  0.00    +0.000 OA
ATOM     28  C   UNL     1       2.748  13.706  18.362  0.00  0.00    +0.000 A 
ATOM     29  C   UNL     1       2.311  12.367  18.342  0.00  0.00    +0.000 A 
BRANCH  23  30
ATOM     30  C   UNL     1       1.472  17.329  18.839  0.00  0.00    +0.000 C 
BRANCH  30  31
ATOM     31  O   UNL     1       2.194  18.299  19.548  0.00  0.00    +0.000 OA
ATOM     32  H   UNL     1       1.756  19.170  19.357  0.00  0.00    +0.000 HD
ENDBRANCH  30  31
ENDBRANCH  23  30
ENDBRANCH  18  19
ENDBRANCH  17  18
ENDBRANCH   4  17
TORSDOF 9
ENDMDL
MODEL 5
REMARK VINA RESULT:      -7.7      6.437      9.553
REMARK  Name = 
REMARK  10 active torsions:
REMARK  status: ('A' for Active; 'I' for Inactive)
REMARK    1  A    between atoms: C_1  and  N_2
REMARK    2  A    between atoms: N_2  and  C_3
REMARK    3  A    between atoms: N_2  and  C_10
REMARK    4  A    between atoms: C_3  and  C_4
REMARK    5  A    between atoms: C_10  and  C_11
REMARK    6  A    between atoms: C_14  and  C_15
REMARK    7  A    between atoms: C_15  and  O_16
REMARK    8  A    between atoms: O_16  and  C_17
REMARK    9  A    between atoms: C_21  and  C_22
REMARK   10  A    between atoms: C_22  and  O_23
REMARK                            x       y       z     vdW  Elec       q    Type
REMARK                         _______ _______ _______ _____ _____    ______ ____
ROOT
ATOM      1  C   UNL     1       5.725   4.896  18.506  0.00  0.00    +0.000 A 
ATOM      2  C   UNL     1       6.753   5.298  19.377  0.00  0.00    +0.000 A 
ATOM      3  C   UNL     1       7.559   6.408  19.069  0.00  0.00    +0.000 A 
ATOM      4  C   UNL     1       7.339   7.144  17.893  0.00  0.00    +0.000 A 
ATOM      5  C   UNL     1       6.316   6.736  17.019  0.00  0.00    +0.000 A 
ATOM      6  C   UNL     1       5.526   5.617  17.318  0.00  0.00    +0.000 A 
ENDROOT
BRANCH   1   7
ATOM      7  C   UNL     1       4.856   3.690  18.827  0.00  0.00    +0.000 C 
BRANCH   7   9
ATOM      8  C   UNL     1       2.916   2.581  17.834  0.00  0.00    +0.000 C 
ATOM      9  N   UNL     1       3.447   3.845  18.383  0.00  0.00    +0.000 NA
BRANCH   9  10
ATOM     10  C   UNL     1       2.607   4.300  19.520  0.00  0.00    +0.000 C 
BRANCH  10  11
ATOM     11  C   UNL     1       2.328   5.781  19.432  0.00  0.00    +0.000 A 
ATOM     12  C   UNL     1       1.933   6.513  20.569  0.00  0.00    +0.000 A 
ATOM     13  C   UNL     1       1.641   7.875  20.461  0.00  0.00    +0.000 A 
ATOM     14  C   UNL     1       1.744   8.520  19.225  0.00  0.00    +0.000 A 
ATOM     15  C   UNL     1       2.146   7.803  18.094  0.00  0.00    +0.000 A 
ATOM     16  C   UNL     1       2.437   6.440  18.196  0.00  0.00    +0.000 A 
ENDBRANCH  10  11
ENDBRANCH   9  10
ENDBRANCH   7   9
ENDBRANCH   1   7
BRANCH   4  17
ATOM     17  C   UNL     1       8.177   8.364  17.569  0.00  0.00    +0.000 C 
BRANCH  17  18
ATOM     18  O   UNL     1       8.713   8.888  18.728  0.00  0.00    +0.000 OA
BRANCH  18  19
ATOM     19  C   UNL     1       9.203  10.148  18.904  0.00  0.00    +0.000 A 
ATOM     20  C   UNL     1       9.778  10.775  17.797  0.00  0.00    +0.000 A 
ATOM     21  C   UNL     1      10.279  12.076  17.879  0.00  0.00    +0.000 A 
ATOM     22  C   UNL     1      10.215  12.797  19.087  0.00  0.00    +0.000 A 
ATOM     23  C   UNL     1      10.688  14.131  19.231  0.00  0.00    +0.000 A 
ATOM     24  C   UNL     1      10.548  14.756  20.477  0.00  0.00    +0.000 A 
ATOM     25  C   UNL     1       9.968  14.063  21.539  0.00  0.00    +0.000 A 
ATOM     26  O   UNL     1       9.848  14.602  22.624  0.00  0.00    +0.000 OA
ATOM     27  O   UNL     1       9.541  12.814  21.377  0.00  0.00    +0.000 OA
ATOM     28  C   UNL     1       9.635  12.165  20.218  0.00  0.00    +0.000 A 
ATOM     29  C   UNL     1       9.137  10.851  20.126  0.00  0.00    +0.000 A 
BRANCH  23  30
ATOM     30  C   UNL     1      11.347  14.935  18.127  0.00  0.00    +0.000 C 
BRANCH  30  31
ATOM     31  O   UNL     1      10.393  15.333  17.180  0.00  0.00    +0.000 OA
ATOM     32  H   UNL     1       9.526  14.950  17.477  0.00  0.00    +0.000 HD
ENDBRANCH  30  31
ENDBRANCH  23  30
ENDBRANCH  18  19
ENDBRANCH  17  18
ENDBRANCH   4  17
TORSDOF 9
ENDMDL
MODEL 6
REMARK VINA RESULT:      -7.6      3.346      4.387
REMARK  Name = 
REMARK  10 active torsions:
REMARK  status: ('A' for Active; 'I' for Inactive)
REMARK    1  A    between atoms: C_1  and  N_2
REMARK    2  A    between atoms: N_2  and  C_3
REMARK    3  A    between atoms: N_2  and  C_10
REMARK    4  A    between atoms: C_3  and  C_4
REMARK    5  A    between atoms: C_10  and  C_11
REMARK    6  A    between atoms: C_14  and  C_15
REMARK    7  A    between atoms: C_15  and  O_16
REMARK    8  A    between atoms: O_16  and  C_17
REMARK    9  A    between atoms: C_21  and  C_22
REMARK   10  A    between atoms: C_22  and  O_23
REMARK                            x       y       z     vdW  Elec       q    Type
REMARK                         _______ _______ _______ _____ _____    ______ ____
ROOT
ATOM      1  C   UNL     1       3.337   6.561  18.744  0.00  0.00    +0.000 A 
ATOM      2  C   UNL     1       2.638   6.600  19.963  0.00  0.00    +0.000 A 
ATOM      3  C   UNL     1       1.750   7.652  20.245  0.00  0.00    +0.000 A 
ATOM      4  C   UNL     1       1.533   8.673  19.306  0.00  0.00    +0.000 A 
ATOM      5  C   UNL     1       2.240   8.637  18.091  0.00  0.00    +0.000 A 
ATOM      6  C   UNL     1       3.140   7.598  17.819  0.00  0.00    +0.000 A 
ENDROOT
BRANCH   1   7
ATOM      7  C   UNL     1       4.308   5.431  18.436  0.00  0.00    +0.000 C 
BRANCH   7   9
ATOM      8  C   UNL     1       5.004   4.793  16.181  0.00  0.00    +0.000 C 
ATOM      9  N   UNL     1       3.954   4.668  17.212  0.00  0.00    +0.000 NA
BRANCH   9  10
ATOM     10  C   UNL     1       3.740   3.239  17.552  0.00  0.00    +0.000 C 
BRANCH  10  11
ATOM     11  C   UNL     1       2.919   3.097  18.811  0.00  0.00    +0.000 A 
ATOM     12  C   UNL     1       3.525   2.768  20.040  0.00  0.00    +0.000 A 
ATOM     13  C   UNL     1       2.745   2.602  21.186  0.00  0.00    +0.000 A 
ATOM     14  C   UNL     1       1.358   2.766  21.123  0.00  0.00    +0.000 A 
ATOM     15  C   UNL     1       0.750   3.105  19.911  0.00  0.00    +0.000 A 
ATOM     16  C   UNL     1       1.525   3.269  18.760  0.00  0.00    +0.000 A 
ENDBRANCH  10  11
ENDBRANCH   9  10
ENDBRANCH   7   9
ENDBRANCH   1   7
BRANCH   4  17
ATOM     17  C   UNL     1       0.551   9.793  19.584  0.00  0.00    +0.000 C 
BRANCH  17  18
ATOM     18  O   UNL     1       0.543  10.684  18.529  0.00  0.00    +0.000 OA
BRANCH  18  19
ATOM     19  C   UNL     1       0.918  11.994  18.564  0.00  0.00    +0.000 A 
ATOM     20  C   UNL     1       2.272  12.282  18.383  0.00  0.00    +0.000 A 
ATOM     21  C   UNL     1       2.739  13.597  18.374  0.00  0.00    +0.000 A 
ATOM     22  C   UNL     1       1.853  14.677  18.545  0.00  0.00    +0.000 A 
ATOM     23  C   UNL     1       2.262  16.040  18.527  0.00  0.00    +0.000 A 
ATOM     24  C   UNL     1       1.284  17.031  18.682  0.00  0.00    +0.000 A 
ATOM     25  C   UNL     1      -0.050  16.666  18.863  0.00  0.00    +0.000 A 
ATOM     26  O   UNL     1      -0.902  17.525  19.003  0.00  0.00    +0.000 OA
ATOM     27  O   UNL     1      -0.402  15.384  18.884  0.00  0.00    +0.000 OA
ATOM     28  C   UNL     1       0.474  14.394  18.732  0.00  0.00    +0.000 A 
ATOM     29  C   UNL     1       0.013  13.063  18.745  0.00  0.00    +0.000 A 
BRANCH  23  30
ATOM     30  C   UNL     1       3.694  16.507  18.355  0.00  0.00    +0.000 C 
BRANCH  30  31
ATOM     31  O   UNL     1       4.039  17.404  19.377  0.00  0.00    +0.000 OA
ATOM     32  H   UNL     1       4.189  18.283  18.940  0.00  0.00    +0.000 HD
ENDBRANCH  30  31
ENDBRANCH  23  30
ENDBRANCH  18  19
ENDBRANCH  17  18
ENDBRANCH   4  17
TORSDOF 9
ENDMDL
MODEL 7
REMARK VINA RESULT:      -7.6      2.263      4.245
REMARK  Name = 
REMARK  10 active torsions:
REMARK  status: ('A' for Active; 'I' for Inactive)
REMARK    1  A    between atoms: C_1  and  N_2
REMARK    2  A    between atoms: N_2  and  C_3
REMARK    3  A    between atoms: N_2  and  C_10
REMARK    4  A    between atoms: C_3  and  C_4
REMARK    5  A    between atoms: C_10  and  C_11
REMARK    6  A    between atoms: C_14  and  C_15
REMARK    7  A    between atoms: C_15  and  O_16
REMARK    8  A    between atoms: O_16  and  C_17
REMARK    9  A    between atoms: C_21  and  C_22
REMARK   10  A    between atoms: C_22  and  O_23
REMARK                            x       y       z     vdW  Elec       q    Type
REMARK                         _______ _______ _______ _____ _____    ______ ____
ROOT
ATOM      1  C   UNL     1       2.334   5.434  19.276  0.00  0.00    +0.000 A 
ATOM      2  C   UNL     1       2.497   6.294  18.177  0.00  0.00    +0.000 A 
ATOM      3  C   UNL     1       2.193   7.662  18.288  0.00  0.00    +0.000 A 
ATOM      4  C   UNL     1       1.738   8.195  19.505  0.00  0.00    +0.000 A 
ATOM      5  C   UNL     1       1.566   7.331  20.600  0.00  0.00    +0.000 A 
ATOM      6  C   UNL     1       1.851   5.964  20.483  0.00  0.00    +0.000 A 
ENDROOT
BRANCH   1   7
ATOM      7  C   UNL     1       2.650   3.950  19.161  0.00  0.00    +0.000 C 
BRANCH   7   9
ATOM      8  C   UNL     1       4.093   2.436  20.427  0.00  0.00    +0.000 C 
ATOM      9  N   UNL     1       4.047   3.615  19.538  0.00  0.00    +0.000 NA
BRANCH   9  10
ATOM     10  C   UNL     1       4.853   3.365  18.316  0.00  0.00    +0.000 C 
BRANCH  10  11
ATOM     11  C   UNL     1       5.719   4.555  17.983  0.00  0.00    +0.000 A 
ATOM     12  C   UNL     1       5.707   5.124  16.694  0.00  0.00    +0.000 A 
ATOM     13  C   UNL     1       6.544   6.200  16.392  0.00  0.00    +0.000 A 
ATOM     14  C   UNL     1       7.396   6.723  17.369  0.00  0.00    +0.000 A 
ATOM     15  C   UNL     1       7.406   6.173  18.654  0.00  0.00    +0.000 A 
ATOM     16  C   UNL     1       6.573   5.094  18.960  0.00  0.00    +0.000 A 
ENDBRANCH  10  11
ENDBRANCH   9  10
ENDBRANCH   7   9
ENDBRANCH   1   7
BRANCH   4  17
ATOM     17  C   UNL     1       1.442   9.674  19.647  0.00  0.00    +0.000 C 
BRANCH  17  18
ATOM     18  O   UNL     1       0.730  10.118  18.550  0.00  0.00    +0.000 OA
BRANCH  18  19
ATOM     19  C   UNL     1      -0.552  10.580  18.541  0.00  0.00    +0.000 A 
ATOM     20  C   UNL     1      -1.379  10.163  17.495  0.00  0.00    +0.000 A 
ATOM     21  C   UNL     1      -2.715  10.563  17.423  0.00  0.00    +0.000 A 
ATOM     22  C   UNL     1      -3.270  11.400  18.409  0.00  0.00    +0.000 A 
ATOM     23  C   UNL     1      -4.627  11.826  18.404  0.00  0.00    +0.000 A 
ATOM     24  C   UNL     1      -5.073  12.639  19.455  0.00  0.00    +0.000 A 
ATOM     25  C   UNL     1      -4.187  13.019  20.462  0.00  0.00    +0.000 A 
ATOM     26  O   UNL     1      -4.571  13.729  21.374  0.00  0.00    +0.000 OA
ATOM     27  O   UNL     1      -2.922  12.611  20.437  0.00  0.00    +0.000 OA
ATOM     28  C   UNL     1      -2.435  11.830  19.474  0.00  0.00    +0.000 A 
ATOM     29  C   UNL     1      -1.088  11.426  19.535  0.00  0.00    +0.000 A 
BRANCH  23  30
ATOM     30  C   UNL     1      -5.639  11.469  17.332  0.00  0.00    +0.000 C 
BRANCH  30  31
ATOM     31  O   UNL     1      -6.895  11.231  17.909  0.00  0.00    +0.000 OA
ATOM     32  H   UNL     1      -6.734  11.080  18.878  0.00  0.00    +0.000 HD
ENDBRANCH  30  31
ENDBRANCH  23  30
ENDBRANCH  18  19
ENDBRANCH  17  18
ENDBRANCH   4  17
TORSDOF 9
ENDMDL
MODEL 8
REMARK VINA RESULT:      -7.6      0.941      2.075
REMARK  Name = 
REMARK  10 active torsions:
REMARK  status: ('A' for Active; 'I' for Inactive)
REMARK    1  A    between atoms: C_1  and  N_2
REMARK    2  A    between atoms: N_2  and  C_3
REMARK    3  A    between atoms: N_2  and  C_10
REMARK    4  A    between atoms: C_3  and  C_4
REMARK    5  A    between atoms: C_10  and  C_11
REMARK    6  A    between atoms: C_14  and  C_15
REMARK    7  A    between atoms: C_15  and  O_16
REMARK    8  A    between atoms: O_16  and  C_17
REMARK    9  A    between atoms: C_21  and  C_22
REMARK   10  A    between atoms: C_22  and  O_23
REMARK                            x       y       z     vdW  Elec       q    Type
REMARK                         _______ _______ _______ _____ _____    ______ ____
ROOT
ATOM      1  C   UNL     1       3.494   6.473  18.588  0.00  0.00    +0.000 A 
ATOM      2  C   UNL     1       2.691   6.611  19.735  0.00  0.00    +0.000 A 
ATOM      3  C   UNL     1       1.818   7.704  19.869  0.00  0.00    +0.000 A 
ATOM      4  C   UNL     1       1.720   8.668  18.851  0.00  0.00    +0.000 A 
ATOM      5  C   UNL     1       2.529   8.532  17.710  0.00  0.00    +0.000 A 
ATOM      6  C   UNL     1       3.414   7.453  17.586  0.00  0.00    +0.000 A 
ENDROOT
BRANCH   1   7
ATOM      7  C   UNL     1       4.449   5.299  18.440  0.00  0.00    +0.000 C 
BRANCH   7   9
ATOM      8  C   UNL     1       5.007   4.325  16.268  0.00  0.00    +0.000 C 
ATOM      9  N   UNL     1       4.041   4.337  17.385  0.00  0.00    +0.000 NA
BRANCH   9  10
ATOM     10  C   UNL     1       3.915   2.975  17.965  0.00  0.00    +0.000 C 
BRANCH  10  11
ATOM     11  C   UNL     1       2.973   2.972  19.145  0.00  0.00    +0.000 A 
ATOM     12  C   UNL     1       3.441   2.705  20.447  0.00  0.00    +0.000 A 
ATOM     13  C   UNL     1       2.550   2.667  21.521  0.00  0.00    +0.000 A 
ATOM     14  C   UNL     1       1.187   2.899  21.311  0.00  0.00    +0.000 A 
ATOM     15  C   UNL     1       0.715   3.176  20.025  0.00  0.00    +0.000 A 
ATOM     16  C   UNL     1       1.603   3.212  18.946  0.00  0.00    +0.000 A 
ENDBRANCH  10  11
ENDBRANCH   9  10
ENDBRANCH   7   9
ENDBRANCH   1   7
BRANCH   4  17
ATOM     17  C   UNL     1       0.755   9.830  18.969  0.00  0.00    +0.000 C 
BRANCH  17  18
ATOM     18  O   UNL     1       0.847  10.392  20.227  0.00  0.00    +0.000 OA
BRANCH  18  19
ATOM     19  C   UNL     1      -0.029  11.267  20.797  0.00  0.00    +0.000 A 
ATOM     20  C   UNL     1      -0.097  12.553  20.257  0.00  0.00    +0.000 A 
ATOM     21  C   UNL     1      -0.987  13.504  20.759  0.00  0.00    +0.000 A 
ATOM     22  C   UNL     1      -1.849  13.191  21.827  0.00  0.00    +0.000 A 
ATOM     23  C   UNL     1      -2.792  14.107  22.370  0.00  0.00    +0.000 A 
ATOM     24  C   UNL     1      -3.615  13.673  23.418  0.00  0.00    +0.000 A 
ATOM     25  C   UNL     1      -3.486  12.373  23.908  0.00  0.00    +0.000 A 
ATOM     26  O   UNL     1      -4.198  11.995  24.820  0.00  0.00    +0.000 OA
ATOM     27  O   UNL     1      -2.591  11.541  23.385  0.00  0.00    +0.000 OA
ATOM     28  C   UNL     1      -1.785  11.886  22.383  0.00  0.00    +0.000 A 
ATOM     29  C   UNL     1      -0.879  10.935  21.873  0.00  0.00    +0.000 A 
BRANCH  23  30
ATOM     30  C   UNL     1      -2.972  15.538  21.901  0.00  0.00    +0.000 C 
BRANCH  30  31
ATOM     31  O   UNL     1      -3.378  15.562  20.559  0.00  0.00    +0.000 OA
ATOM     32  H   UNL     1      -3.378  14.618  20.250  0.00  0.00    +0.000 HD
ENDBRANCH  30  31
ENDBRANCH  23  30
ENDBRANCH  18  19
ENDBRANCH  17  18
ENDBRANCH   4  17
TORSDOF 9
ENDMDL
MODEL 9
REMARK VINA RESULT:      -7.5      3.216      4.175
REMARK  Name = 
REMARK  10 active torsions:
REMARK  status: ('A' for Active; 'I' for Inactive)
REMARK    1  A    between atoms: C_1  and  N_2
REMARK    2  A    between atoms: N_2  and  C_3
REMARK    3  A    between atoms: N_2  and  C_10
REMARK    4  A    between atoms: C_3  and  C_4
REMARK    5  A    between atoms: C_10  and  C_11
REMARK    6  A    between atoms: C_14  and  C_15
REMARK    7  A    between atoms: C_15  and  O_16
REMARK    8  A    between atoms: O_16  and  C_17
REMARK    9  A    between atoms: C_21  and  C_22
REMARK   10  A    between atoms: C_22  and  O_23
REMARK                            x       y       z     vdW  Elec       q    Type
REMARK                         _______ _______ _______ _____ _____    ______ ____
ROOT
ATOM      1  C   UNL     1       3.574   6.191  18.607  0.00  0.00    +0.000 A 
ATOM      2  C   UNL     1       2.818   6.354  19.781  0.00  0.00    +0.000 A 
ATOM      3  C   UNL     1       2.006   7.488  19.958  0.00  0.00    +0.000 A 
ATOM      4  C   UNL     1       1.925   8.470  18.956  0.00  0.00    +0.000 A 
ATOM      5  C   UNL     1       2.689   8.310  17.787  0.00  0.00    +0.000 A 
ATOM      6  C   UNL     1       3.512   7.188  17.620  0.00  0.00    +0.000 A 
ENDROOT
BRANCH   1   7
ATOM      7  C   UNL     1       4.463   4.972  18.412  0.00  0.00    +0.000 C 
BRANCH   7   9
ATOM      8  C   UNL     1       5.058   4.075  16.217  0.00  0.00    +0.000 C 
ATOM      9  N   UNL     1       4.036   4.107  17.284  0.00  0.00    +0.000 NA
BRANCH   9  10
ATOM     10  C   UNL     1       3.769   2.731  17.776  0.00  0.00    +0.000 C 
BRANCH  10  11
ATOM     11  C   UNL     1       2.886   2.754  19.000  0.00  0.00    +0.000 A 
ATOM     12  C   UNL     1       1.496   2.956  18.889  0.00  0.00    +0.000 A 
ATOM     13  C   UNL     1       0.700   3.013  20.035  0.00  0.00    +0.000 A 
ATOM     14  C   UNL     1       1.277   2.865  21.300  0.00  0.00    +0.000 A 
ATOM     15  C   UNL     1       2.654   2.652  21.419  0.00  0.00    +0.000 A 
ATOM     16  C   UNL     1       3.455   2.597  20.275  0.00  0.00    +0.000 A 
ENDBRANCH  10  11
ENDBRANCH   9  10
ENDBRANCH   7   9
ENDBRANCH   1   7
BRANCH   4  17
ATOM     17  C   UNL     1       1.026   9.678  19.120  0.00  0.00    +0.000 C 
BRANCH  17  18
ATOM     18  O   UNL     1       1.531  10.741  18.397  0.00  0.00    +0.000 OA
BRANCH  18  19
ATOM     19  C   UNL     1       1.235  12.060  18.571  0.00  0.00    +0.000 A 
ATOM     20  C   UNL     1      -0.085  12.388  18.886  0.00  0.00    +0.000 A 
ATOM     21  C   UNL     1      -0.470  13.712  19.110  0.00  0.00    +0.000 A 
ATOM     22  C   UNL     1       0.468  14.758  19.029  0.00  0.00    +0.000 A 
ATOM     23  C   UNL     1       0.145  16.123  19.265  0.00  0.00    +0.000 A 
ATOM     24  C   UNL     1       1.170  17.075  19.179  0.00  0.00    +0.000 A 
ATOM     25  C   UNL     1       2.465  16.671  18.855  0.00  0.00    +0.000 A 
ATOM     26  O   UNL     1       3.357  17.496  18.776  0.00  0.00    +0.000 OA
ATOM     27  O   UNL     1       2.736  15.389  18.632  0.00  0.00    +0.000 OA
ATOM     28  C   UNL     1       1.812  14.433  18.706  0.00  0.00    +0.000 A 
ATOM     29  C   UNL     1       2.190  13.096  18.476  0.00  0.00    +0.000 A 
BRANCH  23  30
ATOM     30  C   UNL     1      -1.243  16.634  19.601  0.00  0.00    +0.000 C 
BRANCH  30  31
ATOM     31  O   UNL     1      -1.175  17.956  20.064  0.00  0.00    +0.000 OA
ATOM     32  H   UNL     1      -0.756  18.487  19.336  0.00  0.00    +0.000 HD
ENDBRANCH  30  31
ENDBRANCH  23  30
ENDBRANCH  18  19
ENDBRANCH  17  18
ENDBRANCH   4  17
TORSDOF 9
ENDMDL
