MODEL 1
REMARK VINA RESULT:      -7.9      0.000      0.000
REMARK  Name = 
REMARK  5 active torsions:
REMARK  status: ('A' for Active; 'I' for Inactive)
REMARK    1  A    between atoms: C_1  and  C_2
REMARK    2  A    between atoms: C_5  and  C_6
REMARK    3  A    between atoms: N_10  and  C_11
REMARK    4  A    between atoms: C_11  and  C_12
REMARK    5  A    between atoms: N_16  and  C_17
REMARK                            x       y       z     vdW  Elec       q    Type
REMARK                         _______ _______ _______ _____ _____    ______ ____
ROOT
ATOM      1  C   UNL     1       2.658   4.511  18.403  0.00  0.00    +0.000 A 
ATOM      2  N   UNL     1       1.744   3.562  18.403  0.00  0.00    +0.000 NA
ATOM      3  C   UNL     1       2.392   2.375  18.294  0.00  0.00    +0.000 A 
ATOM      4  C   UNL     1       3.753   2.589  18.220  0.00  0.00    +0.000 A 
ATOM      5  N   UNL     1       3.907   3.948  18.169  0.00  0.00    +0.000 N 
ENDROOT
BRANCH   1  10
ATOM      6  C   UNL     1       1.483  10.133  19.108  0.00  0.00    +0.000 C 
ATOM      7  C   UNL     1       1.797   8.666  18.969  0.00  0.00    +0.000 A 
ATOM      8  C   UNL     1       2.178   8.175  17.720  0.00  0.00    +0.000 A 
ATOM      9  C   UNL     1       2.480   6.832  17.566  0.00  0.00    +0.000 A 
ATOM     10  C   UNL     1       2.382   5.930  18.634  0.00  0.00    +0.000 A 
ATOM     11  C   UNL     1       2.034   6.424  19.909  0.00  0.00    +0.000 A 
ATOM     12 CL   UNL     1       1.912   5.357  21.282  0.00  0.00    +0.000 Cl
ATOM     13  C   UNL     1       1.750   7.790  20.071  0.00  0.00    +0.000 A 
ATOM     14 CL   UNL     1       1.324   8.424  21.635  0.00  0.00    +0.000 Cl
ENDBRANCH   1  10
BRANCH   5  15
ATOM     15  C   UNL     1       5.148   4.676  17.916  0.00  0.00    +0.000 C 
BRANCH  15  16
ATOM     16  C   UNL     1       5.473   4.933  16.449  0.00  0.00    +0.000 C 
ATOM     17  C   UNL     1       6.894   5.468  16.237  0.00  0.00    +0.000 C 
ATOM     18  C   UNL     1       7.179   5.099  14.814  0.00  0.00    +0.000 C 
ATOM     19  O   UNL     1       8.080   5.599  14.140  0.00  0.00    +0.000 OA
ATOM     20  N   UNL     1       6.292   4.088  14.452  0.00  0.00    +0.000 N 
ATOM     21  C   UNL     1       5.464   3.690  15.565  0.00  0.00    +0.000 C 
BRANCH  20  22
ATOM     22  C   UNL     1       6.363   3.328  13.239  0.00  0.00    +0.000 C 
ATOM     23  C   UNL     1       5.339   3.450  12.138  0.00  0.00    +0.000 C 
ATOM     24  C   UNL     1       6.719   4.000  11.937  0.00  0.00    +0.000 C 
ENDBRANCH  20  22
ENDBRANCH  15  16
ENDBRANCH   5  15
TORSDOF 4
ENDMDL
MODEL 2
REMARK VINA RESULT:      -7.7      1.972      3.015
REMARK  Name = 
REMARK  5 active torsions:
REMARK  status: ('A' for Active; 'I' for Inactive)
REMARK    1  A    between atoms: C_1  and  C_2
REMARK    2  A    between atoms: C_5  and  C_6
REMARK    3  A    between atoms: N_10  and  C_11
REMARK    4  A    between atoms: C_11  and  C_12
REMARK    5  A    between atoms: N_16  and  C_17
REMARK                            x       y       z     vdW  Elec       q    Type
REMARK                         _______ _______ _______ _____ _____    ______ ____
ROOT
ATOM      1  C   UNL     1       2.878   4.314  18.143  0.00  0.00    +0.000 A 
ATOM      2  N   UNL     1       2.124   3.549  17.381  0.00  0.00    +0.000 NA
ATOM      3  C   UNL     1       2.594   2.281  17.489  0.00  0.00    +0.000 A 
ATOM      4  C   UNL     1       3.676   2.253  18.343  0.00  0.00    +0.000 A 
ATOM      5  N   UNL     1       3.926   3.562  18.660  0.00  0.00    +0.000 N 
ENDROOT
BRANCH   1  10
ATOM      6  C   UNL     1       1.828   9.945  18.966  0.00  0.00    +0.000 C 
ATOM      7  C   UNL     1       2.102   8.474  18.797  0.00  0.00    +0.000 A 
ATOM      8  C   UNL     1       2.671   8.028  17.604  0.00  0.00    +0.000 A 
ATOM      9  C   UNL     1       2.940   6.681  17.425  0.00  0.00    +0.000 A 
ATOM     10  C   UNL     1       2.625   5.732  18.407  0.00  0.00    +0.000 A 
ATOM     11  C   UNL     1       2.084   6.178  19.632  0.00  0.00    +0.000 A 
ATOM     12 CL   UNL     1       1.686   5.050  20.899  0.00  0.00    +0.000 Cl
ATOM     13  C   UNL     1       1.832   7.546  19.822  0.00  0.00    +0.000 A 
ATOM     14 CL   UNL     1       1.171   8.121  21.326  0.00  0.00    +0.000 Cl
ENDBRANCH   1  10
BRANCH   5  15
ATOM     15  C   UNL     1       5.075   4.076  19.400  0.00  0.00    +0.000 C 
BRANCH  15  16
ATOM     16  C   UNL     1       6.237   4.575  18.549  0.00  0.00    +0.000 C 
ATOM     17  C   UNL     1       5.966   4.466  17.044  0.00  0.00    +0.000 C 
ATOM     18  C   UNL     1       6.899   5.484  16.464  0.00  0.00    +0.000 C 
ATOM     19  O   UNL     1       7.229   5.517  15.279  0.00  0.00    +0.000 OA
ATOM     20  N   UNL     1       7.251   6.366  17.482  0.00  0.00    +0.000 N 
ATOM     21  C   UNL     1       6.556   6.058  18.710  0.00  0.00    +0.000 C 
BRANCH  20  22
ATOM     22  C   UNL     1       7.971   7.591  17.295  0.00  0.00    +0.000 C 
ATOM     23  C   UNL     1       7.379   8.941  17.615  0.00  0.00    +0.000 C 
ATOM     24  C   UNL     1       8.460   8.377  18.485  0.00  0.00    +0.000 C 
ENDBRANCH  20  22
ENDBRANCH  15  16
ENDBRANCH   5  15
TORSDOF 4
ENDMDL
MODEL 3
REMARK VINA RESULT:      -7.5      2.140      3.810
REMARK  Name = 
REMARK  5 active torsions:
REMARK  status: ('A' for Active; 'I' for Inactive)
REMARK    1  A    between atoms: C_1  and  C_2
REMARK    2  A    between atoms: C_5  and  C_6
REMARK    3  A    between atoms: N_10  and  C_11
REMARK    4  A    between atoms: C_11  and  C_12
REMARK    5  A    between atoms: N_16  and  C_17
REMARK                            x       y       z     vdW  Elec       q    Type
REMARK                         _______ _______ _______ _____ _____    ______ ____
ROOT
ATOM      1  C   UNL     1       2.707   6.637  18.723  0.00  0.00    +0.000 A 
ATOM      2  N   UNL     1       2.101   7.804  18.806  0.00  0.00    +0.000 NA
ATOM      3  C   UNL     1       2.625   8.601  17.841  0.00  0.00    +0.000 A 
ATOM      4  C   UNL     1       3.589   7.912  17.136  0.00  0.00    +0.000 A 
ATOM      5  N   UNL     1       3.721   6.709  17.777  0.00  0.00    +0.000 N 
ENDROOT
BRANCH   1  10
ATOM      6  C   UNL     1       1.221   2.096  21.988  0.00  0.00    +0.000 C 
ATOM      7  C   UNL     1       1.606   3.251  21.101  0.00  0.00    +0.000 A 
ATOM      8  C   UNL     1       2.269   4.341  21.666  0.00  0.00    +0.000 A 
ATOM      9  C   UNL     1       2.642   5.413  20.873  0.00  0.00    +0.000 A 
ATOM     10  C   UNL     1       2.341   5.454  19.504  0.00  0.00    +0.000 A 
ATOM     11  C   UNL     1       1.704   4.340  18.917  0.00  0.00    +0.000 A 
ATOM     12 CL   UNL     1       1.316   4.322  17.218  0.00  0.00    +0.000 Cl
ATOM     13  C   UNL     1       1.346   3.243  19.717  0.00  0.00    +0.000 A 
ATOM     14 CL   UNL     1       0.565   1.855  19.015  0.00  0.00    +0.000 Cl
ENDBRANCH   1  10
BRANCH   5  15
ATOM     15  C   UNL     1       4.735   5.690  17.518  0.00  0.00    +0.000 C 
BRANCH  15  16
ATOM     16  C   UNL     1       5.262   5.632  16.090  0.00  0.00    +0.000 C 
ATOM     17  C   UNL     1       6.772   5.886  15.999  0.00  0.00    +0.000 C 
ATOM     18  C   UNL     1       7.140   5.234  14.702  0.00  0.00    +0.000 C 
ATOM     19  O   UNL     1       8.186   5.458  14.092  0.00  0.00    +0.000 OA
ATOM     20  N   UNL     1       6.130   4.332  14.378  0.00  0.00    +0.000 N 
ATOM     21  C   UNL     1       5.126   4.272  15.413  0.00  0.00    +0.000 C 
BRANCH  20  22
ATOM     22  C   UNL     1       6.197   3.371  13.317  0.00  0.00    +0.000 C 
ATOM     23  C   UNL     1       5.263   3.397  12.133  0.00  0.00    +0.000 C 
ATOM     24  C   UNL     1       6.703   3.773  11.955  0.00  0.00    +0.000 C 
ENDBRANCH  20  22
ENDBRANCH  15  16
ENDBRANCH   5  15
TORSDOF 4
ENDMDL
MODEL 4
REMARK VINA RESULT:      -7.3      2.991      6.696
REMARK  Name = 
REMARK  5 active torsions:
REMARK  status: ('A' for Active; 'I' for Inactive)
REMARK    1  A    between atoms: C_1  and  C_2
REMARK    2  A    between atoms: C_5  and  C_6
REMARK    3  A    between atoms: N_10  and  C_11
REMARK    4  A    between atoms: C_11  and  C_12
REMARK    5  A    between atoms: N_16  and  C_17
REMARK                            x       y       z     vdW  Elec       q    Type
REMARK                         _______ _______ _______ _____ _____    ______ ____
ROOT
ATOM      1  C   UNL     1       4.281   3.248  19.354  0.00  0.00    +0.000 A 
ATOM      2  N   UNL     1       4.907   2.442  20.186  0.00  0.00    +0.000 NA
ATOM      3  C   UNL     1       4.012   2.059  21.130  0.00  0.00    +0.000 A 
ATOM      4  C   UNL     1       2.790   2.647  20.883  0.00  0.00    +0.000 A 
ATOM      5  N   UNL     1       2.998   3.493  19.827  0.00  0.00    +0.000 N 
ENDROOT
BRANCH   1  10
ATOM      6  C   UNL     1       6.368   5.312  14.367  0.00  0.00    +0.000 C 
ATOM      7  C   UNL     1       5.862   4.791  15.686  0.00  0.00    +0.000 A 
ATOM      8  C   UNL     1       4.934   3.749  15.687  0.00  0.00    +0.000 A 
ATOM      9  C   UNL     1       4.458   3.246  16.886  0.00  0.00    +0.000 A 
ATOM     10  C   UNL     1       4.859   3.780  18.118  0.00  0.00    +0.000 A 
ATOM     11  C   UNL     1       5.825   4.808  18.129  0.00  0.00    +0.000 A 
ATOM     12 CL   UNL     1       6.378   5.504  19.628  0.00  0.00    +0.000 Cl
ATOM     13  C   UNL     1       6.325   5.303  16.913  0.00  0.00    +0.000 A 
ATOM     14 CL   UNL     1       7.522   6.568  16.901  0.00  0.00    +0.000 Cl
ENDBRANCH   1  10
BRANCH   5  15
ATOM     15  C   UNL     1       2.053   4.471  19.293  0.00  0.00    +0.000 C 
BRANCH  15  16
ATOM     16  C   UNL     1       2.420   5.933  19.520  0.00  0.00    +0.000 C 
ATOM     17  C   UNL     1       2.377   6.766  18.233  0.00  0.00    +0.000 C 
ATOM     18  C   UNL     1       2.189   8.160  18.747  0.00  0.00    +0.000 C 
ATOM     19  O   UNL     1       2.404   9.173  18.081  0.00  0.00    +0.000 OA
ATOM     20  N   UNL     1       1.695   8.071  20.046  0.00  0.00    +0.000 N 
ATOM     21  C   UNL     1       1.463   6.699  20.428  0.00  0.00    +0.000 C 
BRANCH  20  22
ATOM     22  C   UNL     1       1.200   9.176  20.814  0.00  0.00    +0.000 C 
ATOM     23  C   UNL     1      -0.105   9.124  21.568  0.00  0.00    +0.000 C 
ATOM     24  C   UNL     1       1.191   9.113  22.320  0.00  0.00    +0.000 C 
ENDBRANCH  20  22
ENDBRANCH  15  16
ENDBRANCH   5  15
TORSDOF 4
ENDMDL
MODEL 5
REMARK VINA RESULT:      -7.1      2.556      3.831
REMARK  Name = 
REMARK  5 active torsions:
REMARK  status: ('A' for Active; 'I' for Inactive)
REMARK    1  A    between atoms: C_1  and  C_2
REMARK    2  A    between atoms: C_5  and  C_6
REMARK    3  A    between atoms: N_10  and  C_11
REMARK    4  A    between atoms: C_11  and  C_12
REMARK    5  A    between atoms: N_16  and  C_17
REMARK                            x       y       z     vdW  Elec       q    Type
REMARK                         _______ _______ _______ _____ _____    ______ ____
ROOT
ATOM      1  C   UNL     1       5.830   4.804  18.940  0.00  0.00    +0.000 A 
ATOM      2  N   UNL     1       6.837   5.355  19.587  0.00  0.00    +0.000 NA
ATOM      3  C   UNL     1       7.672   5.886  18.660  0.00  0.00    +0.000 A 
ATOM      4  C   UNL     1       7.174   5.658  17.395  0.00  0.00    +0.000 A 
ATOM      5  N   UNL     1       6.070   4.869  17.573  0.00  0.00    +0.000 N 
ENDROOT
BRANCH   1  10
ATOM      6  C   UNL     1       1.275   2.432  21.606  0.00  0.00    +0.000 C 
ATOM      7  C   UNL     1       2.432   3.080  20.892  0.00  0.00    +0.000 A 
ATOM      8  C   UNL     1       3.601   2.342  20.700  0.00  0.00    +0.000 A 
ATOM      9  C   UNL     1       4.678   2.911  20.040  0.00  0.00    +0.000 A 
ATOM     10  C   UNL     1       4.643   4.235  19.581  0.00  0.00    +0.000 A 
ATOM     11  C   UNL     1       3.452   4.975  19.738  0.00  0.00    +0.000 A 
ATOM     12 CL   UNL     1       3.339   6.621  19.174  0.00  0.00    +0.000 Cl
ATOM     13  C   UNL     1       2.352   4.391  20.386  0.00  0.00    +0.000 A 
ATOM     14 CL   UNL     1       0.870   5.283  20.587  0.00  0.00    +0.000 Cl
ENDBRANCH   1  10
BRANCH   5  15
ATOM     15  C   UNL     1       5.287   4.214  16.528  0.00  0.00    +0.000 C 
BRANCH  15  16
ATOM     16  C   UNL     1       5.611   4.637  15.100  0.00  0.00    +0.000 C 
ATOM     17  C   UNL     1       7.053   5.129  14.935  0.00  0.00    +0.000 C 
ATOM     18  C   UNL     1       7.307   4.929  13.473  0.00  0.00    +0.000 C 
ATOM     19  O   UNL     1       8.224   5.468  12.853  0.00  0.00    +0.000 OA
ATOM     20  N   UNL     1       6.370   4.013  13.001  0.00  0.00    +0.000 N 
ATOM     21  C   UNL     1       5.536   3.516  14.069  0.00  0.00    +0.000 C 
BRANCH  20  22
ATOM     22  C   UNL     1       6.395   3.407  11.702  0.00  0.00    +0.000 C 
ATOM     23  C   UNL     1       7.202   2.171  11.394  0.00  0.00    +0.000 C 
ATOM     24  C   UNL     1       5.708   2.087  11.463  0.00  0.00    +0.000 C 
ENDBRANCH  20  22
ENDBRANCH  15  16
ENDBRANCH   5  15
TORSDOF 4
ENDMDL
MODEL 6
REMARK VINA RESULT:      -7.1      2.376      3.438
REMARK  Name = 
REMARK  5 active torsions:
REMARK  status: ('A' for Active; 'I' for Inactive)
REMARK    1  A    between atoms: C_1  and  C_2
REMARK    2  A    between atoms: C_5  and  C_6
REMARK    3  A    between atoms: N_10  and  C_11
REMARK    4  A    between atoms: C_11  and  C_12
REMARK    5  A    between atoms: N_16  and  C_17
REMARK                            x       y       z     vdW  Elec       q    Type
REMARK                         _______ _______ _______ _____ _____    ______ ____
ROOT
ATOM      1  C   UNL     1       2.719   4.154  18.479  0.00  0.00    +0.000 A 
ATOM      2  N   UNL     1       1.977   3.465  17.636  0.00  0.00    +0.000 NA
ATOM      3  C   UNL     1       2.624   2.301  17.384  0.00  0.00    +0.000 A 
ATOM      4  C   UNL     1       3.809   2.261  18.088  0.00  0.00    +0.000 A 
ATOM      5  N   UNL     1       3.921   3.488  18.685  0.00  0.00    +0.000 N 
ENDROOT
BRANCH   1  10
ATOM      6  C   UNL     1       1.155   9.040  21.155  0.00  0.00    +0.000 C 
ATOM      7  C   UNL     1       1.564   7.792  20.419  0.00  0.00    +0.000 A 
ATOM      8  C   UNL     1       1.270   6.551  20.985  0.00  0.00    +0.000 A 
ATOM      9  C   UNL     1       1.627   5.386  20.326  0.00  0.00    +0.000 A 
ATOM     10  C   UNL     1       2.314   5.414  19.105  0.00  0.00    +0.000 A 
ATOM     11  C   UNL     1       2.582   6.664  18.507  0.00  0.00    +0.000 A 
ATOM     12 CL   UNL     1       3.419   6.766  16.981  0.00  0.00    +0.000 Cl
ATOM     13  C   UNL     1       2.200   7.844  19.164  0.00  0.00    +0.000 A 
ATOM     14 CL   UNL     1       2.514   9.398  18.443  0.00  0.00    +0.000 Cl
ENDBRANCH   1  10
BRANCH   5  15
ATOM     15  C   UNL     1       5.082   4.006  19.405  0.00  0.00    +0.000 C 
BRANCH  15  16
ATOM     16  C   UNL     1       6.219   4.526  18.533  0.00  0.00    +0.000 C 
ATOM     17  C   UNL     1       5.934   4.386  17.033  0.00  0.00    +0.000 C 
ATOM     18  C   UNL     1       6.829   5.423  16.428  0.00  0.00    +0.000 C 
ATOM     19  O   UNL     1       7.145   5.449  15.238  0.00  0.00    +0.000 OA
ATOM     20  N   UNL     1       7.166   6.331  17.428  0.00  0.00    +0.000 N 
ATOM     21  C   UNL     1       6.494   6.021  18.668  0.00  0.00    +0.000 C 
BRANCH  20  22
ATOM     22  C   UNL     1       7.846   7.574  17.215  0.00  0.00    +0.000 C 
ATOM     23  C   UNL     1       7.279   8.900  17.659  0.00  0.00    +0.000 C 
ATOM     24  C   UNL     1       8.459   8.316  18.375  0.00  0.00    +0.000 C 
ENDBRANCH  20  22
ENDBRANCH  15  16
ENDBRANCH   5  15
TORSDOF 4
ENDMDL
MODEL 7
REMARK VINA RESULT:      -7.0      0.986      1.284
REMARK  Name = 
REMARK  5 active torsions:
REMARK  status: ('A' for Active; 'I' for Inactive)
REMARK    1  A    between atoms: C_1  and  C_2
REMARK    2  A    between atoms: C_5  and  C_6
REMARK    3  A    between atoms: N_10  and  C_11
REMARK    4  A    between atoms: C_11  and  C_12
REMARK    5  A    between atoms: N_16  and  C_17
REMARK                            x       y       z     vdW  Elec       q    Type
REMARK                         _______ _______ _______ _____ _____    ______ ____
ROOT
ATOM      1  C   UNL     1       2.450   3.973  18.768  0.00  0.00    +0.000 A 
ATOM      2  N   UNL     1       1.473   3.114  18.563  0.00  0.00    +0.000 NA
ATOM      3  C   UNL     1       1.996   1.869  18.690  0.00  0.00    +0.000 A 
ATOM      4  C   UNL     1       3.341   1.953  18.982  0.00  0.00    +0.000 A 
ATOM      5  N   UNL     1       3.648   3.285  18.911  0.00  0.00    +0.000 N 
ENDROOT
BRANCH   1  10
ATOM      6  C   UNL     1       1.663   9.705  18.882  0.00  0.00    +0.000 C 
ATOM      7  C   UNL     1       1.878   8.215  18.897  0.00  0.00    +0.000 A 
ATOM      8  C   UNL     1       2.141   7.561  17.692  0.00  0.00    +0.000 A 
ATOM      9  C   UNL     1       2.351   6.192  17.678  0.00  0.00    +0.000 A 
ATOM     10  C   UNL     1       2.276   5.425  18.848  0.00  0.00    +0.000 A 
ATOM     11  C   UNL     1       2.049   6.082  20.076  0.00  0.00    +0.000 A 
ATOM     12 CL   UNL     1       1.961   5.187  21.569  0.00  0.00    +0.000 Cl
ATOM     13  C   UNL     1       1.858   7.474  20.094  0.00  0.00    +0.000 A 
ATOM     14 CL   UNL     1       1.582   8.308  21.597  0.00  0.00    +0.000 Cl
ENDBRANCH   1  10
BRANCH   5  15
ATOM     15  C   UNL     1       4.982   3.877  18.972  0.00  0.00    +0.000 C 
BRANCH  15  16
ATOM     16  C   UNL     1       5.318   4.861  17.858  0.00  0.00    +0.000 C 
ATOM     17  C   UNL     1       6.745   5.414  17.959  0.00  0.00    +0.000 C 
ATOM     18  C   UNL     1       7.035   5.842  16.553  0.00  0.00    +0.000 C 
ATOM     19  O   UNL     1       7.944   6.612  16.243  0.00  0.00    +0.000 OA
ATOM     20  N   UNL     1       6.143   5.179  15.715  0.00  0.00    +0.000 N 
ATOM     21  C   UNL     1       5.306   4.264  16.454  0.00  0.00    +0.000 C 
BRANCH  20  22
ATOM     22  C   UNL     1       6.216   5.165  14.283  0.00  0.00    +0.000 C 
ATOM     23  C   UNL     1       7.235   4.349  13.527  0.00  0.00    +0.000 C 
ATOM     24  C   UNL     1       5.793   3.942  13.510  0.00  0.00    +0.000 C 
ENDBRANCH  20  22
ENDBRANCH  15  16
ENDBRANCH   5  15
TORSDOF 4
ENDMDL
MODEL 8
REMARK VINA RESULT:      -7.0      1.850      2.308
REMARK  Name = 
REMARK  5 active torsions:
REMARK  status: ('A' for Active; 'I' for Inactive)
REMARK    1  A    between atoms: C_1  and  C_2
REMARK    2  A    between atoms: C_5  and  C_6
REMARK    3  A    between atoms: N_10  and  C_11
REMARK    4  A    between atoms: C_11  and  C_12
REMARK    5  A    between atoms: N_16  and  C_17
REMARK                            x       y       z     vdW  Elec       q    Type
REMARK                         _______ _______ _______ _____ _____    ______ ____
ROOT
ATOM      1  C   UNL     1       2.273   4.885  19.782  0.00  0.00    +0.000 A 
ATOM      2  N   UNL     1       1.402   3.902  19.683  0.00  0.00    +0.000 NA
ATOM      3  C   UNL     1       2.101   2.739  19.698  0.00  0.00    +0.000 A 
ATOM      4  C   UNL     1       3.450   3.004  19.806  0.00  0.00    +0.000 A 
ATOM      5  N   UNL     1       3.562   4.367  19.738  0.00  0.00    +0.000 N 
ENDROOT
BRANCH   1  10
ATOM      6  C   UNL     1       0.935  10.456  20.593  0.00  0.00    +0.000 C 
ATOM      7  C   UNL     1       1.279   9.012  20.337  0.00  0.00    +0.000 A 
ATOM      8  C   UNL     1       1.108   8.087  21.368  0.00  0.00    +0.000 A 
ATOM      9  C   UNL     1       1.409   6.752  21.157  0.00  0.00    +0.000 A 
ATOM     10  C   UNL     1       1.918   6.297  19.933  0.00  0.00    +0.000 A 
ATOM     11  C   UNL     1       2.058   7.219  18.873  0.00  0.00    +0.000 A 
ATOM     12 CL   UNL     1       2.670   6.714  17.321  0.00  0.00    +0.000 Cl
ATOM     13  C   UNL     1       1.731   8.569  19.079  0.00  0.00    +0.000 A 
ATOM     14 CL   UNL     1       1.890   9.724  17.786  0.00  0.00    +0.000 Cl
ENDBRANCH   1  10
BRANCH   5  15
ATOM     15  C   UNL     1       4.799   5.137  19.637  0.00  0.00    +0.000 C 
BRANCH  15  16
ATOM     16  C   UNL     1       5.241   5.492  18.222  0.00  0.00    +0.000 C 
ATOM     17  C   UNL     1       6.553   6.283  18.187  0.00  0.00    +0.000 C 
ATOM     18  C   UNL     1       7.066   6.014  16.805  0.00  0.00    +0.000 C 
ATOM     19  O   UNL     1       7.931   6.690  16.249  0.00  0.00    +0.000 OA
ATOM     20  N   UNL     1       6.430   4.869  16.332  0.00  0.00    +0.000 N 
ATOM     21  C   UNL     1       5.566   4.294  17.335  0.00  0.00    +0.000 C 
BRANCH  20  22
ATOM     22  C   UNL     1       6.783   4.170  15.132  0.00  0.00    +0.000 C 
ATOM     23  C   UNL     1       5.816   3.964  13.994  0.00  0.00    +0.000 C 
ATOM     24  C   UNL     1       6.959   4.921  13.836  0.00  0.00    +0.000 C 
ENDBRANCH  20  22
ENDBRANCH  15  16
ENDBRANCH   5  15
TORSDOF 4
ENDMDL
MODEL 9
REMARK VINA RESULT:      -6.9      5.723      9.797
REMARK  Name = 
REMARK  5 active torsions:
REMARK  status: ('A' for Active; 'I' for Inactive)
REMARK    1  A    between atoms: C_1  and  C_2
REMARK    2  A    between atoms: C_5  and  C_6
REMARK    3  A    between atoms: N_10  and  C_11
REMARK    4  A    between atoms: C_11  and  C_12
REMARK    5  A    between atoms: N_16  and  C_17
REMARK                            x       y       z     vdW  Elec       q    Type
REMARK                         _______ _______ _______ _____ _____    ______ ____
ROOT
ATOM      1  C   UNL     1       0.962  11.260  19.568  0.00  0.00    +0.000 A 
ATOM      2  N   UNL     1       1.745  12.287  19.823  0.00  0.00    +0.000 NA
ATOM      3  C   UNL     1       0.953  13.307  20.238  0.00  0.00    +0.000 A 
ATOM      4  C   UNL     1      -0.366  12.905  20.241  0.00  0.00    +0.000 A 
ATOM      5  N   UNL     1      -0.366  11.647  19.701  0.00  0.00    +0.000 N 
ENDROOT
BRANCH   1  10
ATOM      6  C   UNL     1       3.000   6.058  18.059  0.00  0.00    +0.000 C 
ATOM      7  C   UNL     1       2.444   7.392  18.484  0.00  0.00    +0.000 A 
ATOM      8  C   UNL     1       2.482   8.455  17.581  0.00  0.00    +0.000 A 
ATOM      9  C   UNL     1       1.970   9.690  17.943  0.00  0.00    +0.000 A 
ATOM     10  C   UNL     1       1.436   9.920  19.218  0.00  0.00    +0.000 A 
ATOM     11  C   UNL     1       1.359   8.840  20.125  0.00  0.00    +0.000 A 
ATOM     12 CL   UNL     1       0.691   9.056  21.720  0.00  0.00    +0.000 Cl
ATOM     13  C   UNL     1       1.857   7.582  19.750  0.00  0.00    +0.000 A 
ATOM     14 CL   UNL     1       1.768   6.235  20.849  0.00  0.00    +0.000 Cl
ENDBRANCH   1  10
BRANCH   5  15
ATOM     15  C   UNL     1      -1.537  10.856  19.332  0.00  0.00    +0.000 C 
BRANCH  15  16
ATOM     16  C   UNL     1      -2.368  11.408  18.179  0.00  0.00    +0.000 C 
ATOM     17  C   UNL     1      -2.543  10.403  17.035  0.00  0.00    +0.000 C 
ATOM     18  C   UNL     1      -3.785  10.889  16.353  0.00  0.00    +0.000 C 
ATOM     19  O   UNL     1      -4.117  10.562  15.213  0.00  0.00    +0.000 OA
ATOM     20  N   UNL     1      -4.472  11.701  17.252  0.00  0.00    +0.000 N 
ATOM     21  C   UNL     1      -3.813  11.741  18.535  0.00  0.00    +0.000 C 
BRANCH  20  22
ATOM     22  C   UNL     1      -5.800  12.203  17.055  0.00  0.00    +0.000 C 
ATOM     23  C   UNL     1      -6.955  11.823  17.947  0.00  0.00    +0.000 C 
ATOM     24  C   UNL     1      -6.385  13.207  18.015  0.00  0.00    +0.000 C 
ENDBRANCH  20  22
ENDBRANCH  15  16
ENDBRANCH   5  15
TORSDOF 4
ENDMDL
