MODEL 1
REMARK VINA RESULT:      -6.5      0.000      0.000
REMARK  Name = 
REMARK  7 active torsions:
REMARK  status: ('A' for Active; 'I' for Inactive)
REMARK    1  A    between atoms: C_1  and  C_2
REMARK    2  A    between atoms: C_4  and  N_5
REMARK    3  A    between atoms: C_7  and  C_8
REMARK    4  A    between atoms: N_16  and  C_17
REMARK    5  A    between atoms: C_17  and  C_18
REMARK    6  A    between atoms: C_28  and  O_29
REMARK    7  A    between atoms: C_30  and  O_31
REMARK                            x       y       z     vdW  Elec       q    Type
REMARK                         _______ _______ _______ _____ _____    ______ ____
ROOT
ATOM      1  N   UNL     1      -4.032  13.454  22.960  0.00  0.00    +0.000 N 
ATOM      2  C   UNL     1      -3.668  12.621  21.929  0.00  0.00    +0.000 A 
ATOM      3  C   UNL     1      -2.344  12.858  21.617  0.00  0.00    +0.000 A 
ATOM      4  C   UNL     1      -1.895  13.925  22.466  0.00  0.00    +0.000 A 
ATOM      5  C   UNL     1      -0.680  14.611  22.701  0.00  0.00    +0.000 A 
ATOM      6  N   UNL     1       0.528  14.192  22.174  0.00  0.00    +0.000 N 
ATOM      7  N   UNL     1      -0.690  15.648  23.570  0.00  0.00    +0.000 NA
ATOM      8  C   UNL     1      -1.821  15.907  24.249  0.00  0.00    +0.000 A 
ATOM      9  N   UNL     1      -3.000  15.272  24.174  0.00  0.00    +0.000 NA
ATOM     10  C   UNL     1      -2.986  14.296  23.251  0.00  0.00    +0.000 A 
ATOM     11  H   UNL     1       0.481  13.355  21.610  0.00  0.00    +0.000 HD
ENDROOT
BRANCH   1  15
ATOM     12  C   UNL     1      -7.667  12.278  21.569  0.00  0.00    +0.000 C 
ATOM     13  C   UNL     1      -7.369  12.406  23.054  0.00  0.00    +0.000 C 
ATOM     14  O   UNL     1      -5.972  12.119  23.273  0.00  0.00    +0.000 OA
ATOM     15  C   UNL     1      -5.311  13.346  23.646  0.00  0.00    +0.000 C 
ATOM     16  C   UNL     1      -6.283  14.508  23.433  0.00  0.00    +0.000 C 
ATOM     17  C   UNL     1      -7.622  13.806  23.611  0.00  0.00    +0.000 C 
BRANCH  16  18
ATOM     18  O   UNL     1      -6.116  15.552  24.399  0.00  0.00    +0.000 OA
ATOM     19  H   UNL     1      -5.535  15.181  25.097  0.00  0.00    +0.000 HD
ENDBRANCH  16  18
BRANCH  17  20
ATOM     20  O   UNL     1      -7.915  13.763  25.024  0.00  0.00    +0.000 OA
ATOM     21  H   UNL     1      -7.474  12.984  25.410  0.00  0.00    +0.000 HD
ENDBRANCH  17  20
ENDBRANCH   1  15
BRANCH   3  22
ATOM     22  C   UNL     1      -1.650  12.074  20.608  0.00  0.00    +0.000 A 
ATOM     23  C   UNL     1      -0.837  10.994  20.965  0.00  0.00    +0.000 A 
ATOM     24  C   UNL     1      -0.279  10.175  19.982  0.00  0.00    +0.000 A 
ATOM     25  C   UNL     1      -0.473  10.472  18.635  0.00  0.00    +0.000 A 
ATOM     26  C   UNL     1      -1.223  11.587  18.268  0.00  0.00    +0.000 A 
ATOM     27  C   UNL     1      -1.818  12.378  19.250  0.00  0.00    +0.000 A 
ENDBRANCH   3  22
BRANCH   6  28
ATOM     28  C   UNL     1       1.498  15.169  21.720  0.00  0.00    +0.000 C 
BRANCH  28  29
ATOM     29  C   UNL     1       1.968  14.746  20.342  0.00  0.00    +0.000 A 
ATOM     30  C   UNL     1       1.807  13.432  19.873  0.00  0.00    +0.000 A 
ATOM     31  C   UNL     1       2.281  13.076  18.608  0.00  0.00    +0.000 A 
ATOM     32  C   UNL     1       2.917  14.019  17.800  0.00  0.00    +0.000 A 
ATOM     33  C   UNL     1       3.077  15.325  18.254  0.00  0.00    +0.000 A 
ATOM     34  C   UNL     1       2.601  15.688  19.512  0.00  0.00    +0.000 A 
ENDBRANCH  28  29
ENDBRANCH   6  28
TORSDOF 6
ENDMDL
MODEL 2
REMARK VINA RESULT:      -6.5      5.954      9.209
REMARK  Name = 
REMARK  7 active torsions:
REMARK  status: ('A' for Active; 'I' for Inactive)
REMARK    1  A    between atoms: C_1  and  C_2
REMARK    2  A    between atoms: C_4  and  N_5
REMARK    3  A    between atoms: C_7  and  C_8
REMARK    4  A    between atoms: N_16  and  C_17
REMARK    5  A    between atoms: C_17  and  C_18
REMARK    6  A    between atoms: C_28  and  O_29
REMARK    7  A    between atoms: C_30  and  O_31
REMARK                            x       y       z     vdW  Elec       q    Type
REMARK                         _______ _______ _______ _____ _____    ______ ____
ROOT
ATOM      1  N   UNL     1       2.078   6.167  20.139  0.00  0.00    +0.000 N 
ATOM      2  C   UNL     1       1.327   6.885  21.040  0.00  0.00    +0.000 A 
ATOM      3  C   UNL     1       1.172   8.170  20.560  0.00  0.00    +0.000 A 
ATOM      4  C   UNL     1       1.909   8.253  19.330  0.00  0.00    +0.000 A 
ATOM      5  C   UNL     1       2.132   9.226  18.328  0.00  0.00    +0.000 A 
ATOM      6  N   UNL     1       1.429  10.415  18.273  0.00  0.00    +0.000 N 
ATOM      7  N   UNL     1       2.984   8.923  17.321  0.00  0.00    +0.000 NA
ATOM      8  C   UNL     1       3.490   7.679  17.260  0.00  0.00    +0.000 A 
ATOM      9  N   UNL     1       3.281   6.654  18.100  0.00  0.00    +0.000 NA
ATOM     10  C   UNL     1       2.493   7.002  19.130  0.00  0.00    +0.000 A 
ATOM     11  H   UNL     1       0.739  10.539  19.001  0.00  0.00    +0.000 HD
ENDROOT
BRANCH   1  15
ATOM     12  C   UNL     1       4.089   3.600  17.710  0.00  0.00    +0.000 C 
ATOM     13  C   UNL     1       3.658   3.217  19.116  0.00  0.00    +0.000 C 
ATOM     14  O   UNL     1       3.655   4.401  19.940  0.00  0.00    +0.000 OA
ATOM     15  C   UNL     1       2.287   4.732  20.255  0.00  0.00    +0.000 C 
ATOM     16  C   UNL     1       1.366   3.853  19.407  0.00  0.00    +0.000 C 
ATOM     17  C   UNL     1       2.248   2.632  19.186  0.00  0.00    +0.000 C 
BRANCH  16  18
ATOM     18  O   UNL     1       0.158   3.498  20.089  0.00  0.00    +0.000 OA
ATOM     19  H   UNL     1       0.234   3.885  20.988  0.00  0.00    +0.000 HD
ENDBRANCH  16  18
BRANCH  17  20
ATOM     20  O   UNL     1       2.097   1.763  20.328  0.00  0.00    +0.000 OA
ATOM     21  H   UNL     1       2.983   1.481  20.625  0.00  0.00    +0.000 HD
ENDBRANCH  17  20
ENDBRANCH   1  15
BRANCH   3  22
ATOM     22  C   UNL     1       0.359   9.150  21.262  0.00  0.00    +0.000 A 
ATOM     23  C   UNL     1       0.218   9.109  22.653  0.00  0.00    +0.000 A 
ATOM     24  C   UNL     1      -0.462  10.127  23.323  0.00  0.00    +0.000 A 
ATOM     25  C   UNL     1      -1.063  11.157  22.602  0.00  0.00    +0.000 A 
ATOM     26  C   UNL     1      -0.987  11.170  21.211  0.00  0.00    +0.000 A 
ATOM     27  C   UNL     1      -0.270  10.177  20.545  0.00  0.00    +0.000 A 
ENDBRANCH   3  22
BRANCH   6  28
ATOM     28  C   UNL     1       2.099  11.636  17.868  0.00  0.00    +0.000 C 
BRANCH  28  29
ATOM     29  C   UNL     1       1.573  12.761  18.738  0.00  0.00    +0.000 A 
ATOM     30  C   UNL     1       2.272  13.214  19.869  0.00  0.00    +0.000 A 
ATOM     31  C   UNL     1       1.738  14.233  20.662  0.00  0.00    +0.000 A 
ATOM     32  C   UNL     1       0.509  14.808  20.339  0.00  0.00    +0.000 A 
ATOM     33  C   UNL     1      -0.189  14.369  19.218  0.00  0.00    +0.000 A 
ATOM     34  C   UNL     1       0.340  13.357  18.420  0.00  0.00    +0.000 A 
ENDBRANCH  28  29
ENDBRANCH   6  28
TORSDOF 6
ENDMDL
MODEL 3
REMARK VINA RESULT:      -6.3      2.681      4.234
REMARK  Name = 
REMARK  7 active torsions:
REMARK  status: ('A' for Active; 'I' for Inactive)
REMARK    1  A    between atoms: C_1  and  C_2
REMARK    2  A    between atoms: C_4  and  N_5
REMARK    3  A    between atoms: C_7  and  C_8
REMARK    4  A    between atoms: N_16  and  C_17
REMARK    5  A    between atoms: C_17  and  C_18
REMARK    6  A    between atoms: C_28  and  O_29
REMARK    7  A    between atoms: C_30  and  O_31
REMARK                            x       y       z     vdW  Elec       q    Type
REMARK                         _______ _______ _______ _____ _____    ______ ____
ROOT
ATOM      1  N   UNL     1      -4.003  12.891  20.932  0.00  0.00    +0.000 N 
ATOM      2  C   UNL     1      -4.290  12.454  19.659  0.00  0.00    +0.000 A 
ATOM      3  C   UNL     1      -3.186  11.789  19.162  0.00  0.00    +0.000 A 
ATOM      4  C   UNL     1      -2.159  11.871  20.162  0.00  0.00    +0.000 A 
ATOM      5  C   UNL     1      -0.840  11.384  20.324  0.00  0.00    +0.000 A 
ATOM      6  N   UNL     1      -0.278  10.454  19.469  0.00  0.00    +0.000 N 
ATOM      7  N   UNL     1      -0.152  11.759  21.427  0.00  0.00    +0.000 NA
ATOM      8  C   UNL     1      -0.788  12.481  22.366  0.00  0.00    +0.000 A 
ATOM      9  N   UNL     1      -2.054  12.922  22.361  0.00  0.00    +0.000 NA
ATOM     10  C   UNL     1      -2.692  12.602  21.223  0.00  0.00    +0.000 A 
ATOM     11  H   UNL     1      -0.879  10.144  18.718  0.00  0.00    +0.000 HD
ENDROOT
BRANCH   1  15
ATOM     12  C   UNL     1      -7.811  11.712  21.734  0.00  0.00    +0.000 C 
ATOM     13  C   UNL     1      -7.085  12.744  22.581  0.00  0.00    +0.000 C 
ATOM     14  O   UNL     1      -5.673  12.450  22.563  0.00  0.00    +0.000 OA
ATOM     15  C   UNL     1      -5.005  13.481  21.806  0.00  0.00    +0.000 C 
ATOM     16  C   UNL     1      -6.065  14.345  21.119  0.00  0.00    +0.000 C 
ATOM     17  C   UNL     1      -7.241  14.175  22.069  0.00  0.00    +0.000 C 
BRANCH  16  18
ATOM     18  O   UNL     1      -5.677  15.719  21.020  0.00  0.00    +0.000 OA
ATOM     19  H   UNL     1      -6.224  16.201  21.676  0.00  0.00    +0.000 HD
ENDBRANCH  16  18
BRANCH  17  20
ATOM     20  O   UNL     1      -7.090  15.134  23.138  0.00  0.00    +0.000 OA
ATOM     21  H   UNL     1      -6.185  15.064  23.494  0.00  0.00    +0.000 HD
ENDBRANCH  17  20
ENDBRANCH   1  15
BRANCH   3  22
ATOM     22  C   UNL     1      -3.211  11.147  17.858  0.00  0.00    +0.000 A 
ATOM     23  C   UNL     1      -4.112  11.554  16.869  0.00  0.00    +0.000 A 
ATOM     24  C   UNL     1      -4.039  11.014  15.583  0.00  0.00    +0.000 A 
ATOM     25  C   UNL     1      -3.111  10.014  15.298  0.00  0.00    +0.000 A 
ATOM     26  C   UNL     1      -2.256   9.552  16.295  0.00  0.00    +0.000 A 
ATOM     27  C   UNL     1      -2.298  10.124  17.567  0.00  0.00    +0.000 A 
ENDBRANCH   3  22
BRANCH   6  28
ATOM     28  C   UNL     1       1.124  10.553  19.113  0.00  0.00    +0.000 C 
BRANCH  28  29
ATOM     29  C   UNL     1       1.682   9.145  19.043  0.00  0.00    +0.000 A 
ATOM     30  C   UNL     1       1.578   8.250  20.120  0.00  0.00    +0.000 A 
ATOM     31  C   UNL     1       2.132   6.970  20.026  0.00  0.00    +0.000 A 
ATOM     32  C   UNL     1       2.793   6.571  18.865  0.00  0.00    +0.000 A 
ATOM     33  C   UNL     1       2.897   7.449  17.790  0.00  0.00    +0.000 A 
ATOM     34  C   UNL     1       2.342   8.724  17.875  0.00  0.00    +0.000 A 
ENDBRANCH  28  29
ENDBRANCH   6  28
TORSDOF 6
ENDMDL
MODEL 4
REMARK VINA RESULT:      -6.2      3.914      8.148
REMARK  Name = 
REMARK  7 active torsions:
REMARK  status: ('A' for Active; 'I' for Inactive)
REMARK    1  A    between atoms: C_1  and  C_2
REMARK    2  A    between atoms: C_4  and  N_5
REMARK    3  A    between atoms: C_7  and  C_8
REMARK    4  A    between atoms: N_16  and  C_17
REMARK    5  A    between atoms: C_17  and  C_18
REMARK    6  A    between atoms: C_28  and  O_29
REMARK    7  A    between atoms: C_30  and  O_31
REMARK                            x       y       z     vdW  Elec       q    Type
REMARK                         _______ _______ _______ _____ _____    ______ ____
ROOT
ATOM      1  N   UNL     1      -1.825  11.876  19.206  0.00  0.00    +0.000 N 
ATOM      2  C   UNL     1      -1.793  12.524  20.419  0.00  0.00    +0.000 A 
ATOM      3  C   UNL     1      -3.090  12.801  20.805  0.00  0.00    +0.000 A 
ATOM      4  C   UNL     1      -3.951  12.344  19.751  0.00  0.00    +0.000 A 
ATOM      5  C   UNL     1      -5.345  12.274  19.519  0.00  0.00    +0.000 A 
ATOM      6  N   UNL     1      -6.279  12.531  20.505  0.00  0.00    +0.000 N 
ATOM      7  N   UNL     1      -5.770  11.823  18.317  0.00  0.00    +0.000 NA
ATOM      8  C   UNL     1      -4.857  11.361  17.444  0.00  0.00    +0.000 A 
ATOM      9  N   UNL     1      -3.525  11.298  17.589  0.00  0.00    +0.000 NA
ATOM     10  C   UNL     1      -3.123  11.820  18.759  0.00  0.00    +0.000 A 
ATOM     11  H   UNL     1      -5.894  12.771  21.408  0.00  0.00    +0.000 HD
ENDROOT
BRANCH   1  15
ATOM     12  C   UNL     1       0.906   9.276  20.725  0.00  0.00    +0.000 C 
ATOM     13  C   UNL     1       0.812   9.578  19.239  0.00  0.00    +0.000 C 
ATOM     14  O   UNL     1      -0.558   9.888  18.914  0.00  0.00    +0.000 OA
ATOM     15  C   UNL     1      -0.642  11.292  18.594  0.00  0.00    +0.000 C 
ATOM     16  C   UNL     1       0.690  11.953  18.953  0.00  0.00    +0.000 C 
ATOM     17  C   UNL     1       1.649  10.781  18.805  0.00  0.00    +0.000 C 
BRANCH  16  18
ATOM     18  O   UNL     1       1.037  13.018  18.060  0.00  0.00    +0.000 OA
ATOM     19  H   UNL     1       1.266  13.783  18.630  0.00  0.00    +0.000 HD
ENDBRANCH  16  18
BRANCH  17  20
ATOM     20  O   UNL     1       2.022  10.685  17.414  0.00  0.00    +0.000 OA
ATOM     21  H   UNL     1       1.619   9.880  17.038  0.00  0.00    +0.000 HD
ENDBRANCH  17  20
ENDBRANCH   1  15
BRANCH   3  22
ATOM     22  C   UNL     1      -3.384  13.419  22.088  0.00  0.00    +0.000 A 
ATOM     23  C   UNL     1      -3.761  12.649  23.193  0.00  0.00    +0.000 A 
ATOM     24  C   UNL     1      -3.918  13.243  24.447  0.00  0.00    +0.000 A 
ATOM     25  C   UNL     1      -3.765  14.620  24.590  0.00  0.00    +0.000 A 
ATOM     26  C   UNL     1      -3.457  15.407  23.482  0.00  0.00    +0.000 A 
ATOM     27  C   UNL     1      -3.257  14.807  22.239  0.00  0.00    +0.000 A 
ENDBRANCH   3  22
BRANCH   6  28
ATOM     28  C   UNL     1      -7.510  13.223  20.175  0.00  0.00    +0.000 C 
BRANCH  28  29
ATOM     29  C   UNL     1      -7.520  14.534  20.937  0.00  0.00    +0.000 A 
ATOM     30  C   UNL     1      -7.842  15.752  20.317  0.00  0.00    +0.000 A 
ATOM     31  C   UNL     1      -7.811  16.942  21.048  0.00  0.00    +0.000 A 
ATOM     32  C   UNL     1      -7.460  16.932  22.398  0.00  0.00    +0.000 A 
ATOM     33  C   UNL     1      -7.145  15.729  23.023  0.00  0.00    +0.000 A 
ATOM     34  C   UNL     1      -7.180  14.538  22.301  0.00  0.00    +0.000 A 
ENDBRANCH  28  29
ENDBRANCH   6  28
TORSDOF 6
ENDMDL
MODEL 5
REMARK VINA RESULT:      -6.2      4.118      8.193
REMARK  Name = 
REMARK  7 active torsions:
REMARK  status: ('A' for Active; 'I' for Inactive)
REMARK    1  A    between atoms: C_1  and  C_2
REMARK    2  A    between atoms: C_4  and  N_5
REMARK    3  A    between atoms: C_7  and  C_8
REMARK    4  A    between atoms: N_16  and  C_17
REMARK    5  A    between atoms: C_17  and  C_18
REMARK    6  A    between atoms: C_28  and  O_29
REMARK    7  A    between atoms: C_30  and  O_31
REMARK                            x       y       z     vdW  Elec       q    Type
REMARK                         _______ _______ _______ _____ _____    ______ ____
ROOT
ATOM      1  N   UNL     1      -1.931  11.793  18.955  0.00  0.00    +0.000 N 
ATOM      2  C   UNL     1      -2.024  12.465  20.152  0.00  0.00    +0.000 A 
ATOM      3  C   UNL     1      -3.352  12.761  20.389  0.00  0.00    +0.000 A 
ATOM      4  C   UNL     1      -4.098  12.293  19.255  0.00  0.00    +0.000 A 
ATOM      5  C   UNL     1      -5.459  12.232  18.873  0.00  0.00    +0.000 A 
ATOM      6  N   UNL     1      -6.492  12.518  19.746  0.00  0.00    +0.000 N 
ATOM      7  N   UNL     1      -5.755  11.761  17.640  0.00  0.00    +0.000 NA
ATOM      8  C   UNL     1      -4.758  11.273  16.881  0.00  0.00    +0.000 A 
ATOM      9  N   UNL     1      -3.451  11.200  17.172  0.00  0.00    +0.000 NA
ATOM     10  C   UNL     1      -3.173  11.741  18.369  0.00  0.00    +0.000 A 
ATOM     11  H   UNL     1      -6.205  12.771  20.681  0.00  0.00    +0.000 HD
ENDROOT
BRANCH   1  15
ATOM     12  C   UNL     1       0.798   9.526  20.942  0.00  0.00    +0.000 C 
ATOM     13  C   UNL     1       0.778   9.631  19.426  0.00  0.00    +0.000 C 
ATOM     14  O   UNL     1      -0.581   9.839  18.992  0.00  0.00    +0.000 OA
ATOM     15  C   UNL     1      -0.695  11.186  18.487  0.00  0.00    +0.000 C 
ATOM     16  C   UNL     1       0.591  11.942  18.826  0.00  0.00    +0.000 C 
ATOM     17  C   UNL     1       1.596  10.802  18.883  0.00  0.00    +0.000 C 
BRANCH  16  18
ATOM     18  O   UNL     1       0.951  12.897  17.821  0.00  0.00    +0.000 OA
ATOM     19  H   UNL     1       0.881  12.424  16.964  0.00  0.00    +0.000 HD
ENDBRANCH  16  18
BRANCH  17  20
ATOM     20  O   UNL     1       2.051  10.544  17.538  0.00  0.00    +0.000 OA
ATOM     21  H   UNL     1       1.785  11.292  16.970  0.00  0.00    +0.000 HD
ENDBRANCH  17  20
ENDBRANCH   1  15
BRANCH   3  22
ATOM     22  C   UNL     1      -3.777  13.408  21.619  0.00  0.00    +0.000 A 
ATOM     23  C   UNL     1      -4.066  14.776  21.654  0.00  0.00    +0.000 A 
ATOM     24  C   UNL     1      -4.592  15.357  22.810  0.00  0.00    +0.000 A 
ATOM     25  C   UNL     1      -4.768  14.588  23.958  0.00  0.00    +0.000 A 
ATOM     26  C   UNL     1      -4.419  13.240  23.955  0.00  0.00    +0.000 A 
ATOM     27  C   UNL     1      -3.936  12.650  22.788  0.00  0.00    +0.000 A 
ENDBRANCH   3  22
BRANCH   6  28
ATOM     28  C   UNL     1      -7.671  13.215  19.269  0.00  0.00    +0.000 C 
BRANCH  28  29
ATOM     29  C   UNL     1      -7.537  14.672  19.668  0.00  0.00    +0.000 A 
ATOM     30  C   UNL     1      -7.025  15.639  18.789  0.00  0.00    +0.000 A 
ATOM     31  C   UNL     1      -6.890  16.966  19.206  0.00  0.00    +0.000 A 
ATOM     32  C   UNL     1      -7.260  17.341  20.498  0.00  0.00    +0.000 A 
ATOM     33  C   UNL     1      -7.773  16.391  21.375  0.00  0.00    +0.000 A 
ATOM     34  C   UNL     1      -7.917  15.067  20.963  0.00  0.00    +0.000 A 
ENDBRANCH  28  29
ENDBRANCH   6  28
TORSDOF 6
ENDMDL
MODEL 6
REMARK VINA RESULT:      -6.2      6.948     10.093
REMARK  Name = 
REMARK  7 active torsions:
REMARK  status: ('A' for Active; 'I' for Inactive)
REMARK    1  A    between atoms: C_1  and  C_2
REMARK    2  A    between atoms: C_4  and  N_5
REMARK    3  A    between atoms: C_7  and  C_8
REMARK    4  A    between atoms: N_16  and  C_17
REMARK    5  A    between atoms: C_17  and  C_18
REMARK    6  A    between atoms: C_28  and  O_29
REMARK    7  A    between atoms: C_30  and  O_31
REMARK                            x       y       z     vdW  Elec       q    Type
REMARK                         _______ _______ _______ _____ _____    ______ ____
ROOT
ATOM      1  N   UNL     1       5.507  16.158  20.674  0.00  0.00    +0.000 N 
ATOM      2  C   UNL     1       5.651  15.286  21.728  0.00  0.00    +0.000 A 
ATOM      3  C   UNL     1       6.953  14.827  21.746  0.00  0.00    +0.000 A 
ATOM      4  C   UNL     1       7.621  15.409  20.616  0.00  0.00    +0.000 A 
ATOM      5  C   UNL     1       8.931  15.404  20.081  0.00  0.00    +0.000 A 
ATOM      6  N   UNL     1      10.013  14.876  20.760  0.00  0.00    +0.000 N 
ATOM      7  N   UNL     1       9.145  16.047  18.910  0.00  0.00    +0.000 NA
ATOM      8  C   UNL     1       8.135  16.751  18.369  0.00  0.00    +0.000 A 
ATOM      9  N   UNL     1       6.884  16.898  18.830  0.00  0.00    +0.000 NA
ATOM     10  C   UNL     1       6.676  16.190  19.952  0.00  0.00    +0.000 A 
ATOM     11  H   UNL     1       9.802  14.495  21.672  0.00  0.00    +0.000 HD
ENDROOT
BRANCH   1  15
ATOM     12  C   UNL     1       1.665  15.449  21.798  0.00  0.00    +0.000 C 
ATOM     13  C   UNL     1       2.131  16.812  21.316  0.00  0.00    +0.000 C 
ATOM     14  O   UNL     1       3.517  16.983  21.675  0.00  0.00    +0.000 OA
ATOM     15  C   UNL     1       4.306  16.952  20.467  0.00  0.00    +0.000 C 
ATOM     16  C   UNL     1       3.407  16.513  19.310  0.00  0.00    +0.000 C 
ATOM     17  C   UNL     1       2.046  16.987  19.800  0.00  0.00    +0.000 C 
BRANCH  16  18
ATOM     18  O   UNL     1       3.755  17.141  18.071  0.00  0.00    +0.000 OA
ATOM     19  H   UNL     1       4.503  17.742  18.275  0.00  0.00    +0.000 HD
ENDBRANCH  16  18
BRANCH  17  20
ATOM     20  O   UNL     1       1.905  18.377  19.439  0.00  0.00    +0.000 OA
ATOM     21  H   UNL     1       2.468  18.912  20.030  0.00  0.00    +0.000 HD
ENDBRANCH  17  20
ENDBRANCH   1  15
BRANCH   3  22
ATOM     22  C   UNL     1       7.432  13.942  22.795  0.00  0.00    +0.000 A 
ATOM     23  C   UNL     1       8.136  14.440  23.896  0.00  0.00    +0.000 A 
ATOM     24  C   UNL     1       8.479  13.598  24.955  0.00  0.00    +0.000 A 
ATOM     25  C   UNL     1       8.180  12.239  24.889  0.00  0.00    +0.000 A 
ATOM     26  C   UNL     1       7.540  11.719  23.767  0.00  0.00    +0.000 A 
ATOM     27  C   UNL     1       7.158  12.569  22.729  0.00  0.00    +0.000 A 
ENDBRANCH   3  22
BRANCH   6  28
ATOM     28  C   UNL     1      11.045  14.160  20.035  0.00  0.00    +0.000 C 
BRANCH  28  29
ATOM     29  C   UNL     1      10.493  12.794  19.676  0.00  0.00    +0.000 A 
ATOM     30  C   UNL     1      10.358  12.374  18.343  0.00  0.00    +0.000 A 
ATOM     31  C   UNL     1       9.817  11.119  18.054  0.00  0.00    +0.000 A 
ATOM     32  C   UNL     1       9.405  10.273  19.084  0.00  0.00    +0.000 A 
ATOM     33  C   UNL     1       9.539  10.679  20.408  0.00  0.00    +0.000 A 
ATOM     34  C   UNL     1      10.084  11.926  20.704  0.00  0.00    +0.000 A 
ENDBRANCH  28  29
ENDBRANCH   6  28
TORSDOF 6
ENDMDL
MODEL 7
REMARK VINA RESULT:      -6.1      2.884      4.648
REMARK  Name = 
REMARK  7 active torsions:
REMARK  status: ('A' for Active; 'I' for Inactive)
REMARK    1  A    between atoms: C_1  and  C_2
REMARK    2  A    between atoms: C_4  and  N_5
REMARK    3  A    between atoms: C_7  and  C_8
REMARK    4  A    between atoms: N_16  and  C_17
REMARK    5  A    between atoms: C_17  and  C_18
REMARK    6  A    between atoms: C_28  and  O_29
REMARK    7  A    between atoms: C_30  and  O_31
REMARK                            x       y       z     vdW  Elec       q    Type
REMARK                         _______ _______ _______ _____ _____    ______ ____
ROOT
ATOM      1  N   UNL     1      -3.068  12.631  21.088  0.00  0.00    +0.000 N 
ATOM      2  C   UNL     1      -3.595  12.332  19.853  0.00  0.00    +0.000 A 
ATOM      3  C   UNL     1      -2.654  11.623  19.132  0.00  0.00    +0.000 A 
ATOM      4  C   UNL     1      -1.478  11.531  19.950  0.00  0.00    +0.000 A 
ATOM      5  C   UNL     1      -0.204  10.922  19.854  0.00  0.00    +0.000 A 
ATOM      6  N   UNL     1       0.123  10.028  18.852  0.00  0.00    +0.000 N 
ATOM      7  N   UNL     1       0.684  11.141  20.851  0.00  0.00    +0.000 NA
ATOM      8  C   UNL     1       0.280  11.829  21.933  0.00  0.00    +0.000 A 
ATOM      9  N   UNL     1      -0.923  12.374  22.171  0.00  0.00    +0.000 NA
ATOM     10  C   UNL     1      -1.762  12.208  21.135  0.00  0.00    +0.000 A 
ATOM     11  H   UNL     1      -0.618   9.835  18.192  0.00  0.00    +0.000 HD
ENDROOT
BRANCH   1  15
ATOM     12  C   UNL     1      -7.087  12.621  21.705  0.00  0.00    +0.000 C 
ATOM     13  C   UNL     1      -6.101  13.032  22.786  0.00  0.00    +0.000 C 
ATOM     14  O   UNL     1      -4.873  12.300  22.597  0.00  0.00    +0.000 OA
ATOM     15  C   UNL     1      -3.856  13.224  22.157  0.00  0.00    +0.000 C 
ATOM     16  C   UNL     1      -4.522  14.562  21.832  0.00  0.00    +0.000 C 
ATOM     17  C   UNL     1      -5.736  14.516  22.749  0.00  0.00    +0.000 C 
BRANCH  16  18
ATOM     18  O   UNL     1      -3.687  15.684  22.139  0.00  0.00    +0.000 OA
ATOM     19  H   UNL     1      -4.289  16.456  22.208  0.00  0.00    +0.000 HD
ENDBRANCH  16  18
BRANCH  17  20
ATOM     20  O   UNL     1      -5.326  14.987  24.051  0.00  0.00    +0.000 OA
ATOM     21  H   UNL     1      -6.004  14.730  24.704  0.00  0.00    +0.000 HD
ENDBRANCH  17  20
ENDBRANCH   1  15
BRANCH   3  22
ATOM     22  C   UNL     1      -2.949  11.101  17.808  0.00  0.00    +0.000 A 
ATOM     23  C   UNL     1      -4.035  11.579  17.067  0.00  0.00    +0.000 A 
ATOM     24  C   UNL     1      -4.230  11.160  15.750  0.00  0.00    +0.000 A 
ATOM     25  C   UNL     1      -3.382  10.208  15.188  0.00  0.00    +0.000 A 
ATOM     26  C   UNL     1      -2.338   9.674  15.940  0.00  0.00    +0.000 A 
ATOM     27  C   UNL     1      -2.116  10.127  17.240  0.00  0.00    +0.000 A 
ENDBRANCH   3  22
BRANCH   6  28
ATOM     28  C   UNL     1       1.453  10.039  18.276  0.00  0.00    +0.000 C 
BRANCH  28  29
ATOM     29  C   UNL     1       2.070   8.674  18.514  0.00  0.00    +0.000 A 
ATOM     30  C   UNL     1       2.905   8.061  17.566  0.00  0.00    +0.000 A 
ATOM     31  C   UNL     1       3.429   6.789  17.812  0.00  0.00    +0.000 A 
ATOM     32  C   UNL     1       3.128   6.118  18.997  0.00  0.00    +0.000 A 
ATOM     33  C   UNL     1       2.305   6.719  19.944  0.00  0.00    +0.000 A 
ATOM     34  C   UNL     1       1.784   7.990  19.708  0.00  0.00    +0.000 A 
ENDBRANCH  28  29
ENDBRANCH   6  28
TORSDOF 6
ENDMDL
MODEL 8
REMARK VINA RESULT:      -6.1      6.907     10.038
REMARK  Name = 
REMARK  7 active torsions:
REMARK  status: ('A' for Active; 'I' for Inactive)
REMARK    1  A    between atoms: C_1  and  C_2
REMARK    2  A    between atoms: C_4  and  N_5
REMARK    3  A    between atoms: C_7  and  C_8
REMARK    4  A    between atoms: N_16  and  C_17
REMARK    5  A    between atoms: C_17  and  C_18
REMARK    6  A    between atoms: C_28  and  O_29
REMARK    7  A    between atoms: C_30  and  O_31
REMARK                            x       y       z     vdW  Elec       q    Type
REMARK                         _______ _______ _______ _____ _____    ______ ____
ROOT
ATOM      1  N   UNL     1       5.399  16.262  20.575  0.00  0.00    +0.000 N 
ATOM      2  C   UNL     1       5.503  15.389  21.633  0.00  0.00    +0.000 A 
ATOM      3  C   UNL     1       6.803  14.931  21.700  0.00  0.00    +0.000 A 
ATOM      4  C   UNL     1       7.514  15.513  20.597  0.00  0.00    +0.000 A 
ATOM      5  C   UNL     1       8.843  15.508  20.112  0.00  0.00    +0.000 A 
ATOM      6  N   UNL     1       9.898  14.979  20.832  0.00  0.00    +0.000 N 
ATOM      7  N   UNL     1       9.101  16.152  18.951  0.00  0.00    +0.000 NA
ATOM      8  C   UNL     1       8.113  16.856  18.373  0.00  0.00    +0.000 A 
ATOM      9  N   UNL     1       6.845  17.004  18.785  0.00  0.00    +0.000 NA
ATOM     10  C   UNL     1       6.594  16.294  19.898  0.00  0.00    +0.000 A 
ATOM     11  H   UNL     1       9.652  14.598  21.735  0.00  0.00    +0.000 HD
ENDROOT
BRANCH   1  15
ATOM     12  C   UNL     1       1.527  15.589  21.616  0.00  0.00    +0.000 C 
ATOM     13  C   UNL     1       2.010  16.941  21.119  0.00  0.00    +0.000 C 
ATOM     14  O   UNL     1       3.388  17.114  21.509  0.00  0.00    +0.000 OA
ATOM     15  C   UNL     1       4.207  17.056  20.323  0.00  0.00    +0.000 C 
ATOM     16  C   UNL     1       3.335  16.598  19.152  0.00  0.00    +0.000 C 
ATOM     17  C   UNL     1       1.964  17.087  19.599  0.00  0.00    +0.000 C 
BRANCH  16  18
ATOM     18  O   UNL     1       3.717  17.201  17.911  0.00  0.00    +0.000 OA
ATOM     19  H   UNL     1       3.094  16.850  17.239  0.00  0.00    +0.000 HD
ENDBRANCH  16  18
BRANCH  17  20
ATOM     20  O   UNL     1       1.838  18.470  19.208  0.00  0.00    +0.000 OA
ATOM     21  H   UNL     1       2.547  18.983  19.641  0.00  0.00    +0.000 HD
ENDBRANCH  17  20
ENDBRANCH   1  15
BRANCH   3  22
ATOM     22  C   UNL     1       7.241  14.045  22.767  0.00  0.00    +0.000 A 
ATOM     23  C   UNL     1       6.993  12.669  22.712  0.00  0.00    +0.000 A 
ATOM     24  C   UNL     1       7.528  11.816  23.679  0.00  0.00    +0.000 A 
ATOM     25  C   UNL     1       8.256  12.340  24.745  0.00  0.00    +0.000 A 
ATOM     26  C   UNL     1       8.450  13.716  24.847  0.00  0.00    +0.000 A 
ATOM     27  C   UNL     1       7.954  14.563  23.857  0.00  0.00    +0.000 A 
ENDBRANCH   3  22
BRANCH   6  28
ATOM     28  C   UNL     1      10.957  14.264  20.147  0.00  0.00    +0.000 C 
BRANCH  28  29
ATOM     29  C   UNL     1      10.425  12.892  19.780  0.00  0.00    +0.000 A 
ATOM     30  C   UNL     1       9.988  11.980  20.754  0.00  0.00    +0.000 A 
ATOM     31  C   UNL     1       9.533  10.714  20.377  0.00  0.00    +0.000 A 
ATOM     32  C   UNL     1       9.508  10.345  19.032  0.00  0.00    +0.000 A 
ATOM     33  C   UNL     1       9.934  11.244  18.059  0.00  0.00    +0.000 A 
ATOM     34  C   UNL     1      10.384  12.510  18.428  0.00  0.00    +0.000 A 
ENDBRANCH  28  29
ENDBRANCH   6  28
TORSDOF 6
ENDMDL
MODEL 9
REMARK VINA RESULT:      -6.1      3.447      5.654
REMARK  Name = 
REMARK  7 active torsions:
REMARK  status: ('A' for Active; 'I' for Inactive)
REMARK    1  A    between atoms: C_1  and  C_2
REMARK    2  A    between atoms: C_4  and  N_5
REMARK    3  A    between atoms: C_7  and  C_8
REMARK    4  A    between atoms: N_16  and  C_17
REMARK    5  A    between atoms: C_17  and  C_18
REMARK    6  A    between atoms: C_28  and  O_29
REMARK    7  A    between atoms: C_30  and  O_31
REMARK                            x       y       z     vdW  Elec       q    Type
REMARK                         _______ _______ _______ _____ _____    ______ ____
ROOT
ATOM      1  N   UNL     1      -1.972  15.231  23.684  0.00  0.00    +0.000 N 
ATOM      2  C   UNL     1      -1.212  14.085  23.677  0.00  0.00    +0.000 A 
ATOM      3  C   UNL     1      -1.594  13.310  22.600  0.00  0.00    +0.000 A 
ATOM      4  C   UNL     1      -2.675  13.994  21.949  0.00  0.00    +0.000 A 
ATOM      5  C   UNL     1      -3.474  13.794  20.799  0.00  0.00    +0.000 A 
ATOM      6  N   UNL     1      -3.198  12.821  19.857  0.00  0.00    +0.000 N 
ATOM      7  N   UNL     1      -4.478  14.670  20.560  0.00  0.00    +0.000 NA
ATOM      8  C   UNL     1      -4.598  15.744  21.359  0.00  0.00    +0.000 A 
ATOM      9  N   UNL     1      -3.848  16.081  22.419  0.00  0.00    +0.000 NA
ATOM     10  C   UNL     1      -2.908  15.158  22.680  0.00  0.00    +0.000 A 
ATOM     11  H   UNL     1      -2.377  12.262  20.047  0.00  0.00    +0.000 HD
ENDROOT
BRANCH   1  15
ATOM     12  C   UNL     1       1.045  17.957  23.694  0.00  0.00    +0.000 C 
ATOM     13  C   UNL     1      -0.215  18.139  24.522  0.00  0.00    +0.000 C 
ATOM     14  O   UNL     1      -1.317  17.510  23.836  0.00  0.00    +0.000 OA
ATOM     15  C   UNL     1      -1.712  16.343  24.586  0.00  0.00    +0.000 C 
ATOM     16  C   UNL     1      -0.669  16.088  25.675  0.00  0.00    +0.000 C 
ATOM     17  C   UNL     1      -0.137  17.495  25.906  0.00  0.00    +0.000 C 
BRANCH  16  18
ATOM     18  O   UNL     1      -1.242  15.552  26.873  0.00  0.00    +0.000 OA
ATOM     19  H   UNL     1      -1.859  16.238  27.207  0.00  0.00    +0.000 HD
ENDBRANCH  16  18
BRANCH  17  20
ATOM     20  O   UNL     1      -1.016  18.154  26.842  0.00  0.00    +0.000 OA
ATOM     21  H   UNL     1      -1.683  18.660  26.340  0.00  0.00    +0.000 HD
ENDBRANCH  17  20
ENDBRANCH   1  15
BRANCH   3  22
ATOM     22  C   UNL     1      -0.916  12.062  22.285  0.00  0.00    +0.000 A 
ATOM     23  C   UNL     1      -1.117  10.915  23.059  0.00  0.00    +0.000 A 
ATOM     24  C   UNL     1      -0.559   9.695  22.672  0.00  0.00    +0.000 A 
ATOM     25  C   UNL     1       0.259   9.630  21.546  0.00  0.00    +0.000 A 
ATOM     26  C   UNL     1       0.522  10.780  20.807  0.00  0.00    +0.000 A 
ATOM     27  C   UNL     1      -0.072  11.989  21.169  0.00  0.00    +0.000 A 
ENDBRANCH   3  22
BRANCH   6  28
ATOM     28  C   UNL     1      -4.282  12.099  19.221  0.00  0.00    +0.000 C 
BRANCH  28  29
ATOM     29  C   UNL     1      -3.709  11.372  18.020  0.00  0.00    +0.000 A 
ATOM     30  C   UNL     1      -4.359  11.366  16.775  0.00  0.00    +0.000 A 
ATOM     31  C   UNL     1      -3.813  10.659  15.701  0.00  0.00    +0.000 A 
ATOM     32  C   UNL     1      -2.620   9.952  15.855  0.00  0.00    +0.000 A 
ATOM     33  C   UNL     1      -1.966   9.956  17.083  0.00  0.00    +0.000 A 
ATOM     34  C   UNL     1      -2.502  10.664  18.156  0.00  0.00    +0.000 A 
ENDBRANCH  28  29
ENDBRANCH   6  28
TORSDOF 6
ENDMDL
