MODEL 1
REMARK VINA RESULT:      -7.7      0.000      0.000
REMARK  Name = 
REMARK  6 active torsions:
REMARK  status: ('A' for Active; 'I' for Inactive)
REMARK    1  A    between atoms: C_2  and  N_3
REMARK    2  A    between atoms: C_4  and  C_6
REMARK    3  A    between atoms: C_6  and  C_7
REMARK    4  A    between atoms: C_6  and  N_14
REMARK    5  A    between atoms: C_7  and  C_8
REMARK    6  A    between atoms: C_15  and  C_17
REMARK                            x       y       z     vdW  Elec       q    Type
REMARK                         _______ _______ _______ _____ _____    ______ ____
ROOT
ATOM      1  C   UNL     1       5.505   4.175  16.736  0.00  0.00    +0.000 C 
ENDROOT
BRANCH   1   3
ATOM      2  N   UNL     1       6.560   4.914  18.828  0.00  0.00    +0.000 N 
ATOM      3  C   UNL     1       6.785   4.495  17.538  0.00  0.00    +0.000 C 
ATOM      4  O   UNL     1       7.914   4.330  17.079  0.00  0.00    +0.000 OA
ATOM      5  H   UNL     1       5.598   5.006  19.140  0.00  0.00    +0.000 HD
BRANCH   2   7
ATOM      6  N   UNL     1       8.220   5.540  20.586  0.00  0.00    +0.000 NA
ATOM      7  C   UNL     1       7.454   5.224  19.784  0.00  0.00    +0.000 C 
ENDBRANCH   2   7
ENDBRANCH   1   3
BRANCH   1   8
ATOM      8  N   UNL     1       4.355   4.210  17.639  0.00  0.00    +0.000 N 
ATOM      9  C   UNL     1       3.608   3.099  17.947  0.00  0.00    +0.000 C 
ATOM     10  O   UNL     1       3.899   1.985  17.522  0.00  0.00    +0.000 OA
ATOM     11  H   UNL     1       4.133   5.077  18.121  0.00  0.00    +0.000 HD
BRANCH   9  12
ATOM     12  C   UNL     1       2.353   3.380  18.776  0.00  0.00    +0.000 C 
ATOM     13  C   UNL     1       2.376   4.783  19.364  0.00  0.00    +0.000 C 
ATOM     14  C   UNL     1       1.596   4.650  20.667  0.00  0.00    +0.000 C 
ATOM     15  C   UNL     1       1.826   3.213  21.053  0.00  0.00    +0.000 C 
ATOM     16  O   UNL     1       1.592   2.698  22.130  0.00  0.00    +0.000 OA
ATOM     17  N   UNL     1       2.298   2.538  19.949  0.00  0.00    +0.000 N 
ATOM     18  H   UNL     1       2.330   1.525  19.957  0.00  0.00    +0.000 HD
ENDBRANCH   9  12
ENDBRANCH   1   8
BRANCH   1  19
ATOM     19  C   UNL     1       5.346   5.170  15.569  0.00  0.00    +0.000 C 
BRANCH  19  20
ATOM     20  C   UNL     1       5.911   4.713  14.240  0.00  0.00    +0.000 A 
ATOM     21  C   UNL     1       7.146   5.197  13.783  0.00  0.00    +0.000 A 
ATOM     22  C   UNL     1       7.699   4.728  12.588  0.00  0.00    +0.000 A 
ATOM     23  C   UNL     1       7.023   3.771  11.835  0.00  0.00    +0.000 A 
ATOM     24  C   UNL     1       5.798   3.279  12.280  0.00  0.00    +0.000 A 
ATOM     25  C   UNL     1       5.247   3.742  13.477  0.00  0.00    +0.000 A 
ENDBRANCH  19  20
ENDBRANCH   1  19
TORSDOF 6
ENDMDL
MODEL 2
REMARK VINA RESULT:      -7.6      1.142      1.536
REMARK  Name = 
REMARK  6 active torsions:
REMARK  status: ('A' for Active; 'I' for Inactive)
REMARK    1  A    between atoms: C_2  and  N_3
REMARK    2  A    between atoms: C_4  and  C_6
REMARK    3  A    between atoms: C_6  and  C_7
REMARK    4  A    between atoms: C_6  and  N_14
REMARK    5  A    between atoms: C_7  and  C_8
REMARK    6  A    between atoms: C_15  and  C_17
REMARK                            x       y       z     vdW  Elec       q    Type
REMARK                         _______ _______ _______ _____ _____    ______ ____
ROOT
ATOM      1  C   UNL     1       5.639   4.468  16.943  0.00  0.00    +0.000 C 
ENDROOT
BRANCH   1   3
ATOM      2  N   UNL     1       6.858   6.537  17.462  0.00  0.00    +0.000 N 
ATOM      3  C   UNL     1       6.856   5.168  17.584  0.00  0.00    +0.000 C 
ATOM      4  O   UNL     1       7.723   4.555  18.206  0.00  0.00    +0.000 OA
ATOM      5  H   UNL     1       6.095   6.972  16.951  0.00  0.00    +0.000 HD
BRANCH   2   7
ATOM      6  N   UNL     1       8.462   8.213  18.386  0.00  0.00    +0.000 NA
ATOM      7  C   UNL     1       7.742   7.428  17.943  0.00  0.00    +0.000 C 
ENDBRANCH   2   7
ENDBRANCH   1   3
BRANCH   1   8
ATOM      8  N   UNL     1       4.541   4.442  17.909  0.00  0.00    +0.000 N 
ATOM      9  C   UNL     1       3.696   3.369  18.056  0.00  0.00    +0.000 C 
ATOM     10  O   UNL     1       3.849   2.332  17.417  0.00  0.00    +0.000 OA
ATOM     11  H   UNL     1       4.433   5.220  18.554  0.00  0.00    +0.000 HD
BRANCH   9  12
ATOM     12  C   UNL     1       2.516   3.606  19.001  0.00  0.00    +0.000 C 
ATOM     13  C   UNL     1       2.726   4.850  19.852  0.00  0.00    +0.000 C 
ATOM     14  C   UNL     1       1.988   4.537  21.149  0.00  0.00    +0.000 C 
ATOM     15  C   UNL     1       2.065   3.036  21.228  0.00  0.00    +0.000 C 
ATOM     16  O   UNL     1       1.815   2.340  22.195  0.00  0.00    +0.000 OA
ATOM     17  N   UNL     1       2.410   2.553  19.985  0.00  0.00    +0.000 N 
ATOM     18  H   UNL     1       2.325   1.563  19.790  0.00  0.00    +0.000 HD
ENDBRANCH   9  12
ENDBRANCH   1   8
BRANCH   1  19
ATOM     19  C   UNL     1       5.237   5.189  15.640  0.00  0.00    +0.000 C 
BRANCH  19  20
ATOM     20  C   UNL     1       5.916   4.689  14.382  0.00  0.00    +0.000 A 
ATOM     21  C   UNL     1       5.289   3.740  13.560  0.00  0.00    +0.000 A 
ATOM     22  C   UNL     1       5.886   3.325  12.366  0.00  0.00    +0.000 A 
ATOM     23  C   UNL     1       7.116   3.852  11.981  0.00  0.00    +0.000 A 
ATOM     24  C   UNL     1       7.747   4.797  12.786  0.00  0.00    +0.000 A 
ATOM     25  C   UNL     1       7.149   5.218  13.976  0.00  0.00    +0.000 A 
ENDBRANCH  19  20
ENDBRANCH   1  19
TORSDOF 6
ENDMDL
MODEL 3
REMARK VINA RESULT:      -7.5      1.442      1.772
REMARK  Name = 
REMARK  6 active torsions:
REMARK  status: ('A' for Active; 'I' for Inactive)
REMARK    1  A    between atoms: C_2  and  N_3
REMARK    2  A    between atoms: C_4  and  C_6
REMARK    3  A    between atoms: C_6  and  C_7
REMARK    4  A    between atoms: C_6  and  N_14
REMARK    5  A    between atoms: C_7  and  C_8
REMARK    6  A    between atoms: C_15  and  C_17
REMARK                            x       y       z     vdW  Elec       q    Type
REMARK                         _______ _______ _______ _____ _____    ______ ____
ROOT
ATOM      1  C   UNL     1       5.852   3.936  16.666  0.00  0.00    +0.000 C 
ENDROOT
BRANCH   1   3
ATOM      2  N   UNL     1       6.965   6.066  17.174  0.00  0.00    +0.000 N 
ATOM      3  C   UNL     1       6.702   4.795  17.626  0.00  0.00    +0.000 C 
ATOM      4  O   UNL     1       7.063   4.394  18.731  0.00  0.00    +0.000 OA
ATOM      5  H   UNL     1       6.614   6.329  16.258  0.00  0.00    +0.000 HD
BRANCH   2   7
ATOM      6  N   UNL     1       8.161   7.922  18.341  0.00  0.00    +0.000 NA
ATOM      7  C   UNL     1       7.632   7.060  17.787  0.00  0.00    +0.000 C 
ENDBRANCH   2   7
ENDBRANCH   1   3
BRANCH   1   8
ATOM      8  N   UNL     1       4.724   3.369  17.405  0.00  0.00    +0.000 N 
ATOM      9  C   UNL     1       3.795   4.137  18.062  0.00  0.00    +0.000 C 
ATOM     10  O   UNL     1       3.824   5.364  18.022  0.00  0.00    +0.000 OA
ATOM     11  H   UNL     1       4.572   2.364  17.378  0.00  0.00    +0.000 HD
BRANCH   9  12
ATOM     12  C   UNL     1       2.794   3.348  18.909  0.00  0.00    +0.000 C 
ATOM     13  C   UNL     1       1.480   4.100  19.060  0.00  0.00    +0.000 C 
ATOM     14  C   UNL     1       0.960   3.661  20.425  0.00  0.00    +0.000 C 
ATOM     15  C   UNL     1       2.222   3.343  21.182  0.00  0.00    +0.000 C 
ATOM     16  O   UNL     1       2.333   3.168  22.381  0.00  0.00    +0.000 OA
ATOM     17  N   UNL     1       3.250   3.215  20.274  0.00  0.00    +0.000 N 
ATOM     18  H   UNL     1       4.133   2.815  20.570  0.00  0.00    +0.000 HD
ENDBRANCH   9  12
ENDBRANCH   1   8
BRANCH   1  19
ATOM     19  C   UNL     1       5.380   4.787  15.469  0.00  0.00    +0.000 C 
BRANCH  19  20
ATOM     20  C   UNL     1       5.968   4.405  14.126  0.00  0.00    +0.000 A 
ATOM     21  C   UNL     1       5.295   3.512  13.278  0.00  0.00    +0.000 A 
ATOM     22  C   UNL     1       5.806   3.209  12.012  0.00  0.00    +0.000 A 
ATOM     23  C   UNL     1       6.994   3.792  11.580  0.00  0.00    +0.000 A 
ATOM     24  C   UNL     1       7.669   4.682  12.411  0.00  0.00    +0.000 A 
ATOM     25  C   UNL     1       7.159   4.992  13.673  0.00  0.00    +0.000 A 
ENDBRANCH  19  20
ENDBRANCH   1  19
TORSDOF 6
ENDMDL
MODEL 4
REMARK VINA RESULT:      -7.5      1.403      1.809
REMARK  Name = 
REMARK  6 active torsions:
REMARK  status: ('A' for Active; 'I' for Inactive)
REMARK    1  A    between atoms: C_2  and  N_3
REMARK    2  A    between atoms: C_4  and  C_6
REMARK    3  A    between atoms: C_6  and  C_7
REMARK    4  A    between atoms: C_6  and  N_14
REMARK    5  A    between atoms: C_7  and  C_8
REMARK    6  A    between atoms: C_15  and  C_17
REMARK                            x       y       z     vdW  Elec       q    Type
REMARK                         _______ _______ _______ _____ _____    ______ ____
ROOT
ATOM      1  C   UNL     1       5.846   3.910  17.043  0.00  0.00    +0.000 C 
ENDROOT
BRANCH   1   3
ATOM      2  N   UNL     1       6.849   6.045  17.733  0.00  0.00    +0.000 N 
ATOM      3  C   UNL     1       7.101   4.735  17.400  0.00  0.00    +0.000 C 
ATOM      4  O   UNL     1       8.228   4.243  17.443  0.00  0.00    +0.000 OA
ATOM      5  H   UNL     1       5.887   6.370  17.692  0.00  0.00    +0.000 HD
BRANCH   2   7
ATOM      6  N   UNL     1       8.418   7.851  18.447  0.00  0.00    +0.000 NA
ATOM      7  C   UNL     1       7.710   6.998  18.129  0.00  0.00    +0.000 C 
ENDBRANCH   2   7
ENDBRANCH   1   3
BRANCH   1   8
ATOM      8  N   UNL     1       4.967   3.850  18.210  0.00  0.00    +0.000 N 
ATOM      9  C   UNL     1       3.991   2.896  18.366  0.00  0.00    +0.000 C 
ATOM     10  O   UNL     1       3.834   1.991  17.551  0.00  0.00    +0.000 OA
ATOM     11  H   UNL     1       5.123   4.496  18.980  0.00  0.00    +0.000 HD
BRANCH   9  12
ATOM     12  C   UNL     1       3.075   3.107  19.574  0.00  0.00    +0.000 C 
ATOM     13  C   UNL     1       1.619   2.848  19.219  0.00  0.00    +0.000 C 
ATOM     14  C   UNL     1       0.843   3.782  20.142  0.00  0.00    +0.000 C 
ATOM     15  C   UNL     1       1.811   4.912  20.370  0.00  0.00    +0.000 C 
ATOM     16  O   UNL     1       1.564   6.000  20.856  0.00  0.00    +0.000 OA
ATOM     17  N   UNL     1       3.066   4.491  19.991  0.00  0.00    +0.000 N 
ATOM     18  H   UNL     1       3.878   5.040  20.247  0.00  0.00    +0.000 HD
ENDBRANCH   9  12
ENDBRANCH   1   8
BRANCH   1  19
ATOM     19  C   UNL     1       5.134   4.529  15.822  0.00  0.00    +0.000 C 
BRANCH  19  20
ATOM     20  C   UNL     1       5.835   4.340  14.493  0.00  0.00    +0.000 A 
ATOM     21  C   UNL     1       5.294   3.495  13.513  0.00  0.00    +0.000 A 
ATOM     22  C   UNL     1       5.907   3.369  12.262  0.00  0.00    +0.000 A 
ATOM     23  C   UNL     1       7.067   4.085  11.978  0.00  0.00    +0.000 A 
ATOM     24  C   UNL     1       7.612   4.929  12.942  0.00  0.00    +0.000 A 
ATOM     25  C   UNL     1       6.999   5.062  14.189  0.00  0.00    +0.000 A 
ENDBRANCH  19  20
ENDBRANCH   1  19
TORSDOF 6
ENDMDL
MODEL 5
REMARK VINA RESULT:      -7.4      3.630      7.244
REMARK  Name = 
REMARK  6 active torsions:
REMARK  status: ('A' for Active; 'I' for Inactive)
REMARK    1  A    between atoms: C_2  and  N_3
REMARK    2  A    between atoms: C_4  and  C_6
REMARK    3  A    between atoms: C_6  and  C_7
REMARK    4  A    between atoms: C_6  and  N_14
REMARK    5  A    between atoms: C_7  and  C_8
REMARK    6  A    between atoms: C_15  and  C_17
REMARK                            x       y       z     vdW  Elec       q    Type
REMARK                         _______ _______ _______ _____ _____    ______ ____
ROOT
ATOM      1  C   UNL     1       2.577   6.965  18.419  0.00  0.00    +0.000 C 
ENDROOT
BRANCH   1   3
ATOM      2  N   UNL     1       1.385   8.911  19.330  0.00  0.00    +0.000 N 
ATOM      3  C   UNL     1       2.019   8.391  18.226  0.00  0.00    +0.000 C 
ATOM      4  O   UNL     1       2.184   9.034  17.191  0.00  0.00    +0.000 OA
ATOM      5  H   UNL     1       1.307   8.324  20.156  0.00  0.00    +0.000 HD
BRANCH   2   7
ATOM      6  N   UNL     1       0.359  11.159  19.689  0.00  0.00    +0.000 NA
ATOM      7  C   UNL     1       0.837  10.127  19.496  0.00  0.00    +0.000 C 
ENDBRANCH   2   7
ENDBRANCH   1   3
BRANCH   1   8
ATOM      8  N   UNL     1       4.003   6.962  18.093  0.00  0.00    +0.000 N 
ATOM      9  C   UNL     1       4.611   5.948  17.394  0.00  0.00    +0.000 C 
ATOM     10  O   UNL     1       3.975   4.998  16.947  0.00  0.00    +0.000 OA
ATOM     11  H   UNL     1       4.564   7.777  18.328  0.00  0.00    +0.000 HD
BRANCH   9  12
ATOM     12  C   UNL     1       6.135   6.057  17.303  0.00  0.00    +0.000 C 
ATOM     13  C   UNL     1       6.798   5.706  18.626  0.00  0.00    +0.000 C 
ATOM     14  C   UNL     1       8.066   6.553  18.638  0.00  0.00    +0.000 C 
ATOM     15  C   UNL     1       7.687   7.742  17.796  0.00  0.00    +0.000 C 
ATOM     16  O   UNL     1       8.290   8.794  17.701  0.00  0.00    +0.000 OA
ATOM     17  N   UNL     1       6.552   7.423  17.082  0.00  0.00    +0.000 N 
ATOM     18  H   UNL     1       6.255   8.020  16.320  0.00  0.00    +0.000 HD
ENDBRANCH   9  12
ENDBRANCH   1   8
BRANCH   1  19
ATOM     19  C   UNL     1       2.320   6.485  19.862  0.00  0.00    +0.000 C 
BRANCH  19  20
ATOM     20  C   UNL     1       1.930   5.028  20.005  0.00  0.00    +0.000 A 
ATOM     21  C   UNL     1       1.450   4.305  18.902  0.00  0.00    +0.000 A 
ATOM     22  C   UNL     1       1.150   2.944  19.017  0.00  0.00    +0.000 A 
ATOM     23  C   UNL     1       1.326   2.291  20.235  0.00  0.00    +0.000 A 
ATOM     24  C   UNL     1       1.805   2.997  21.335  0.00  0.00    +0.000 A 
ATOM     25  C   UNL     1       2.111   4.355  21.221  0.00  0.00    +0.000 A 
ENDBRANCH  19  20
ENDBRANCH   1  19
TORSDOF 6
ENDMDL
MODEL 6
REMARK VINA RESULT:      -7.4      1.440      1.539
REMARK  Name = 
REMARK  6 active torsions:
REMARK  status: ('A' for Active; 'I' for Inactive)
REMARK    1  A    between atoms: C_2  and  N_3
REMARK    2  A    between atoms: C_4  and  C_6
REMARK    3  A    between atoms: C_6  and  C_7
REMARK    4  A    between atoms: C_6  and  N_14
REMARK    5  A    between atoms: C_7  and  C_8
REMARK    6  A    between atoms: C_15  and  C_17
REMARK                            x       y       z     vdW  Elec       q    Type
REMARK                         _______ _______ _______ _____ _____    ______ ____
ROOT
ATOM      1  C   UNL     1       5.797   4.008  16.974  0.00  0.00    +0.000 C 
ENDROOT
BRANCH   1   3
ATOM      2  N   UNL     1       6.780   6.182  17.563  0.00  0.00    +0.000 N 
ATOM      3  C   UNL     1       7.041   4.854  17.319  0.00  0.00    +0.000 C 
ATOM      4  O   UNL     1       8.165   4.367  17.427  0.00  0.00    +0.000 OA
ATOM      5  H   UNL     1       5.821   6.503  17.473  0.00  0.00    +0.000 HD
BRANCH   2   7
ATOM      6  N   UNL     1       8.318   8.027  18.246  0.00  0.00    +0.000 NA
ATOM      7  C   UNL     1       7.630   7.158  17.927  0.00  0.00    +0.000 C 
ENDBRANCH   2   7
ENDBRANCH   1   3
BRANCH   1   8
ATOM      8  N   UNL     1       4.933   3.928  18.152  0.00  0.00    +0.000 N 
ATOM      9  C   UNL     1       3.988   2.947  18.324  0.00  0.00    +0.000 C 
ATOM     10  O   UNL     1       3.848   2.033  17.516  0.00  0.00    +0.000 OA
ATOM     11  H   UNL     1       5.079   4.582  18.916  0.00  0.00    +0.000 HD
BRANCH   9  12
ATOM     12  C   UNL     1       3.080   3.137  19.541  0.00  0.00    +0.000 C 
ATOM     13  C   UNL     1       1.621   2.884  19.191  0.00  0.00    +0.000 C 
ATOM     14  C   UNL     1       0.852   3.802  20.135  0.00  0.00    +0.000 C 
ATOM     15  C   UNL     1       1.821   4.928  20.377  0.00  0.00    +0.000 C 
ATOM     16  O   UNL     1       1.578   6.007  20.883  0.00  0.00    +0.000 OA
ATOM     17  N   UNL     1       3.074   4.513  19.982  0.00  0.00    +0.000 N 
ATOM     18  H   UNL     1       3.887   5.058  20.243  0.00  0.00    +0.000 HD
ENDBRANCH   9  12
ENDBRANCH   1   8
BRANCH   1  19
ATOM     19  C   UNL     1       5.059   4.618  15.765  0.00  0.00    +0.000 C 
BRANCH  19  20
ATOM     20  C   UNL     1       5.737   4.428  14.424  0.00  0.00    +0.000 A 
ATOM     21  C   UNL     1       6.956   5.065  14.142  0.00  0.00    +0.000 A 
ATOM     22  C   UNL     1       7.614   4.840  12.929  0.00  0.00    +0.000 A 
ATOM     23  C   UNL     1       7.062   3.979  11.985  0.00  0.00    +0.000 A 
ATOM     24  C   UNL     1       5.855   3.338  12.254  0.00  0.00    +0.000 A 
ATOM     25  C   UNL     1       5.199   3.556  13.467  0.00  0.00    +0.000 A 
ENDBRANCH  19  20
ENDBRANCH   1  19
TORSDOF 6
ENDMDL
MODEL 7
REMARK VINA RESULT:      -7.4      2.572      6.539
REMARK  Name = 
REMARK  6 active torsions:
REMARK  status: ('A' for Active; 'I' for Inactive)
REMARK    1  A    between atoms: C_2  and  N_3
REMARK    2  A    between atoms: C_4  and  C_6
REMARK    3  A    between atoms: C_6  and  C_7
REMARK    4  A    between atoms: C_6  and  N_14
REMARK    5  A    between atoms: C_7  and  C_8
REMARK    6  A    between atoms: C_15  and  C_17
REMARK                            x       y       z     vdW  Elec       q    Type
REMARK                         _______ _______ _______ _____ _____    ______ ____
ROOT
ATOM      1  C   UNL     1       5.685   4.817  17.920  0.00  0.00    +0.000 C 
ENDROOT
BRANCH   1   3
ATOM      2  N   UNL     1       7.113   6.816  17.898  0.00  0.00    +0.000 N 
ATOM      3  C   UNL     1       6.705   5.729  18.634  0.00  0.00    +0.000 C 
ATOM      4  O   UNL     1       7.075   5.533  19.791  0.00  0.00    +0.000 OA
ATOM      5  H   UNL     1       6.746   6.920  16.957  0.00  0.00    +0.000 HD
BRANCH   2   7
ATOM      6  N   UNL     1       8.667   8.676  18.499  0.00  0.00    +0.000 NA
ATOM      7  C   UNL     1       7.949   7.809  18.249  0.00  0.00    +0.000 C 
ENDBRANCH   2   7
ENDBRANCH   1   3
BRANCH   1   8
ATOM      8  N   UNL     1       6.301   4.266  16.713  0.00  0.00    +0.000 N 
ATOM      9  C   UNL     1       6.231   4.881  15.487  0.00  0.00    +0.000 C 
ATOM     10  O   UNL     1       5.688   5.972  15.340  0.00  0.00    +0.000 OA
ATOM     11  H   UNL     1       6.870   3.427  16.789  0.00  0.00    +0.000 HD
BRANCH   9  12
ATOM     12  C   UNL     1       6.797   4.062  14.325  0.00  0.00    +0.000 C 
ATOM     13  C   UNL     1       7.305   4.959  13.207  0.00  0.00    +0.000 C 
ATOM     14  C   UNL     1       7.088   4.132  11.944  0.00  0.00    +0.000 C 
ATOM     15  C   UNL     1       5.915   3.262  12.307  0.00  0.00    +0.000 C 
ATOM     16  O   UNL     1       5.236   2.595  11.549  0.00  0.00    +0.000 OA
ATOM     17  N   UNL     1       5.764   3.287  13.676  0.00  0.00    +0.000 N 
ATOM     18  H   UNL     1       5.152   2.616  14.125  0.00  0.00    +0.000 HD
ENDBRANCH   9  12
ENDBRANCH   1   8
BRANCH   1  19
ATOM     19  C   UNL     1       5.207   3.705  18.876  0.00  0.00    +0.000 C 
BRANCH  19  20
ATOM     20  C   UNL     1       3.705   3.557  19.004  0.00  0.00    +0.000 A 
ATOM     21  C   UNL     1       3.133   3.061  20.186  0.00  0.00    +0.000 A 
ATOM     22  C   UNL     1       1.744   2.984  20.328  0.00  0.00    +0.000 A 
ATOM     23  C   UNL     1       0.912   3.398  19.291  0.00  0.00    +0.000 A 
ATOM     24  C   UNL     1       1.467   3.895  18.115  0.00  0.00    +0.000 A 
ATOM     25  C   UNL     1       2.854   3.980  17.972  0.00  0.00    +0.000 A 
ENDBRANCH  19  20
ENDBRANCH   1  19
TORSDOF 6
ENDMDL
MODEL 8
REMARK VINA RESULT:      -7.4      2.934      6.328
REMARK  Name = 
REMARK  6 active torsions:
REMARK  status: ('A' for Active; 'I' for Inactive)
REMARK    1  A    between atoms: C_2  and  N_3
REMARK    2  A    between atoms: C_4  and  C_6
REMARK    3  A    between atoms: C_6  and  C_7
REMARK    4  A    between atoms: C_6  and  N_14
REMARK    5  A    between atoms: C_7  and  C_8
REMARK    6  A    between atoms: C_15  and  C_17
REMARK                            x       y       z     vdW  Elec       q    Type
REMARK                         _______ _______ _______ _____ _____    ______ ____
ROOT
ATOM      1  C   UNL     1       5.976   5.660  17.771  0.00  0.00    +0.000 C 
ENDROOT
BRANCH   1   3
ATOM      2  N   UNL     1       7.196   7.791  17.682  0.00  0.00    +0.000 N 
ATOM      3  C   UNL     1       7.140   6.546  18.263  0.00  0.00    +0.000 C 
ATOM      4  O   UNL     1       7.917   6.190  19.148  0.00  0.00    +0.000 OA
ATOM      5  H   UNL     1       6.505   8.018  16.972  0.00  0.00    +0.000 HD
BRANCH   2   7
ATOM      6  N   UNL     1       8.824   9.629  18.140  0.00  0.00    +0.000 NA
ATOM      7  C   UNL     1       8.052   8.799  17.923  0.00  0.00    +0.000 C 
ENDBRANCH   2   7
ENDBRANCH   1   3
BRANCH   1   8
ATOM      8  N   UNL     1       6.432   4.862  16.633  0.00  0.00    +0.000 N 
ATOM      9  C   UNL     1       6.240   5.239  15.327  0.00  0.00    +0.000 C 
ATOM     10  O   UNL     1       5.717   6.310  15.032  0.00  0.00    +0.000 OA
ATOM     11  H   UNL     1       6.980   4.023  16.807  0.00  0.00    +0.000 HD
BRANCH   9  12
ATOM     12  C   UNL     1       6.644   4.188  14.290  0.00  0.00    +0.000 C 
ATOM     13  C   UNL     1       7.397   4.815  13.126  0.00  0.00    +0.000 C 
ATOM     14  C   UNL     1       7.043   3.927  11.938  0.00  0.00    +0.000 C 
ATOM     15  C   UNL     1       5.683   3.398  12.304  0.00  0.00    +0.000 C 
ATOM     16  O   UNL     1       4.897   2.828  11.570  0.00  0.00    +0.000 OA
ATOM     17  N   UNL     1       5.484   3.607  13.651  0.00  0.00    +0.000 N 
ATOM     18  H   UNL     1       4.712   3.150  14.121  0.00  0.00    +0.000 HD
ENDBRANCH   9  12
ENDBRANCH   1   8
BRANCH   1  19
ATOM     19  C   UNL     1       5.461   4.772  18.922  0.00  0.00    +0.000 C 
BRANCH  19  20
ATOM     20  C   UNL     1       4.108   4.131  18.695  0.00  0.00    +0.000 A 
ATOM     21  C   UNL     1       3.045   4.874  18.158  0.00  0.00    +0.000 A 
ATOM     22  C   UNL     1       1.814   4.267  17.890  0.00  0.00    +0.000 A 
ATOM     23  C   UNL     1       1.631   2.912  18.155  0.00  0.00    +0.000 A 
ATOM     24  C   UNL     1       2.679   2.163  18.685  0.00  0.00    +0.000 A 
ATOM     25  C   UNL     1       3.911   2.766  18.948  0.00  0.00    +0.000 A 
ENDBRANCH  19  20
ENDBRANCH   1  19
TORSDOF 6
ENDMDL
MODEL 9
REMARK VINA RESULT:      -7.4      1.176      1.176
REMARK  Name = 
REMARK  6 active torsions:
REMARK  status: ('A' for Active; 'I' for Inactive)
REMARK    1  A    between atoms: C_2  and  N_3
REMARK    2  A    between atoms: C_4  and  C_6
REMARK    3  A    between atoms: C_6  and  C_7
REMARK    4  A    between atoms: C_6  and  N_14
REMARK    5  A    between atoms: C_7  and  C_8
REMARK    6  A    between atoms: C_15  and  C_17
REMARK                            x       y       z     vdW  Elec       q    Type
REMARK                         _______ _______ _______ _____ _____    ______ ____
ROOT
ATOM      1  C   UNL     1       5.612   4.334  17.027  0.00  0.00    +0.000 C 
ENDROOT
BRANCH   1   3
ATOM      2  N   UNL     1       6.851   6.418  17.427  0.00  0.00    +0.000 N 
ATOM      3  C   UNL     1       6.743   5.088  17.759  0.00  0.00    +0.000 C 
ATOM      4  O   UNL     1       7.448   4.557  18.615  0.00  0.00    +0.000 OA
ATOM      5  H   UNL     1       6.217   6.787  16.724  0.00  0.00    +0.000 HD
BRANCH   2   7
ATOM      6  N   UNL     1       8.378   8.158  18.364  0.00  0.00    +0.000 NA
ATOM      7  C   UNL     1       7.694   7.345  17.914  0.00  0.00    +0.000 C 
ENDBRANCH   2   7
ENDBRANCH   1   3
BRANCH   1   8
ATOM      8  N   UNL     1       4.509   4.106  17.959  0.00  0.00    +0.000 N 
ATOM      9  C   UNL     1       3.718   2.984  17.926  0.00  0.00    +0.000 C 
ATOM     10  O   UNL     1       3.927   2.067  17.136  0.00  0.00    +0.000 OA
ATOM     11  H   UNL     1       4.357   4.769  18.716  0.00  0.00    +0.000 HD
BRANCH   9  12
ATOM     12  C   UNL     1       2.519   3.016  18.877  0.00  0.00    +0.000 C 
ATOM     13  C   UNL     1       1.994   4.431  19.064  0.00  0.00    +0.000 C 
ATOM     14  C   UNL     1       1.432   4.431  20.481  0.00  0.00    +0.000 C 
ATOM     15  C   UNL     1       2.267   3.389  21.176  0.00  0.00    +0.000 C 
ATOM     16  O   UNL     1       2.343   3.192  22.374  0.00  0.00    +0.000 OA
ATOM     17  N   UNL     1       2.901   2.632  20.217  0.00  0.00    +0.000 N 
ATOM     18  H   UNL     1       3.354   1.765  20.481  0.00  0.00    +0.000 HD
ENDBRANCH   9  12
ENDBRANCH   1   8
BRANCH   1  19
ATOM     19  C   UNL     1       5.158   5.132  15.788  0.00  0.00    +0.000 C 
BRANCH  19  20
ATOM     20  C   UNL     1       5.774   4.702  14.473  0.00  0.00    +0.000 A 
ATOM     21  C   UNL     1       7.060   5.131  14.111  0.00  0.00    +0.000 A 
ATOM     22  C   UNL     1       7.655   4.684  12.927  0.00  0.00    +0.000 A 
ATOM     23  C   UNL     1       6.971   3.804  12.092  0.00  0.00    +0.000 A 
ATOM     24  C   UNL     1       5.696   3.368  12.441  0.00  0.00    +0.000 A 
ATOM     25  C   UNL     1       5.102   3.808  13.626  0.00  0.00    +0.000 A 
ENDBRANCH  19  20
ENDBRANCH   1  19
TORSDOF 6
ENDMDL
