MODEL 1
REMARK VINA RESULT:      -9.1      0.000      0.000
REMARK  Name = 
REMARK  4 active torsions:
REMARK  status: ('A' for Active; 'I' for Inactive)
REMARK    1  A    between atoms: C_1  and  N_2
REMARK    2  A    between atoms: C_5  and  C_6
REMARK    3  A    between atoms: N_11  and  C_12
REMARK    4  A    between atoms: C_18  and  C_19
REMARK                            x       y       z     vdW  Elec       q    Type
REMARK                         _______ _______ _______ _____ _____    ______ ____
ROOT
ATOM      1  C   UNL     1       1.002   9.863  18.160  0.00  0.00    +0.000 A 
ATOM      2  C   UNL     1       1.397  11.007  18.866  0.00  0.00    +0.000 A 
ATOM      3  C   UNL     1       0.457  11.906  19.381  0.00  0.00    +0.000 A 
ATOM      4 CL   UNL     1       0.959  13.317  20.226  0.00  0.00    +0.000 Cl
ATOM      5  C   UNL     1      -0.895  11.650  19.155  0.00  0.00    +0.000 A 
ATOM      6  N   UNL     1      -2.016  12.328  19.564  0.00  0.00    +0.000 N 
ATOM      7  C   UNL     1      -3.149  11.847  18.952  0.00  0.00    +0.000 A 
ATOM      8  C   UNL     1      -2.751  10.665  18.338  0.00  0.00    +0.000 A 
ATOM      9  C   UNL     1      -1.336  10.554  18.430  0.00  0.00    +0.000 A 
ATOM     10  C   UNL     1      -0.375   9.644  17.948  0.00  0.00    +0.000 A 
ATOM     11  H   UNL     1      -1.979  13.108  20.201  0.00  0.00    +0.000 HD
ENDROOT
BRANCH   7  12
ATOM     12  C   UNL     1      -4.497  12.386  19.042  0.00  0.00    +0.000 C 
ATOM     13  O   UNL     1      -5.355  12.030  18.234  0.00  0.00    +0.000 OA
ATOM     14  N   UNL     1      -4.821  13.307  20.044  0.00  0.00    +0.000 N 
ATOM     15  C   UNL     1      -3.942  13.878  21.079  0.00  0.00    +0.000 C 
ATOM     16  C   UNL     1      -4.260  13.254  22.466  0.00  0.00    +0.000 C 
ATOM     17  N   UNL     1      -5.686  13.411  22.767  0.00  0.00    +0.000 NA
ATOM     18  C   UNL     1      -6.159  12.783  23.992  0.00  0.00    +0.000 C 
ATOM     19  C   UNL     1      -7.677  12.720  23.781  0.00  0.00    +0.000 C 
ATOM     20  C   UNL     1      -7.905  13.068  22.304  0.00  0.00    +0.000 C 
ATOM     21  C   UNL     1      -6.536  12.850  21.694  0.00  0.00    +0.000 C 
ATOM     22  C   UNL     1      -6.246  13.529  20.349  0.00  0.00    +0.000 C 
ENDBRANCH   7  12
BRANCH   1  28
ATOM     23  C   UNL     1       4.147   6.208  17.860  0.00  0.00    +0.000 A 
ATOM     24  C   UNL     1       3.753   5.612  19.038  0.00  0.00    +0.000 A 
ATOM     25  C   UNL     1       2.760   6.251  19.721  0.00  0.00    +0.000 A 
ATOM     26  N   UNL     1       2.187   7.380  19.284  0.00  0.00    +0.000 NA
ATOM     27  C   UNL     1       2.612   7.896  18.119  0.00  0.00    +0.000 A 
ATOM     28  N   UNL     1       1.989   9.033  17.604  0.00  0.00    +0.000 N 
ATOM     29  N   UNL     1       3.582   7.341  17.375  0.00  0.00    +0.000 NA
ATOM     30  H   UNL     1       2.259   9.183  16.644  0.00  0.00    +0.000 HD
BRANCH  23  35
ATOM     31  C   UNL     1       7.266   4.774  14.271  0.00  0.00    +0.000 C 
ATOM     32  N   UNL     1       6.617   4.975  15.541  0.00  0.00    +0.000 N 
ATOM     33  C   UNL     1       7.110   4.598  16.753  0.00  0.00    +0.000 A 
ATOM     34  N   UNL     1       6.308   4.964  17.728  0.00  0.00    +0.000 NA
ATOM     35  C   UNL     1       5.243   5.601  17.114  0.00  0.00    +0.000 A 
ATOM     36  C   UNL     1       5.418   5.601  15.746  0.00  0.00    +0.000 A 
ENDBRANCH  23  35
ENDBRANCH   1  28
TORSDOF 3
ENDMDL
MODEL 2
REMARK VINA RESULT:      -8.9      2.932      3.773
REMARK  Name = 
REMARK  4 active torsions:
REMARK  status: ('A' for Active; 'I' for Inactive)
REMARK    1  A    between atoms: C_1  and  N_2
REMARK    2  A    between atoms: C_5  and  C_6
REMARK    3  A    between atoms: N_11  and  C_12
REMARK    4  A    between atoms: C_18  and  C_19
REMARK                            x       y       z     vdW  Elec       q    Type
REMARK                         _______ _______ _______ _____ _____    ______ ____
ROOT
ATOM      1  C   UNL     1       0.866   9.762  18.468  0.00  0.00    +0.000 A 
ATOM      2  C   UNL     1      -0.340   9.940  17.777  0.00  0.00    +0.000 A 
ATOM      3  C   UNL     1      -1.404  10.654  18.338  0.00  0.00    +0.000 A 
ATOM      4 CL   UNL     1      -2.885  10.844  17.486  0.00  0.00    +0.000 Cl
ATOM      5  C   UNL     1      -1.246  11.172  19.624  0.00  0.00    +0.000 A 
ATOM      6  N   UNL     1      -2.092  11.929  20.395  0.00  0.00    +0.000 N 
ATOM      7  C   UNL     1      -1.624  12.057  21.682  0.00  0.00    +0.000 A 
ATOM      8  C   UNL     1      -0.319  11.579  21.639  0.00  0.00    +0.000 A 
ATOM      9  C   UNL     1      -0.088  10.990  20.364  0.00  0.00    +0.000 A 
ATOM     10  C   UNL     1       0.983  10.296  19.767  0.00  0.00    +0.000 A 
ATOM     11  H   UNL     1      -2.964  12.295  20.049  0.00  0.00    +0.000 HD
ENDROOT
BRANCH   7  12
ATOM     12  C   UNL     1      -2.301  12.682  22.808  0.00  0.00    +0.000 C 
ATOM     13  O   UNL     1      -2.843  11.980  23.663  0.00  0.00    +0.000 OA
ATOM     14  N   UNL     1      -2.336  14.074  22.922  0.00  0.00    +0.000 N 
ATOM     15  C   UNL     1      -1.781  15.082  22.002  0.00  0.00    +0.000 C 
ATOM     16  C   UNL     1      -0.502  15.723  22.607  0.00  0.00    +0.000 C 
ATOM     17  N   UNL     1      -0.797  16.258  23.940  0.00  0.00    +0.000 NA
ATOM     18  C   UNL     1       0.333  16.802  24.680  0.00  0.00    +0.000 C 
ATOM     19  C   UNL     1      -0.185  16.829  26.124  0.00  0.00    +0.000 C 
ATOM     20  C   UNL     1      -1.487  16.018  26.113  0.00  0.00    +0.000 C 
ATOM     21  C   UNL     1      -1.377  15.226  24.827  0.00  0.00    +0.000 C 
ATOM     22  C   UNL     1      -2.672  14.655  24.235  0.00  0.00    +0.000 C 
ENDBRANCH   7  12
BRANCH   1  28
ATOM     23  C   UNL     1       4.062   6.166  18.026  0.00  0.00    +0.000 A 
ATOM     24  C   UNL     1       3.654   5.501  19.162  0.00  0.00    +0.000 A 
ATOM     25  C   UNL     1       2.640   6.090  19.859  0.00  0.00    +0.000 A 
ATOM     26  N   UNL     1       2.061   7.235  19.475  0.00  0.00    +0.000 NA
ATOM     27  C   UNL     1       2.501   7.819  18.349  0.00  0.00    +0.000 A 
ATOM     28  N   UNL     1       1.873   8.976  17.885  0.00  0.00    +0.000 N 
ATOM     29  N   UNL     1       3.492   7.318  17.594  0.00  0.00    +0.000 NA
ATOM     30  H   UNL     1       2.160   9.182  16.941  0.00  0.00    +0.000 HD
BRANCH  23  35
ATOM     31  C   UNL     1       7.170   4.819  14.395  0.00  0.00    +0.000 C 
ATOM     32  N   UNL     1       6.548   5.027  15.677  0.00  0.00    +0.000 N 
ATOM     33  C   UNL     1       7.109   4.748  16.887  0.00  0.00    +0.000 A 
ATOM     34  N   UNL     1       6.312   5.094  17.873  0.00  0.00    +0.000 NA
ATOM     35  C   UNL     1       5.179   5.615  17.269  0.00  0.00    +0.000 A 
ATOM     36  C   UNL     1       5.310   5.564  15.897  0.00  0.00    +0.000 A 
ENDBRANCH  23  35
ENDBRANCH   1  28
TORSDOF 3
ENDMDL
MODEL 3
REMARK VINA RESULT:      -8.9      1.917      2.473
REMARK  Name = 
REMARK  4 active torsions:
REMARK  status: ('A' for Active; 'I' for Inactive)
REMARK    1  A    between atoms: C_1  and  N_2
REMARK    2  A    between atoms: C_5  and  C_6
REMARK    3  A    between atoms: N_11  and  C_12
REMARK    4  A    between atoms: C_18  and  C_19
REMARK                            x       y       z     vdW  Elec       q    Type
REMARK                         _______ _______ _______ _____ _____    ______ ____
ROOT
ATOM      1  C   UNL     1       0.724  10.166  18.144  0.00  0.00    +0.000 A 
ATOM      2  C   UNL     1      -0.612   9.890  17.825  0.00  0.00    +0.000 A 
ATOM      3  C   UNL     1      -1.653  10.710  18.274  0.00  0.00    +0.000 A 
ATOM      4 CL   UNL     1      -3.289  10.345  17.893  0.00  0.00    +0.000 Cl
ATOM      5  C   UNL     1      -1.331  11.808  19.072  0.00  0.00    +0.000 A 
ATOM      6  N   UNL     1      -2.128  12.785  19.616  0.00  0.00    +0.000 N 
ATOM      7  C   UNL     1      -1.431  13.568  20.505  0.00  0.00    +0.000 A 
ATOM      8  C   UNL     1      -0.097  13.227  20.316  0.00  0.00    +0.000 A 
ATOM      9  C   UNL     1      -0.030  12.101  19.448  0.00  0.00    +0.000 A 
ATOM     10  C   UNL     1       1.006  11.282  18.959  0.00  0.00    +0.000 A 
ATOM     11  H   UNL     1      -3.109  12.867  19.404  0.00  0.00    +0.000 HD
ENDROOT
BRANCH   7  12
ATOM     12  C   UNL     1      -1.963  14.619  21.359  0.00  0.00    +0.000 C 
ATOM     13  O   UNL     1      -1.905  15.793  20.992  0.00  0.00    +0.000 OA
ATOM     14  N   UNL     1      -2.538  14.300  22.592  0.00  0.00    +0.000 N 
ATOM     15  C   UNL     1      -2.676  12.975  23.221  0.00  0.00    +0.000 C 
ATOM     16  C   UNL     1      -4.152  12.492  23.152  0.00  0.00    +0.000 C 
ATOM     17  N   UNL     1      -5.034  13.506  23.738  0.00  0.00    +0.000 NA
ATOM     18  C   UNL     1      -6.463  13.241  23.654  0.00  0.00    +0.000 C 
ATOM     19  C   UNL     1      -7.082  14.622  23.903  0.00  0.00    +0.000 C 
ATOM     20  C   UNL     1      -5.918  15.619  23.824  0.00  0.00    +0.000 C 
ATOM     21  C   UNL     1      -4.848  14.827  23.101  0.00  0.00    +0.000 C 
ATOM     22  C   UNL     1      -3.398  15.308  23.240  0.00  0.00    +0.000 C 
ENDBRANCH   7  12
BRANCH   1  28
ATOM     23  C   UNL     1       3.741   6.399  18.345  0.00  0.00    +0.000 A 
ATOM     24  C   UNL     1       3.229   5.896  19.521  0.00  0.00    +0.000 A 
ATOM     25  C   UNL     1       2.208   6.610  20.075  0.00  0.00    +0.000 A 
ATOM     26  N   UNL     1       1.717   7.726  19.520  0.00  0.00    +0.000 NA
ATOM     27  C   UNL     1       2.256   8.149  18.365  0.00  0.00    +0.000 A 
ATOM     28  N   UNL     1       1.721   9.269  17.727  0.00  0.00    +0.000 N 
ATOM     29  N   UNL     1       3.263   7.514  17.743  0.00  0.00    +0.000 NA
ATOM     30  H   UNL     1       2.076   9.346  16.787  0.00  0.00    +0.000 HD
BRANCH  23  35
ATOM     31  C   UNL     1       7.083   4.619  15.131  0.00  0.00    +0.000 C 
ATOM     32  N   UNL     1       6.343   4.930  16.327  0.00  0.00    +0.000 N 
ATOM     33  C   UNL     1       6.725   4.628  17.599  0.00  0.00    +0.000 A 
ATOM     34  N   UNL     1       5.862   5.086  18.477  0.00  0.00    +0.000 NA
ATOM     35  C   UNL     1       4.871   5.708  17.735  0.00  0.00    +0.000 A 
ATOM     36  C   UNL     1       5.154   5.604  16.389  0.00  0.00    +0.000 A 
ENDBRANCH  23  35
ENDBRANCH   1  28
TORSDOF 3
ENDMDL
MODEL 4
REMARK VINA RESULT:      -8.7      1.936      2.605
REMARK  Name = 
REMARK  4 active torsions:
REMARK  status: ('A' for Active; 'I' for Inactive)
REMARK    1  A    between atoms: C_1  and  N_2
REMARK    2  A    between atoms: C_5  and  C_6
REMARK    3  A    between atoms: N_11  and  C_12
REMARK    4  A    between atoms: C_18  and  C_19
REMARK                            x       y       z     vdW  Elec       q    Type
REMARK                         _______ _______ _______ _____ _____    ______ ____
ROOT
ATOM      1  C   UNL     1       1.005   9.387  19.346  0.00  0.00    +0.000 A 
ATOM      2  C   UNL     1       0.932   9.195  20.732  0.00  0.00    +0.000 A 
ATOM      3  C   UNL     1       0.050   9.935  21.525  0.00  0.00    +0.000 A 
ATOM      4 CL   UNL     1      -0.012   9.703  23.228  0.00  0.00    +0.000 Cl
ATOM      5  C   UNL     1      -0.750  10.895  20.905  0.00  0.00    +0.000 A 
ATOM      6  N   UNL     1      -1.712  11.728  21.418  0.00  0.00    +0.000 N 
ATOM      7  C   UNL     1      -2.117  12.663  20.495  0.00  0.00    +0.000 A 
ATOM      8  C   UNL     1      -1.573  12.235  19.289  0.00  0.00    +0.000 A 
ATOM      9  C   UNL     1      -0.687  11.151  19.544  0.00  0.00    +0.000 A 
ATOM     10  C   UNL     1       0.185  10.372  18.759  0.00  0.00    +0.000 A 
ATOM     11  H   UNL     1      -2.032  11.669  22.372  0.00  0.00    +0.000 HD
ENDROOT
BRANCH   7  12
ATOM     12  C   UNL     1      -3.027  13.778  20.709  0.00  0.00    +0.000 C 
ATOM     13  O   UNL     1      -2.585  14.926  20.764  0.00  0.00    +0.000 OA
ATOM     14  N   UNL     1      -4.398  13.549  20.852  0.00  0.00    +0.000 N 
ATOM     15  C   UNL     1      -5.116  12.262  20.847  0.00  0.00    +0.000 C 
ATOM     16  C   UNL     1      -5.893  12.079  19.513  0.00  0.00    +0.000 C 
ATOM     17  N   UNL     1      -6.770  13.232  19.287  0.00  0.00    +0.000 NA
ATOM     18  C   UNL     1      -7.490  13.254  18.022  0.00  0.00    +0.000 C 
ATOM     19  C   UNL     1      -7.910  14.723  17.894  0.00  0.00    +0.000 C 
ATOM     20  C   UNL     1      -7.132  15.475  18.982  0.00  0.00    +0.000 C 
ATOM     21  C   UNL     1      -6.019  14.506  19.326  0.00  0.00    +0.000 C 
ATOM     22  C   UNL     1      -5.315  14.690  20.676  0.00  0.00    +0.000 C 
ENDBRANCH   7  12
BRANCH   1  28
ATOM     23  C   UNL     1       4.034   5.795  18.223  0.00  0.00    +0.000 A 
ATOM     24  C   UNL     1       3.635   4.973  19.254  0.00  0.00    +0.000 A 
ATOM     25  C   UNL     1       2.670   5.479  20.074  0.00  0.00    +0.000 A 
ATOM     26  N   UNL     1       2.127   6.691  19.897  0.00  0.00    +0.000 NA
ATOM     27  C   UNL     1       2.554   7.430  18.861  0.00  0.00    +0.000 A 
ATOM     28  N   UNL     1       1.960   8.668  18.610  0.00  0.00    +0.000 N 
ATOM     29  N   UNL     1       3.499   7.020  17.999  0.00  0.00    +0.000 NA
ATOM     30  H   UNL     1       2.224   9.011  17.699  0.00  0.00    +0.000 HD
BRANCH  23  35
ATOM     31  C   UNL     1       6.939   4.889  14.298  0.00  0.00    +0.000 C 
ATOM     32  N   UNL     1       6.382   4.937  15.625  0.00  0.00    +0.000 N 
ATOM     33  C   UNL     1       6.993   4.494  16.759  0.00  0.00    +0.000 A 
ATOM     34  N   UNL     1       6.251   4.719  17.819  0.00  0.00    +0.000 NA
ATOM     35  C   UNL     1       5.102   5.331  17.346  0.00  0.00    +0.000 A 
ATOM     36  C   UNL     1       5.167   5.459  15.974  0.00  0.00    +0.000 A 
ENDBRANCH  23  35
ENDBRANCH   1  28
TORSDOF 3
ENDMDL
MODEL 5
REMARK VINA RESULT:      -8.5      2.231      2.617
REMARK  Name = 
REMARK  4 active torsions:
REMARK  status: ('A' for Active; 'I' for Inactive)
REMARK    1  A    between atoms: C_1  and  N_2
REMARK    2  A    between atoms: C_5  and  C_6
REMARK    3  A    between atoms: N_11  and  C_12
REMARK    4  A    between atoms: C_18  and  C_19
REMARK                            x       y       z     vdW  Elec       q    Type
REMARK                         _______ _______ _______ _____ _____    ______ ____
ROOT
ATOM      1  C   UNL     1       1.097   9.229  19.192  0.00  0.00    +0.000 A 
ATOM      2  C   UNL     1       1.093   9.109  20.588  0.00  0.00    +0.000 A 
ATOM      3  C   UNL     1       0.196   9.834  21.380  0.00  0.00    +0.000 A 
ATOM      4 CL   UNL     1       0.219   9.692  23.093  0.00  0.00    +0.000 Cl
ATOM      5  C   UNL     1      -0.689  10.706  20.746  0.00  0.00    +0.000 A 
ATOM      6  N   UNL     1      -1.683  11.503  21.257  0.00  0.00    +0.000 N 
ATOM      7  C   UNL     1      -2.185  12.358  20.305  0.00  0.00    +0.000 A 
ATOM      8  C   UNL     1      -1.663  11.900  19.100  0.00  0.00    +0.000 A 
ATOM      9  C   UNL     1      -0.698  10.891  19.372  0.00  0.00    +0.000 A 
ATOM     10  C   UNL     1       0.191  10.127  18.591  0.00  0.00    +0.000 A 
ATOM     11  H   UNL     1      -1.959  11.475  22.225  0.00  0.00    +0.000 HD
ENDROOT
BRANCH   7  12
ATOM     12  C   UNL     1      -3.156  13.423  20.500  0.00  0.00    +0.000 C 
ATOM     13  O   UNL     1      -4.341  13.229  20.226  0.00  0.00    +0.000 OA
ATOM     14  N   UNL     1      -2.749  14.664  20.997  0.00  0.00    +0.000 N 
ATOM     15  C   UNL     1      -1.389  15.104  21.355  0.00  0.00    +0.000 C 
ATOM     16  C   UNL     1      -1.229  15.172  22.899  0.00  0.00    +0.000 C 
ATOM     17  N   UNL     1      -2.280  16.019  23.471  0.00  0.00    +0.000 NA
ATOM     18  C   UNL     1      -2.323  16.097  24.924  0.00  0.00    +0.000 C 
ATOM     19  C   UNL     1      -3.736  16.631  25.195  0.00  0.00    +0.000 C 
ATOM     20  C   UNL     1      -4.479  16.538  23.856  0.00  0.00    +0.000 C 
ATOM     21  C   UNL     1      -3.628  15.563  23.068  0.00  0.00    +0.000 C 
ATOM     22  C   UNL     1      -3.780  15.567  21.542  0.00  0.00    +0.000 C 
ENDBRANCH   7  12
BRANCH   1  28
ATOM     23  C   UNL     1       4.183   5.695  18.044  0.00  0.00    +0.000 A 
ATOM     24  C   UNL     1       3.790   4.855  19.063  0.00  0.00    +0.000 A 
ATOM     25  C   UNL     1       2.813   5.336  19.883  0.00  0.00    +0.000 A 
ATOM     26  N   UNL     1       2.254   6.542  19.717  0.00  0.00    +0.000 NA
ATOM     27  C   UNL     1       2.677   7.301  18.693  0.00  0.00    +0.000 A 
ATOM     28  N   UNL     1       2.067   8.533  18.453  0.00  0.00    +0.000 N 
ATOM     29  N   UNL     1       3.632   6.915  17.832  0.00  0.00    +0.000 NA
ATOM     30  H   UNL     1       2.332   8.891  17.549  0.00  0.00    +0.000 HD
BRANCH  23  35
ATOM     31  C   UNL     1       7.094   4.825  14.115  0.00  0.00    +0.000 C 
ATOM     32  N   UNL     1       6.546   4.879  15.446  0.00  0.00    +0.000 N 
ATOM     33  C   UNL     1       7.184   4.487  16.584  0.00  0.00    +0.000 A 
ATOM     34  N   UNL     1       6.441   4.705  17.646  0.00  0.00    +0.000 NA
ATOM     35  C   UNL     1       5.264   5.256  17.168  0.00  0.00    +0.000 A 
ATOM     36  C   UNL     1       5.313   5.357  15.794  0.00  0.00    +0.000 A 
ENDBRANCH  23  35
ENDBRANCH   1  28
TORSDOF 3
ENDMDL
MODEL 6
REMARK VINA RESULT:      -8.4      1.986      2.264
REMARK  Name = 
REMARK  4 active torsions:
REMARK  status: ('A' for Active; 'I' for Inactive)
REMARK    1  A    between atoms: C_1  and  N_2
REMARK    2  A    between atoms: C_5  and  C_6
REMARK    3  A    between atoms: N_11  and  C_12
REMARK    4  A    between atoms: C_18  and  C_19
REMARK                            x       y       z     vdW  Elec       q    Type
REMARK                         _______ _______ _______ _____ _____    ______ ____
ROOT
ATOM      1  C   UNL     1       1.088   9.273  19.676  0.00  0.00    +0.000 A 
ATOM      2  C   UNL     1       0.981   8.996  21.045  0.00  0.00    +0.000 A 
ATOM      3  C   UNL     1       0.162   9.761  21.882  0.00  0.00    +0.000 A 
ATOM      4 CL   UNL     1       0.060   9.422  23.565  0.00  0.00    +0.000 Cl
ATOM      5  C   UNL     1      -0.537  10.831  21.324  0.00  0.00    +0.000 A 
ATOM      6  N   UNL     1      -1.424  11.714  21.888  0.00  0.00    +0.000 N 
ATOM      7  C   UNL     1      -1.729  12.742  21.028  0.00  0.00    +0.000 A 
ATOM      8  C   UNL     1      -1.213  12.347  19.798  0.00  0.00    +0.000 A 
ATOM      9  C   UNL     1      -0.435  11.171  19.984  0.00  0.00    +0.000 A 
ATOM     10  C   UNL     1       0.370  10.368  19.152  0.00  0.00    +0.000 A 
ATOM     11  H   UNL     1      -1.759  11.621  22.833  0.00  0.00    +0.000 HD
ENDROOT
BRANCH   7  12
ATOM     12  C   UNL     1      -2.533  13.921  21.312  0.00  0.00    +0.000 C 
ATOM     13  O   UNL     1      -2.711  14.767  20.435  0.00  0.00    +0.000 OA
ATOM     14  N   UNL     1      -3.104  14.094  22.576  0.00  0.00    +0.000 N 
ATOM     15  C   UNL     1      -2.990  13.223  23.759  0.00  0.00    +0.000 C 
ATOM     16  C   UNL     1      -4.315  12.446  23.992  0.00  0.00    +0.000 C 
ATOM     17  N   UNL     1      -5.436  13.389  24.074  0.00  0.00    +0.000 NA
ATOM     18  C   UNL     1      -6.763  12.802  24.189  0.00  0.00    +0.000 C 
ATOM     19  C   UNL     1      -7.685  13.961  23.789  0.00  0.00    +0.000 C 
ATOM     20  C   UNL     1      -6.765  15.038  23.199  0.00  0.00    +0.000 C 
ATOM     21  C   UNL     1      -5.502  14.263  22.883  0.00  0.00    +0.000 C 
ATOM     22  C   UNL     1      -4.206  15.065  22.714  0.00  0.00    +0.000 C 
ENDBRANCH   7  12
BRANCH   1  28
ATOM     23  C   UNL     1       3.858   5.534  18.378  0.00  0.00    +0.000 A 
ATOM     24  C   UNL     1       3.427   4.707  19.391  0.00  0.00    +0.000 A 
ATOM     25  C   UNL     1       2.513   5.246  20.247  0.00  0.00    +0.000 A 
ATOM     26  N   UNL     1       2.045   6.495  20.119  0.00  0.00    +0.000 NA
ATOM     27  C   UNL     1       2.499   7.239  19.097  0.00  0.00    +0.000 A 
ATOM     28  N   UNL     1       1.980   8.519  18.897  0.00  0.00    +0.000 N 
ATOM     29  N   UNL     1       3.398   6.797  18.203  0.00  0.00    +0.000 NA
ATOM     30  H   UNL     1       2.248   8.874  17.992  0.00  0.00    +0.000 HD
BRANCH  23  35
ATOM     31  C   UNL     1       6.299   3.913  14.368  0.00  0.00    +0.000 C 
ATOM     32  N   UNL     1       5.952   4.325  15.704  0.00  0.00    +0.000 N 
ATOM     33  C   UNL     1       6.825   4.488  16.737  0.00  0.00    +0.000 A 
ATOM     34  N   UNL     1       6.212   4.919  17.816  0.00  0.00    +0.000 NA
ATOM     35  C   UNL     1       4.877   5.031  17.464  0.00  0.00    +0.000 A 
ATOM     36  C   UNL     1       4.701   4.650  16.151  0.00  0.00    +0.000 A 
ENDBRANCH  23  35
ENDBRANCH   1  28
TORSDOF 3
ENDMDL
MODEL 7
REMARK VINA RESULT:      -8.4      2.859      3.798
REMARK  Name = 
REMARK  4 active torsions:
REMARK  status: ('A' for Active; 'I' for Inactive)
REMARK    1  A    between atoms: C_1  and  N_2
REMARK    2  A    between atoms: C_5  and  C_6
REMARK    3  A    between atoms: N_11  and  C_12
REMARK    4  A    between atoms: C_18  and  C_19
REMARK                            x       y       z     vdW  Elec       q    Type
REMARK                         _______ _______ _______ _____ _____    ______ ____
ROOT
ATOM      1  C   UNL     1       0.465  10.128  21.633  0.00  0.00    +0.000 A 
ATOM      2  C   UNL     1       0.804  11.271  20.896  0.00  0.00    +0.000 A 
ATOM      3  C   UNL     1       0.120  12.479  21.069  0.00  0.00    +0.000 A 
ATOM      4 CL   UNL     1       0.533  13.866  20.141  0.00  0.00    +0.000 Cl
ATOM      5  C   UNL     1      -0.932  12.517  21.984  0.00  0.00    +0.000 A 
ATOM      6  N   UNL     1      -1.741  13.554  22.376  0.00  0.00    +0.000 N 
ATOM      7  C   UNL     1      -2.786  13.114  23.154  0.00  0.00    +0.000 A 
ATOM      8  C   UNL     1      -2.470  11.796  23.466  0.00  0.00    +0.000 A 
ATOM      9  C   UNL     1      -1.332  11.405  22.708  0.00  0.00    +0.000 A 
ATOM     10  C   UNL     1      -0.609  10.207  22.543  0.00  0.00    +0.000 A 
ATOM     11  H   UNL     1      -1.591  14.505  22.079  0.00  0.00    +0.000 HD
ENDROOT
BRANCH   7  12
ATOM     12  C   UNL     1      -3.905  13.897  23.653  0.00  0.00    +0.000 C 
ATOM     13  O   UNL     1      -3.781  14.552  24.689  0.00  0.00    +0.000 OA
ATOM     14  N   UNL     1      -5.120  13.908  22.961  0.00  0.00    +0.000 N 
ATOM     15  C   UNL     1      -5.479  13.178  21.733  0.00  0.00    +0.000 C 
ATOM     16  C   UNL     1      -5.534  14.148  20.521  0.00  0.00    +0.000 C 
ATOM     17  N   UNL     1      -6.440  15.262  20.817  0.00  0.00    +0.000 NA
ATOM     18  C   UNL     1      -6.518  16.313  19.812  0.00  0.00    +0.000 C 
ATOM     19  C   UNL     1      -7.133  17.484  20.589  0.00  0.00    +0.000 C 
ATOM     20  C   UNL     1      -7.086  17.072  22.066  0.00  0.00    +0.000 C 
ATOM     21  C   UNL     1      -6.065  15.953  22.070  0.00  0.00    +0.000 C 
ATOM     22  C   UNL     1      -6.080  14.986  23.260  0.00  0.00    +0.000 C 
ENDBRANCH   7  12
BRANCH   1  28
ATOM     23  C   UNL     1       2.633   6.675  19.042  0.00  0.00    +0.000 A 
ATOM     24  C   UNL     1       2.600   7.374  17.855  0.00  0.00    +0.000 A 
ATOM     25  C   UNL     1       2.015   8.605  17.911  0.00  0.00    +0.000 A 
ATOM     26  N   UNL     1       1.510   9.120  19.039  0.00  0.00    +0.000 NA
ATOM     27  C   UNL     1       1.592   8.387  20.162  0.00  0.00    +0.000 A 
ATOM     28  N   UNL     1       1.137   8.924  21.367  0.00  0.00    +0.000 N 
ATOM     29  N   UNL     1       2.149   7.166  20.208  0.00  0.00    +0.000 NA
ATOM     30  H   UNL     1       1.447   8.363  22.145  0.00  0.00    +0.000 HD
BRANCH  23  35
ATOM     31  C   UNL     1       3.353   1.801  18.413  0.00  0.00    +0.000 C 
ATOM     32  N   UNL     1       3.517   3.191  18.752  0.00  0.00    +0.000 N 
ATOM     33  C   UNL     1       4.667   3.770  19.198  0.00  0.00    +0.000 A 
ATOM     34  N   UNL     1       4.512   5.063  19.374  0.00  0.00    +0.000 NA
ATOM     35  C   UNL     1       3.196   5.330  19.033  0.00  0.00    +0.000 A 
ATOM     36  C   UNL     1       2.561   4.165  18.656  0.00  0.00    +0.000 A 
ENDBRANCH  23  35
ENDBRANCH   1  28
TORSDOF 3
ENDMDL
MODEL 8
REMARK VINA RESULT:      -8.3      2.018      2.471
REMARK  Name = 
REMARK  4 active torsions:
REMARK  status: ('A' for Active; 'I' for Inactive)
REMARK    1  A    between atoms: C_1  and  N_2
REMARK    2  A    between atoms: C_5  and  C_6
REMARK    3  A    between atoms: N_11  and  C_12
REMARK    4  A    between atoms: C_18  and  C_19
REMARK                            x       y       z     vdW  Elec       q    Type
REMARK                         _______ _______ _______ _____ _____    ______ ____
ROOT
ATOM      1  C   UNL     1       1.049  11.290  18.738  0.00  0.00    +0.000 A 
ATOM      2  C   UNL     1       1.747  12.487  18.527  0.00  0.00    +0.000 A 
ATOM      3  C   UNL     1       1.253  13.711  18.989  0.00  0.00    +0.000 A 
ATOM      4 CL   UNL     1       2.111  15.173  18.701  0.00  0.00    +0.000 Cl
ATOM      5  C   UNL     1       0.026  13.720  19.652  0.00  0.00    +0.000 A 
ATOM      6  N   UNL     1      -0.672  14.750  20.232  0.00  0.00    +0.000 N 
ATOM      7  C   UNL     1      -1.936  14.358  20.603  0.00  0.00    +0.000 A 
ATOM      8  C   UNL     1      -1.933  12.973  20.481  0.00  0.00    +0.000 A 
ATOM      9  C   UNL     1      -0.722  12.570  19.852  0.00  0.00    +0.000 A 
ATOM     10  C   UNL     1      -0.191  11.344  19.408  0.00  0.00    +0.000 A 
ATOM     11  H   UNL     1      -0.295  15.680  20.323  0.00  0.00    +0.000 HD
ENDROOT
BRANCH   7  12
ATOM     12  C   UNL     1      -2.999  15.197  21.135  0.00  0.00    +0.000 C 
ATOM     13  O   UNL     1      -3.529  16.044  20.415  0.00  0.00    +0.000 OA
ATOM     14  N   UNL     1      -3.419  15.043  22.459  0.00  0.00    +0.000 N 
ATOM     15  C   UNL     1      -2.900  14.118  23.482  0.00  0.00    +0.000 C 
ATOM     16  C   UNL     1      -3.903  12.955  23.721  0.00  0.00    +0.000 C 
ATOM     17  N   UNL     1      -5.225  13.498  24.050  0.00  0.00    +0.000 NA
ATOM     18  C   UNL     1      -6.299  12.528  24.202  0.00  0.00    +0.000 C 
ATOM     19  C   UNL     1      -7.560  13.391  24.069  0.00  0.00    +0.000 C 
ATOM     20  C   UNL     1      -7.078  14.756  23.562  0.00  0.00    +0.000 C 
ATOM     21  C   UNL     1      -5.700  14.442  23.015  0.00  0.00    +0.000 C 
ATOM     22  C   UNL     1      -4.724  15.612  22.845  0.00  0.00    +0.000 C 
ENDBRANCH   7  12
BRANCH   1  28
ATOM     23  C   UNL     1       2.596   6.716  18.595  0.00  0.00    +0.000 A 
ATOM     24  C   UNL     1       2.254   6.431  19.898  0.00  0.00    +0.000 A 
ATOM     25  C   UNL     1       1.699   7.459  20.602  0.00  0.00    +0.000 A 
ATOM     26  N   UNL     1       1.484   8.671  20.073  0.00  0.00    +0.000 NA
ATOM     27  C   UNL     1       1.829   8.871  18.790  0.00  0.00    +0.000 A 
ATOM     28  N   UNL     1       1.556  10.101  18.190  0.00  0.00    +0.000 N 
ATOM     29  N   UNL     1       2.381   7.923  18.016  0.00  0.00    +0.000 NA
ATOM     30  H   UNL     1       1.672  10.043  17.191  0.00  0.00    +0.000 HD
BRANCH  23  35
ATOM     31  C   UNL     1       5.751   4.139  15.753  0.00  0.00    +0.000 C 
ATOM     32  N   UNL     1       4.631   4.538  16.567  0.00  0.00    +0.000 N 
ATOM     33  C   UNL     1       3.645   3.714  17.020  0.00  0.00    +0.000 A 
ATOM     34  N   UNL     1       2.792   4.364  17.778  0.00  0.00    +0.000 NA
ATOM     35  C   UNL     1       3.245   5.673  17.809  0.00  0.00    +0.000 A 
ATOM     36  C   UNL     1       4.385   5.796  17.044  0.00  0.00    +0.000 A 
ENDBRANCH  23  35
ENDBRANCH   1  28
TORSDOF 3
ENDMDL
MODEL 9
REMARK VINA RESULT:      -8.3      2.340      2.992
REMARK  Name = 
REMARK  4 active torsions:
REMARK  status: ('A' for Active; 'I' for Inactive)
REMARK    1  A    between atoms: C_1  and  N_2
REMARK    2  A    between atoms: C_5  and  C_6
REMARK    3  A    between atoms: N_11  and  C_12
REMARK    4  A    between atoms: C_18  and  C_19
REMARK                            x       y       z     vdW  Elec       q    Type
REMARK                         _______ _______ _______ _____ _____    ______ ____
ROOT
ATOM      1  C   UNL     1       0.507  10.374  18.453  0.00  0.00    +0.000 A 
ATOM      2  C   UNL     1      -0.837  10.445  18.063  0.00  0.00    +0.000 A 
ATOM      3  C   UNL     1      -1.714  11.371  18.638  0.00  0.00    +0.000 A 
ATOM      4 CL   UNL     1      -3.366  11.430  18.164  0.00  0.00    +0.000 Cl
ATOM      5  C   UNL     1      -1.224  12.215  19.634  0.00  0.00    +0.000 A 
ATOM      6  N   UNL     1      -1.837  13.223  20.335  0.00  0.00    +0.000 N 
ATOM      7  C   UNL     1      -1.049  13.671  21.369  0.00  0.00    +0.000 A 
ATOM      8  C   UNL     1       0.198  13.098  21.145  0.00  0.00    +0.000 A 
ATOM      9  C   UNL     1       0.086  12.158  20.083  0.00  0.00    +0.000 A 
ATOM     10  C   UNL     1       0.961  11.241  19.468  0.00  0.00    +0.000 A 
ATOM     11  H   UNL     1      -2.768  13.546  20.125  0.00  0.00    +0.000 HD
ENDROOT
BRANCH   7  12
ATOM     12  C   UNL     1      -1.406  14.639  22.395  0.00  0.00    +0.000 C 
ATOM     13  O   UNL     1      -0.881  15.754  22.393  0.00  0.00    +0.000 OA
ATOM     14  N   UNL     1      -2.341  14.308  23.380  0.00  0.00    +0.000 N 
ATOM     15  C   UNL     1      -3.053  13.033  23.573  0.00  0.00    +0.000 C 
ATOM     16  C   UNL     1      -4.539  13.170  23.140  0.00  0.00    +0.000 C 
ATOM     17  N   UNL     1      -5.161  14.294  23.847  0.00  0.00    +0.000 NA
ATOM     18  C   UNL     1      -6.530  14.613  23.469  0.00  0.00    +0.000 C 
ATOM     19  C   UNL     1      -6.709  16.039  24.003  0.00  0.00    +0.000 C 
ATOM     20  C   UNL     1      -5.304  16.514  24.396  0.00  0.00    +0.000 C 
ATOM     21  C   UNL     1      -4.404  15.549  23.652  0.00  0.00    +0.000 C 
ATOM     22  C   UNL     1      -2.960  15.406  24.146  0.00  0.00    +0.000 C 
ENDBRANCH   7  12
BRANCH   1  28
ATOM     23  C   UNL     1       3.270   6.415  18.271  0.00  0.00    +0.000 A 
ATOM     24  C   UNL     1       3.024   6.035  19.572  0.00  0.00    +0.000 A 
ATOM     25  C   UNL     1       2.206   6.862  20.284  0.00  0.00    +0.000 A 
ATOM     26  N   UNL     1       1.660   7.969  19.765  0.00  0.00    +0.000 NA
ATOM     27  C   UNL     1       1.932   8.268  18.485  0.00  0.00    +0.000 A 
ATOM     28  N   UNL     1       1.325   9.378  17.895  0.00  0.00    +0.000 N 
ATOM     29  N   UNL     1       2.725   7.518  17.702  0.00  0.00    +0.000 NA
ATOM     30  H   UNL     1       1.450   9.362  16.895  0.00  0.00    +0.000 HD
BRANCH  23  35
ATOM     31  C   UNL     1       7.220   4.694  15.801  0.00  0.00    +0.000 C 
ATOM     32  N   UNL     1       5.917   4.840  16.396  0.00  0.00    +0.000 N 
ATOM     33  C   UNL     1       4.957   3.876  16.454  0.00  0.00    +0.000 A 
ATOM     34  N   UNL     1       3.895   4.298  17.103  0.00  0.00    +0.000 NA
ATOM     35  C   UNL     1       4.182   5.600  17.476  0.00  0.00    +0.000 A 
ATOM     36  C   UNL     1       5.437   5.955  17.028  0.00  0.00    +0.000 A 
ENDBRANCH  23  35
ENDBRANCH   1  28
TORSDOF 3
ENDMDL
