MODEL 1
REMARK VINA RESULT:      -8.8      0.000      0.000
REMARK  Name = 
REMARK  4 active torsions:
REMARK  status: ('A' for Active; 'I' for Inactive)
REMARK    1  A    between atoms: N_2  and  C_4
REMARK    2  A    between atoms: C_8  and  C_9
REMARK    3  A    between atoms: C_12  and  C_13
REMARK    4  A    between atoms: C_15  and  C_16
REMARK                            x       y       z     vdW  Elec       q    Type
REMARK                         _______ _______ _______ _____ _____    ______ ____
ROOT
ATOM      1  C   UNL     1       6.583   4.628  15.981  0.00  0.00    +0.000 A 
ATOM      2  C   UNL     1       7.510   4.554  17.002  0.00  0.00    +0.000 A 
ATOM      3  C   UNL     1       6.793   4.604  18.212  0.00  0.00    +0.000 A 
ATOM      4  C   UNL     1       5.460   4.697  17.874  0.00  0.00    +0.000 A 
ATOM      5  O   UNL     1       5.325   4.727  16.515  0.00  0.00    +0.000 OA
ENDROOT
BRANCH   1  10
ATOM      6  C   UNL     1       6.101   3.547  12.393  0.00  0.00    +0.000 A 
ATOM      7  C   UNL     1       7.102   4.283  11.745  0.00  0.00    +0.000 A 
ATOM      8  C   UNL     1       7.880   5.171  12.480  0.00  0.00    +0.000 A 
ATOM      9  C   UNL     1       7.671   5.303  13.856  0.00  0.00    +0.000 A 
ATOM     10  C   UNL     1       6.690   4.549  14.526  0.00  0.00    +0.000 A 
ATOM     11  C   UNL     1       5.882   3.686  13.774  0.00  0.00    +0.000 A 
BRANCH   6  13
ATOM     12  O   UNL     1       5.800   1.500  11.343  0.00  0.00    +0.000 OA
ATOM     13  N   UNL     1       5.293   2.594  11.622  0.00  0.00    +0.000 N 
ATOM     14  O   UNL     1       4.142   2.934  11.306  0.00  0.00    +0.000 OA
ENDBRANCH   6  13
ENDBRANCH   1  10
BRANCH   4  15
ATOM     15  C   UNL     1       4.215   4.671  18.689  0.00  0.00    +0.000 C 
ATOM     16  C   UNL     1       4.011   5.999  19.409  0.00  0.00    +0.000 C 
ATOM     17  C   UNL     1       2.649   6.391  18.905  0.00  0.00    +0.000 C 
ATOM     18  N   UNL     1       2.101   5.547  18.087  0.00  0.00    +0.000 NA
ATOM     19  N   UNL     1       3.028   4.602  17.835  0.00  0.00    +0.000 N 
ATOM     20  H   UNL     1       2.661   3.662  17.697  0.00  0.00    +0.000 HD
BRANCH  17  21
ATOM     21  C   UNL     1       1.995   7.644  19.349  0.00  0.00    +0.000 A 
ATOM     22  C   UNL     1       1.564   7.806  20.671  0.00  0.00    +0.000 A 
ATOM     23  C   UNL     1       0.941   8.993  21.066  0.00  0.00    +0.000 A 
ATOM     24  C   UNL     1       0.750  10.018  20.142  0.00  0.00    +0.000 A 
ATOM     25 CL   UNL     1      -0.038  11.467  20.627  0.00  0.00    +0.000 Cl
ATOM     26  C   UNL     1       1.192   9.874  18.827  0.00  0.00    +0.000 A 
ATOM     27  C   UNL     1       1.818   8.689  18.431  0.00  0.00    +0.000 A 
ENDBRANCH  17  21
ENDBRANCH   4  15
TORSDOF 4
ENDMDL
MODEL 2
REMARK VINA RESULT:      -8.7      0.051      1.128
REMARK  Name = 
REMARK  4 active torsions:
REMARK  status: ('A' for Active; 'I' for Inactive)
REMARK    1  A    between atoms: N_2  and  C_4
REMARK    2  A    between atoms: C_8  and  C_9
REMARK    3  A    between atoms: C_12  and  C_13
REMARK    4  A    between atoms: C_15  and  C_16
REMARK                            x       y       z     vdW  Elec       q    Type
REMARK                         _______ _______ _______ _____ _____    ______ ____
ROOT
ATOM      1  C   UNL     1       6.565   4.618  15.965  0.00  0.00    +0.000 A 
ATOM      2  C   UNL     1       7.490   4.534  16.987  0.00  0.00    +0.000 A 
ATOM      3  C   UNL     1       6.771   4.594  18.196  0.00  0.00    +0.000 A 
ATOM      4  C   UNL     1       5.439   4.700  17.856  0.00  0.00    +0.000 A 
ATOM      5  O   UNL     1       5.307   4.731  16.496  0.00  0.00    +0.000 OA
ENDROOT
BRANCH   1  10
ATOM      6  C   UNL     1       6.101   3.519  12.379  0.00  0.00    +0.000 A 
ATOM      7  C   UNL     1       7.091   4.269  11.730  0.00  0.00    +0.000 A 
ATOM      8  C   UNL     1       7.854   5.172  12.463  0.00  0.00    +0.000 A 
ATOM      9  C   UNL     1       7.643   5.304  13.838  0.00  0.00    +0.000 A 
ATOM     10  C   UNL     1       6.674   4.536  14.510  0.00  0.00    +0.000 A 
ATOM     11  C   UNL     1       5.880   3.658  13.760  0.00  0.00    +0.000 A 
BRANCH   6  13
ATOM     12  O   UNL     1       4.176   2.891  11.249  0.00  0.00    +0.000 OA
ATOM     13  N   UNL     1       5.309   2.551  11.611  0.00  0.00    +0.000 N 
ATOM     14  O   UNL     1       5.826   1.452  11.357  0.00  0.00    +0.000 OA
ENDBRANCH   6  13
ENDBRANCH   1  10
BRANCH   4  15
ATOM     15  C   UNL     1       4.192   4.688  18.668  0.00  0.00    +0.000 C 
ATOM     16  C   UNL     1       3.997   6.022  19.380  0.00  0.00    +0.000 C 
ATOM     17  C   UNL     1       2.638   6.421  18.871  0.00  0.00    +0.000 C 
ATOM     18  N   UNL     1       2.086   5.576  18.057  0.00  0.00    +0.000 NA
ATOM     19  N   UNL     1       3.007   4.623  17.812  0.00  0.00    +0.000 N 
ATOM     20  H   UNL     1       2.633   3.685  17.679  0.00  0.00    +0.000 HD
BRANCH  17  21
ATOM     21  C   UNL     1       1.994   7.682  19.306  0.00  0.00    +0.000 A 
ATOM     22  C   UNL     1       1.803   8.743  18.413  0.00  0.00    +0.000 A 
ATOM     23  C   UNL     1       1.202   9.927  18.847  0.00  0.00    +0.000 A 
ATOM     24  C   UNL     1       0.789  10.051  20.173  0.00  0.00    +0.000 A 
ATOM     25 CL   UNL     1       0.072  11.519  20.708  0.00  0.00    +0.000 Cl
ATOM     26  C   UNL     1       0.959   8.994  21.066  0.00  0.00    +0.000 A 
ATOM     27  C   UNL     1       1.558   7.808  20.632  0.00  0.00    +0.000 A 
ENDBRANCH  17  21
ENDBRANCH   4  15
TORSDOF 4
ENDMDL
MODEL 3
REMARK VINA RESULT:      -8.6      6.384      8.418
REMARK  Name = 
REMARK  4 active torsions:
REMARK  status: ('A' for Active; 'I' for Inactive)
REMARK    1  A    between atoms: N_2  and  C_4
REMARK    2  A    between atoms: C_8  and  C_9
REMARK    3  A    between atoms: C_12  and  C_13
REMARK    4  A    between atoms: C_15  and  C_16
REMARK                            x       y       z     vdW  Elec       q    Type
REMARK                         _______ _______ _______ _____ _____    ______ ____
ROOT
ATOM      1  C   UNL     1       8.691   9.423  18.447  0.00  0.00    +0.000 A 
ATOM      2  C   UNL     1       7.909   9.314  17.314  0.00  0.00    +0.000 A 
ATOM      3  C   UNL     1       7.461   7.981  17.251  0.00  0.00    +0.000 A 
ATOM      4  C   UNL     1       7.982   7.340  18.355  0.00  0.00    +0.000 A 
ATOM      5  O   UNL     1       8.745   8.209  19.081  0.00  0.00    +0.000 OA
ENDROOT
BRANCH   1  10
ATOM      6  C   UNL     1      10.923  12.412  19.050  0.00  0.00    +0.000 A 
ATOM      7  C   UNL     1      10.812  12.564  20.439  0.00  0.00    +0.000 A 
ATOM      8  C   UNL     1       9.959  11.728  21.151  0.00  0.00    +0.000 A 
ATOM      9  C   UNL     1       9.242  10.733  20.481  0.00  0.00    +0.000 A 
ATOM     10  C   UNL     1       9.366  10.548  19.092  0.00  0.00    +0.000 A 
ATOM     11  C   UNL     1      10.195  11.419  18.373  0.00  0.00    +0.000 A 
BRANCH   6  13
ATOM     12  O   UNL     1      12.056  13.002  17.114  0.00  0.00    +0.000 OA
ATOM     13  N   UNL     1      11.839  13.280  18.300  0.00  0.00    +0.000 N 
ATOM     14  O   UNL     1      12.332  14.251  18.894  0.00  0.00    +0.000 OA
ENDBRANCH   6  13
ENDBRANCH   1  10
BRANCH   4  15
ATOM     15  C   UNL     1       7.784   5.972  18.907  0.00  0.00    +0.000 C 
ATOM     16  C   UNL     1       6.327   5.752  19.299  0.00  0.00    +0.000 C 
ATOM     17  C   UNL     1       5.991   4.537  18.478  0.00  0.00    +0.000 C 
ATOM     18  N   UNL     1       6.963   4.076  17.754  0.00  0.00    +0.000 NA
ATOM     19  N   UNL     1       7.979   4.954  17.874  0.00  0.00    +0.000 N 
ATOM     20  H   UNL     1       8.910   4.543  17.857  0.00  0.00    +0.000 HD
BRANCH  17  21
ATOM     21  C   UNL     1       4.646   3.919  18.533  0.00  0.00    +0.000 A 
ATOM     22  C   UNL     1       4.372   2.857  19.404  0.00  0.00    +0.000 A 
ATOM     23  C   UNL     1       3.100   2.282  19.432  0.00  0.00    +0.000 A 
ATOM     24  C   UNL     1       2.099   2.768  18.594  0.00  0.00    +0.000 A 
ATOM     25 CL   UNL     1       0.541   2.041  18.616  0.00  0.00    +0.000 Cl
ATOM     26  C   UNL     1       2.355   3.837  17.735  0.00  0.00    +0.000 A 
ATOM     27  C   UNL     1       3.627   4.415  17.707  0.00  0.00    +0.000 A 
ENDBRANCH  17  21
ENDBRANCH   4  15
TORSDOF 4
ENDMDL
MODEL 4
REMARK VINA RESULT:      -8.5      6.174      8.621
REMARK  Name = 
REMARK  4 active torsions:
REMARK  status: ('A' for Active; 'I' for Inactive)
REMARK    1  A    between atoms: N_2  and  C_4
REMARK    2  A    between atoms: C_8  and  C_9
REMARK    3  A    between atoms: C_12  and  C_13
REMARK    4  A    between atoms: C_15  and  C_16
REMARK                            x       y       z     vdW  Elec       q    Type
REMARK                         _______ _______ _______ _____ _____    ______ ____
ROOT
ATOM      1  C   UNL     1       8.710   9.362  18.614  0.00  0.00    +0.000 A 
ATOM      2  C   UNL     1       7.854   9.425  17.531  0.00  0.00    +0.000 A 
ATOM      3  C   UNL     1       7.391   8.116  17.297  0.00  0.00    +0.000 A 
ATOM      4  C   UNL     1       7.977   7.316  18.256  0.00  0.00    +0.000 A 
ATOM      5  O   UNL     1       8.794   8.067  19.052  0.00  0.00    +0.000 OA
ENDROOT
BRANCH   1  10
ATOM      6  C   UNL     1       9.617  11.924  21.239  0.00  0.00    +0.000 A 
ATOM      7  C   UNL     1      10.769  12.495  20.682  0.00  0.00    +0.000 A 
ATOM      8  C   UNL     1      11.271  11.991  19.486  0.00  0.00    +0.000 A 
ATOM      9  C   UNL     1      10.609  10.941  18.843  0.00  0.00    +0.000 A 
ATOM     10  C   UNL     1       9.435  10.377  19.374  0.00  0.00    +0.000 A 
ATOM     11  C   UNL     1       8.957  10.860  20.600  0.00  0.00    +0.000 A 
BRANCH   6  13
ATOM     12  O   UNL     1       9.278  13.663  22.736  0.00  0.00    +0.000 OA
ATOM     13  N   UNL     1       9.075  12.467  22.490  0.00  0.00    +0.000 N 
ATOM     14  O   UNL     1       8.433  11.700  23.224  0.00  0.00    +0.000 OA
ENDBRANCH   6  13
ENDBRANCH   1  10
BRANCH   4  15
ATOM     15  C   UNL     1       7.803   5.881  18.606  0.00  0.00    +0.000 C 
ATOM     16  C   UNL     1       6.406   5.624  19.160  0.00  0.00    +0.000 C 
ATOM     17  C   UNL     1       5.914   4.563  18.213  0.00  0.00    +0.000 C 
ATOM     18  N   UNL     1       6.759   4.210  17.296  0.00  0.00    +0.000 NA
ATOM     19  N   UNL     1       7.815   5.040  17.408  0.00  0.00    +0.000 N 
ATOM     20  H   UNL     1       8.718   4.622  17.195  0.00  0.00    +0.000 HD
BRANCH  17  21
ATOM     21  C   UNL     1       4.566   3.967  18.360  0.00  0.00    +0.000 A 
ATOM     22  C   UNL     1       4.061   3.620  19.618  0.00  0.00    +0.000 A 
ATOM     23  C   UNL     1       2.791   3.048  19.733  0.00  0.00    +0.000 A 
ATOM     24  C   UNL     1       2.025   2.825  18.590  0.00  0.00    +0.000 A 
ATOM     25 CL   UNL     1       0.472   2.100  18.734  0.00  0.00    +0.000 Cl
ATOM     26  C   UNL     1       2.511   3.183  17.333  0.00  0.00    +0.000 A 
ATOM     27  C   UNL     1       3.780   3.757  17.218  0.00  0.00    +0.000 A 
ENDBRANCH  17  21
ENDBRANCH   4  15
TORSDOF 4
ENDMDL
MODEL 5
REMARK VINA RESULT:      -8.5      4.297      8.786
REMARK  Name = 
REMARK  4 active torsions:
REMARK  status: ('A' for Active; 'I' for Inactive)
REMARK    1  A    between atoms: N_2  and  C_4
REMARK    2  A    between atoms: C_8  and  C_9
REMARK    3  A    between atoms: C_12  and  C_13
REMARK    4  A    between atoms: C_15  and  C_16
REMARK                            x       y       z     vdW  Elec       q    Type
REMARK                         _______ _______ _______ _____ _____    ______ ____
ROOT
ATOM      1  C   UNL     1       2.174   6.409  19.910  0.00  0.00    +0.000 A 
ATOM      2  C   UNL     1       1.701   5.526  20.861  0.00  0.00    +0.000 A 
ATOM      3  C   UNL     1       2.446   4.340  20.726  0.00  0.00    +0.000 A 
ATOM      4  C   UNL     1       3.347   4.557  19.705  0.00  0.00    +0.000 A 
ATOM      5  O   UNL     1       3.177   5.812  19.193  0.00  0.00    +0.000 OA
ENDROOT
BRANCH   1  10
ATOM      6  C   UNL     1       0.836   9.936  20.148  0.00  0.00    +0.000 A 
ATOM      7  C   UNL     1       1.109  10.422  18.863  0.00  0.00    +0.000 A 
ATOM      8  C   UNL     1       1.785   9.613  17.956  0.00  0.00    +0.000 A 
ATOM      9  C   UNL     1       2.162   8.319  18.326  0.00  0.00    +0.000 A 
ATOM     10  C   UNL     1       1.868   7.805  19.603  0.00  0.00    +0.000 A 
ATOM     11  C   UNL     1       1.224   8.638  20.527  0.00  0.00    +0.000 A 
BRANCH   6  13
ATOM     12  O   UNL     1      -0.856  11.433  20.672  0.00  0.00    +0.000 OA
ATOM     13  N   UNL     1       0.105  10.781  21.100  0.00  0.00    +0.000 N 
ATOM     14  O   UNL     1       0.484  10.783  22.281  0.00  0.00    +0.000 OA
ENDBRANCH   6  13
ENDBRANCH   1  10
BRANCH   4  15
ATOM     15  C   UNL     1       4.469   3.741  19.167  0.00  0.00    +0.000 C 
ATOM     16  C   UNL     1       4.393   3.650  17.648  0.00  0.00    +0.000 C 
ATOM     17  C   UNL     1       5.741   4.195  17.260  0.00  0.00    +0.000 C 
ATOM     18  N   UNL     1       6.501   4.538  18.254  0.00  0.00    +0.000 NA
ATOM     19  N   UNL     1       5.753   4.414  19.368  0.00  0.00    +0.000 N 
ATOM     20  H   UNL     1       6.262   4.113  20.198  0.00  0.00    +0.000 HD
BRANCH  17  21
ATOM     21  C   UNL     1       6.152   4.295  15.841  0.00  0.00    +0.000 A 
ATOM     22  C   UNL     1       7.334   4.948  15.474  0.00  0.00    +0.000 A 
ATOM     23  C   UNL     1       7.697   5.040  14.128  0.00  0.00    +0.000 A 
ATOM     24  C   UNL     1       6.881   4.478  13.148  0.00  0.00    +0.000 A 
ATOM     25 CL   UNL     1       7.320   4.614  11.492  0.00  0.00    +0.000 Cl
ATOM     26  C   UNL     1       5.710   3.809  13.504  0.00  0.00    +0.000 A 
ATOM     27  C   UNL     1       5.347   3.714  14.850  0.00  0.00    +0.000 A 
ENDBRANCH  17  21
ENDBRANCH   4  15
TORSDOF 4
ENDMDL
MODEL 6
REMARK VINA RESULT:      -8.5      4.298      8.775
REMARK  Name = 
REMARK  4 active torsions:
REMARK  status: ('A' for Active; 'I' for Inactive)
REMARK    1  A    between atoms: N_2  and  C_4
REMARK    2  A    between atoms: C_8  and  C_9
REMARK    3  A    between atoms: C_12  and  C_13
REMARK    4  A    between atoms: C_15  and  C_16
REMARK                            x       y       z     vdW  Elec       q    Type
REMARK                         _______ _______ _______ _____ _____    ______ ____
ROOT
ATOM      1  C   UNL     1       2.138   6.459  19.924  0.00  0.00    +0.000 A 
ATOM      2  C   UNL     1       1.674   5.611  20.910  0.00  0.00    +0.000 A 
ATOM      3  C   UNL     1       2.382   4.401  20.777  0.00  0.00    +0.000 A 
ATOM      4  C   UNL     1       3.255   4.572  19.723  0.00  0.00    +0.000 A 
ATOM      5  O   UNL     1       3.101   5.819  19.188  0.00  0.00    +0.000 OA
ENDROOT
BRANCH   1  10
ATOM      6  C   UNL     1       0.933  10.035  20.139  0.00  0.00    +0.000 A 
ATOM      7  C   UNL     1       1.141  10.476  18.826  0.00  0.00    +0.000 A 
ATOM      8  C   UNL     1       1.733   9.619  17.903  0.00  0.00    +0.000 A 
ATOM      9  C   UNL     1       2.090   8.323  18.288  0.00  0.00    +0.000 A 
ATOM     10  C   UNL     1       1.859   7.856  19.594  0.00  0.00    +0.000 A 
ATOM     11  C   UNL     1       1.301   8.736  20.531  0.00  0.00    +0.000 A 
BRANCH   6  13
ATOM     12  O   UNL     1       0.936  11.908  21.507  0.00  0.00    +0.000 OA
ATOM     13  N   UNL     1       0.290  10.930  21.108  0.00  0.00    +0.000 N 
ATOM     14  O   UNL     1      -0.868  10.664  21.462  0.00  0.00    +0.000 OA
ENDBRANCH   6  13
ENDBRANCH   1  10
BRANCH   4  15
ATOM     15  C   UNL     1       4.336   3.714  19.168  0.00  0.00    +0.000 C 
ATOM     16  C   UNL     1       4.264   3.667  17.646  0.00  0.00    +0.000 C 
ATOM     17  C   UNL     1       5.640   4.152  17.279  0.00  0.00    +0.000 C 
ATOM     18  N   UNL     1       6.411   4.430  18.284  0.00  0.00    +0.000 NA
ATOM     19  N   UNL     1       5.652   4.314  19.392  0.00  0.00    +0.000 N 
ATOM     20  H   UNL     1       6.140   3.966  20.215  0.00  0.00    +0.000 HD
BRANCH  17  21
ATOM     21  C   UNL     1       6.063   4.269  15.864  0.00  0.00    +0.000 A 
ATOM     22  C   UNL     1       5.347   3.638  14.840  0.00  0.00    +0.000 A 
ATOM     23  C   UNL     1       5.769   3.753  13.514  0.00  0.00    +0.000 A 
ATOM     24  C   UNL     1       6.906   4.499  13.209  0.00  0.00    +0.000 A 
ATOM     25 CL   UNL     1       7.435   4.618  11.578  0.00  0.00    +0.000 Cl
ATOM     26  C   UNL     1       7.616   5.147  14.219  0.00  0.00    +0.000 A 
ATOM     27  C   UNL     1       7.193   5.035  15.547  0.00  0.00    +0.000 A 
ENDBRANCH  17  21
ENDBRANCH   4  15
TORSDOF 4
ENDMDL
MODEL 7
REMARK VINA RESULT:      -8.4      3.813      6.025
REMARK  Name = 
REMARK  4 active torsions:
REMARK  status: ('A' for Active; 'I' for Inactive)
REMARK    1  A    between atoms: N_2  and  C_4
REMARK    2  A    between atoms: C_8  and  C_9
REMARK    3  A    between atoms: C_12  and  C_13
REMARK    4  A    between atoms: C_15  and  C_16
REMARK                            x       y       z     vdW  Elec       q    Type
REMARK                         _______ _______ _______ _____ _____    ______ ____
ROOT
ATOM      1  C   UNL     1       2.833   6.979  18.772  0.00  0.00    +0.000 A 
ATOM      2  C   UNL     1       2.202   6.996  20.001  0.00  0.00    +0.000 A 
ATOM      3  C   UNL     1       1.516   8.222  20.093  0.00  0.00    +0.000 A 
ATOM      4  C   UNL     1       1.750   8.892  18.911  0.00  0.00    +0.000 A 
ATOM      5  O   UNL     1       2.565   8.146  18.107  0.00  0.00    +0.000 OA
ENDROOT
BRANCH   1  10
ATOM      6  C   UNL     1       5.617   5.272  16.871  0.00  0.00    +0.000 A 
ATOM      7  C   UNL     1       5.009   4.060  16.519  0.00  0.00    +0.000 A 
ATOM      8  C   UNL     1       3.719   3.789  16.963  0.00  0.00    +0.000 A 
ATOM      9  C   UNL     1       3.036   4.736  17.732  0.00  0.00    +0.000 A 
ATOM     10  C   UNL     1       3.622   5.970  18.068  0.00  0.00    +0.000 A 
ATOM     11  C   UNL     1       4.937   6.221  17.654  0.00  0.00    +0.000 A 
BRANCH   6  13
ATOM     12  O   UNL     1       7.590   4.662  15.815  0.00  0.00    +0.000 OA
ATOM     13  N   UNL     1       6.971   5.568  16.387  0.00  0.00    +0.000 N 
ATOM     14  O   UNL     1       7.412   6.714  16.566  0.00  0.00    +0.000 OA
ENDBRANCH   6  13
ENDBRANCH   1  10
BRANCH   4  15
ATOM     15  C   UNL     1       1.218  10.167  18.358  0.00  0.00    +0.000 C 
ATOM     16  C   UNL     1      -0.200   9.979  17.832  0.00  0.00    +0.000 C 
ATOM     17  C   UNL     1      -0.941  11.016  18.631  0.00  0.00    +0.000 C 
ATOM     18  N   UNL     1      -0.209  11.706  19.449  0.00  0.00    +0.000 NA
ATOM     19  N   UNL     1       1.021  11.158  19.417  0.00  0.00    +0.000 N 
ATOM     20  H   UNL     1       1.791  11.816  19.527  0.00  0.00    +0.000 HD
BRANCH  17  21
ATOM     21  C   UNL     1      -2.396  11.229  18.454  0.00  0.00    +0.000 A 
ATOM     22  C   UNL     1      -3.127  12.019  19.349  0.00  0.00    +0.000 A 
ATOM     23  C   UNL     1      -4.501  12.198  19.169  0.00  0.00    +0.000 A 
ATOM     24  C   UNL     1      -5.145  11.588  18.094  0.00  0.00    +0.000 A 
ATOM     25 CL   UNL     1      -6.840  11.792  17.891  0.00  0.00    +0.000 Cl
ATOM     26  C   UNL     1      -4.425  10.813  17.187  0.00  0.00    +0.000 A 
ATOM     27  C   UNL     1      -3.050  10.635  17.364  0.00  0.00    +0.000 A 
ENDBRANCH  17  21
ENDBRANCH   4  15
TORSDOF 4
ENDMDL
MODEL 8
REMARK VINA RESULT:      -8.2      3.224      4.839
REMARK  Name = 
REMARK  4 active torsions:
REMARK  status: ('A' for Active; 'I' for Inactive)
REMARK    1  A    between atoms: N_2  and  C_4
REMARK    2  A    between atoms: C_8  and  C_9
REMARK    3  A    between atoms: C_12  and  C_13
REMARK    4  A    between atoms: C_15  and  C_16
REMARK                            x       y       z     vdW  Elec       q    Type
REMARK                         _______ _______ _______ _____ _____    ______ ____
ROOT
ATOM      1  C   UNL     1       3.835   6.154  17.833  0.00  0.00    +0.000 A 
ATOM      2  C   UNL     1       2.605   5.538  17.950  0.00  0.00    +0.000 A 
ATOM      3  C   UNL     1       1.683   6.531  18.331  0.00  0.00    +0.000 A 
ATOM      4  C   UNL     1       2.391   7.711  18.419  0.00  0.00    +0.000 A 
ATOM      5  O   UNL     1       3.708   7.486  18.131  0.00  0.00    +0.000 OA
ENDROOT
BRANCH   1  10
ATOM      6  C   UNL     1       6.711   4.995  15.673  0.00  0.00    +0.000 A 
ATOM      7  C   UNL     1       7.628   4.566  16.640  0.00  0.00    +0.000 A 
ATOM      8  C   UNL     1       7.322   4.722  17.988  0.00  0.00    +0.000 A 
ATOM      9  C   UNL     1       6.096   5.279  18.362  0.00  0.00    +0.000 A 
ATOM     10  C   UNL     1       5.151   5.686  17.402  0.00  0.00    +0.000 A 
ATOM     11  C   UNL     1       5.482   5.566  16.046  0.00  0.00    +0.000 A 
BRANCH   6  13
ATOM     12  O   UNL     1       6.406   3.939  13.630  0.00  0.00    +0.000 OA
ATOM     13  N   UNL     1       7.024   4.813  14.250  0.00  0.00    +0.000 N 
ATOM     14  O   UNL     1       7.882   5.556  13.747  0.00  0.00    +0.000 OA
ENDBRANCH   6  13
ENDBRANCH   1  10
BRANCH   4  15
ATOM     15  C   UNL     1       1.971   9.117  18.662  0.00  0.00    +0.000 C 
ATOM     16  C   UNL     1       0.824   9.508  17.737  0.00  0.00    +0.000 C 
ATOM     17  C   UNL     1      -0.218   9.930  18.737  0.00  0.00    +0.000 C 
ATOM     18  N   UNL     1       0.147   9.851  19.979  0.00  0.00    +0.000 NA
ATOM     19  N   UNL     1       1.360   9.263  19.984  0.00  0.00    +0.000 N 
ATOM     20  H   UNL     1       1.995   9.589  20.709  0.00  0.00    +0.000 HD
BRANCH  17  21
ATOM     21  C   UNL     1      -1.547  10.421  18.303  0.00  0.00    +0.000 A 
ATOM     22  C   UNL     1      -2.152   9.936  17.137  0.00  0.00    +0.000 A 
ATOM     23  C   UNL     1      -3.401  10.420  16.741  0.00  0.00    +0.000 A 
ATOM     24  C   UNL     1      -4.047  11.387  17.509  0.00  0.00    +0.000 A 
ATOM     25 CL   UNL     1      -5.573  11.996  17.003  0.00  0.00    +0.000 Cl
ATOM     26  C   UNL     1      -3.461  11.864  18.681  0.00  0.00    +0.000 A 
ATOM     27  C   UNL     1      -2.213  11.379  19.080  0.00  0.00    +0.000 A 
ENDBRANCH  17  21
ENDBRANCH   4  15
TORSDOF 4
ENDMDL
MODEL 9
REMARK VINA RESULT:      -8.2      4.897      6.875
REMARK  Name = 
REMARK  4 active torsions:
REMARK  status: ('A' for Active; 'I' for Inactive)
REMARK    1  A    between atoms: N_2  and  C_4
REMARK    2  A    between atoms: C_8  and  C_9
REMARK    3  A    between atoms: C_12  and  C_13
REMARK    4  A    between atoms: C_15  and  C_16
REMARK                            x       y       z     vdW  Elec       q    Type
REMARK                         _______ _______ _______ _____ _____    ______ ____
ROOT
ATOM      1  C   UNL     1       2.597   6.384  18.952  0.00  0.00    +0.000 A 
ATOM      2  C   UNL     1       3.294   6.813  17.840  0.00  0.00    +0.000 A 
ATOM      3  C   UNL     1       2.979   8.172  17.656  0.00  0.00    +0.000 A 
ATOM      4  C   UNL     1       2.111   8.514  18.672  0.00  0.00    +0.000 A 
ATOM      5  O   UNL     1       1.862   7.425  19.458  0.00  0.00    +0.000 OA
ENDROOT
BRANCH   1  10
ATOM      6  C   UNL     1       3.357   2.858  20.080  0.00  0.00    +0.000 A 
ATOM      7  C   UNL     1       2.308   2.624  20.979  0.00  0.00    +0.000 A 
ATOM      8  C   UNL     1       1.403   3.643  21.253  0.00  0.00    +0.000 A 
ATOM      9  C   UNL     1       1.534   4.879  20.613  0.00  0.00    +0.000 A 
ATOM     10  C   UNL     1       2.564   5.121  19.686  0.00  0.00    +0.000 A 
ATOM     11  C   UNL     1       3.498   4.104  19.444  0.00  0.00    +0.000 A 
BRANCH   6  13
ATOM     12  O   UNL     1       4.094   1.099  18.760  0.00  0.00    +0.000 OA
ATOM     13  N   UNL     1       4.301   1.777  19.774  0.00  0.00    +0.000 N 
ATOM     14  O   UNL     1       5.262   1.613  20.542  0.00  0.00    +0.000 OA
ENDBRANCH   6  13
ENDBRANCH   1  10
BRANCH   4  15
ATOM     15  C   UNL     1       1.516   9.813  19.087  0.00  0.00    +0.000 C 
ATOM     16  C   UNL     1       0.380  10.212  18.153  0.00  0.00    +0.000 C 
ATOM     17  C   UNL     1      -0.754  10.362  19.130  0.00  0.00    +0.000 C 
ATOM     18  N   UNL     1      -0.446  10.136  20.369  0.00  0.00    +0.000 NA
ATOM     19  N   UNL     1       0.825   9.689  20.372  0.00  0.00    +0.000 N 
ATOM     20  H   UNL     1       1.380   9.969  21.178  0.00  0.00    +0.000 HD
BRANCH  17  21
ATOM     21  C   UNL     1      -2.108  10.765  18.682  0.00  0.00    +0.000 A 
ATOM     22  C   UNL     1      -2.744  10.109  17.621  0.00  0.00    +0.000 A 
ATOM     23  C   UNL     1      -4.016  10.513  17.208  0.00  0.00    +0.000 A 
ATOM     24  C   UNL     1      -4.654  11.569  17.856  0.00  0.00    +0.000 A 
ATOM     25 CL   UNL     1      -6.210  12.077  17.328  0.00  0.00    +0.000 Cl
ATOM     26  C   UNL     1      -4.037  12.217  18.924  0.00  0.00    +0.000 A 
ATOM     27  C   UNL     1      -2.765  11.814  19.340  0.00  0.00    +0.000 A 
ENDBRANCH  17  21
ENDBRANCH   4  15
TORSDOF 4
ENDMDL
