MODEL 1
REMARK VINA RESULT:      -7.3      0.000      0.000
REMARK  Name = 
REMARK  4 active torsions:
REMARK  status: ('A' for Active; 'I' for Inactive)
REMARK    1  A    between atoms: C_1  and  C_2
REMARK    2  A    between atoms: C_9  and  C_10
REMARK    3  A    between atoms: N_14  and  C_15
REMARK    4  A    between atoms: C_15  and  C_16
REMARK                            x       y       z     vdW  Elec       q    Type
REMARK                         _______ _______ _______ _____ _____    ______ ____
ROOT
ATOM      1  C   UNL     1       4.423   4.982  18.861  0.00  0.00    +0.000 A 
ATOM      2  C   UNL     1       3.859   3.835  19.380  0.00  0.00    +0.000 A 
ATOM      3  S   UNL     1       2.541   4.227  20.395  0.00  0.00    +0.000 S 
ATOM      4  C   UNL     1       2.773   5.894  20.037  0.00  0.00    +0.000 A 
ATOM      5  N   UNL     1       1.944   6.806  20.589  0.00  0.00    +0.000 N 
ATOM      6  N   UNL     1       3.780   6.153  19.233  0.00  0.00    +0.000 NA
ATOM      7  H   UNL     1       1.154   6.444  21.113  0.00  0.00    +0.000 HD
ENDROOT
BRANCH   1  16
ATOM      8  C   UNL     1       7.591   5.648  19.587  0.00  0.00    +0.000 C 
ATOM      9  C   UNL     1       6.958   5.299  18.293  0.00  0.00    +0.000 A 
ATOM     10  N   UNL     1       7.769   5.224  17.169  0.00  0.00    +0.000 NA
ATOM     11  C   UNL     1       6.940   4.905  16.219  0.00  0.00    +0.000 A 
ATOM     12  S   UNL     1       7.105   4.633  14.511  0.00  0.00    +0.000 S 
ATOM     13  C   UNL     1       5.360   4.346  14.429  0.00  0.00    +0.000 A 
ATOM     14  C   UNL     1       4.753   4.453  15.625  0.00  0.00    +0.000 A 
ATOM     15  N   UNL     1       5.648   4.766  16.629  0.00  0.00    +0.000 N 
ATOM     16  C   UNL     1       5.625   5.012  17.980  0.00  0.00    +0.000 A 
ENDBRANCH   1  16
BRANCH   5  17
ATOM     17  C   UNL     1       1.679   8.048  19.895  0.00  0.00    +0.000 C 
BRANCH  17  18
ATOM     18  C   UNL     1       0.908   8.986  20.798  0.00  0.00    +0.000 A 
ATOM     19  C   UNL     1       0.263   8.505  21.946  0.00  0.00    +0.000 A 
ATOM     20  C   UNL     1      -0.438   9.377  22.782  0.00  0.00    +0.000 A 
ATOM     21  C   UNL     1      -0.509  10.734  22.475  0.00  0.00    +0.000 A 
ATOM     22  C   UNL     1       0.108  11.221  21.325  0.00  0.00    +0.000 A 
ATOM     23  C   UNL     1       0.809  10.350  20.487  0.00  0.00    +0.000 A 
ENDBRANCH  17  18
ENDBRANCH   5  17
TORSDOF 3
ENDMDL
MODEL 2
REMARK VINA RESULT:      -7.1      3.320      8.486
REMARK  Name = 
REMARK  4 active torsions:
REMARK  status: ('A' for Active; 'I' for Inactive)
REMARK    1  A    between atoms: C_1  and  C_2
REMARK    2  A    between atoms: C_9  and  C_10
REMARK    3  A    between atoms: N_14  and  C_15
REMARK    4  A    between atoms: C_15  and  C_16
REMARK                            x       y       z     vdW  Elec       q    Type
REMARK                         _______ _______ _______ _____ _____    ______ ____
ROOT
ATOM      1  C   UNL     1       5.164   4.759  17.591  0.00  0.00    +0.000 A 
ATOM      2  C   UNL     1       6.254   4.808  18.435  0.00  0.00    +0.000 A 
ATOM      3  S   UNL     1       7.705   4.679  17.541  0.00  0.00    +0.000 S 
ATOM      4  C   UNL     1       6.791   4.620  16.084  0.00  0.00    +0.000 A 
ATOM      5  N   UNL     1       7.441   4.521  14.905  0.00  0.00    +0.000 N 
ATOM      6  N   UNL     1       5.487   4.667  16.246  0.00  0.00    +0.000 NA
ATOM      7  H   UNL     1       8.453   4.591  14.936  0.00  0.00    +0.000 HD
ENDROOT
BRANCH   1  16
ATOM      8  C   UNL     1       3.079   7.318  17.923  0.00  0.00    +0.000 C 
ATOM      9  C   UNL     1       2.871   5.874  18.182  0.00  0.00    +0.000 A 
ATOM     10  N   UNL     1       1.625   5.465  18.637  0.00  0.00    +0.000 NA
ATOM     11  C   UNL     1       1.757   4.177  18.764  0.00  0.00    +0.000 A 
ATOM     12  S   UNL     1       0.705   2.901  19.293  0.00  0.00    +0.000 S 
ATOM     13  C   UNL     1       2.030   1.756  19.038  0.00  0.00    +0.000 A 
ATOM     14  C   UNL     1       3.152   2.345  18.583  0.00  0.00    +0.000 A 
ATOM     15  N   UNL     1       2.991   3.707  18.428  0.00  0.00    +0.000 N 
ATOM     16  C   UNL     1       3.742   4.789  18.039  0.00  0.00    +0.000 A 
ENDBRANCH   1  16
BRANCH   5  17
ATOM     17  C   UNL     1       6.844   5.072  13.708  0.00  0.00    +0.000 C 
BRANCH  17  18
ATOM     18  C   UNL     1       6.435   3.954  12.775  0.00  0.00    +0.000 A 
ATOM     19  C   UNL     1       7.402   3.170  12.130  0.00  0.00    +0.000 A 
ATOM     20  C   UNL     1       7.020   2.132  11.278  0.00  0.00    +0.000 A 
ATOM     21  C   UNL     1       5.669   1.872  11.055  0.00  0.00    +0.000 A 
ATOM     22  C   UNL     1       4.698   2.657  11.673  0.00  0.00    +0.000 A 
ATOM     23  C   UNL     1       5.079   3.698  12.524  0.00  0.00    +0.000 A 
ENDBRANCH  17  18
ENDBRANCH   5  17
TORSDOF 3
ENDMDL
MODEL 3
REMARK VINA RESULT:      -7.1      4.244      8.088
REMARK  Name = 
REMARK  4 active torsions:
REMARK  status: ('A' for Active; 'I' for Inactive)
REMARK    1  A    between atoms: C_1  and  C_2
REMARK    2  A    between atoms: C_9  and  C_10
REMARK    3  A    between atoms: N_14  and  C_15
REMARK    4  A    between atoms: C_15  and  C_16
REMARK                            x       y       z     vdW  Elec       q    Type
REMARK                         _______ _______ _______ _____ _____    ______ ____
ROOT
ATOM      1  C   UNL     1       0.276  10.173  20.210  0.00  0.00    +0.000 A 
ATOM      2  C   UNL     1       0.441  10.510  21.537  0.00  0.00    +0.000 A 
ATOM      3  S   UNL     1       1.197   9.233  22.385  0.00  0.00    +0.000 S 
ATOM      4  C   UNL     1       1.304   8.336  20.920  0.00  0.00    +0.000 A 
ATOM      5  N   UNL     1       1.879   7.115  20.938  0.00  0.00    +0.000 N 
ATOM      6  N   UNL     1       0.790   8.932  19.867  0.00  0.00    +0.000 NA
ATOM      7  H   UNL     1       2.315   6.830  21.809  0.00  0.00    +0.000 HD
ENDROOT
BRANCH   1  16
ATOM      8  C   UNL     1       0.894  13.306  19.309  0.00  0.00    +0.000 C 
ATOM      9  C   UNL     1      -0.135  12.356  18.824  0.00  0.00    +0.000 A 
ATOM     10  N   UNL     1      -1.009  12.788  17.836  0.00  0.00    +0.000 NA
ATOM     11  C   UNL     1      -1.769  11.752  17.631  0.00  0.00    +0.000 A 
ATOM     12  S   UNL     1      -3.121  11.433  16.590  0.00  0.00    +0.000 S 
ATOM     13  C   UNL     1      -3.221   9.808  17.283  0.00  0.00    +0.000 A 
ATOM     14  C   UNL     1      -2.279   9.576  18.217  0.00  0.00    +0.000 A 
ATOM     15  N   UNL     1      -1.464  10.674  18.407  0.00  0.00    +0.000 N 
ATOM     16  C   UNL     1      -0.398  11.032  19.195  0.00  0.00    +0.000 A 
ENDBRANCH   1  16
BRANCH   5  17
ATOM     17  C   UNL     1       2.540   6.614  19.752  0.00  0.00    +0.000 C 
BRANCH  17  18
ATOM     18  C   UNL     1       2.020   5.234  19.417  0.00  0.00    +0.000 A 
ATOM     19  C   UNL     1       2.123   4.726  18.114  0.00  0.00    +0.000 A 
ATOM     20  C   UNL     1       1.650   3.447  17.812  0.00  0.00    +0.000 A 
ATOM     21  C   UNL     1       1.063   2.666  18.806  0.00  0.00    +0.000 A 
ATOM     22  C   UNL     1       0.934   3.167  20.100  0.00  0.00    +0.000 A 
ATOM     23  C   UNL     1       1.404   4.447  20.403  0.00  0.00    +0.000 A 
ENDBRANCH  17  18
ENDBRANCH   5  17
TORSDOF 3
ENDMDL
MODEL 4
REMARK VINA RESULT:      -7.1      4.246      8.043
REMARK  Name = 
REMARK  4 active torsions:
REMARK  status: ('A' for Active; 'I' for Inactive)
REMARK    1  A    between atoms: C_1  and  C_2
REMARK    2  A    between atoms: C_9  and  C_10
REMARK    3  A    between atoms: N_14  and  C_15
REMARK    4  A    between atoms: C_15  and  C_16
REMARK                            x       y       z     vdW  Elec       q    Type
REMARK                         _______ _______ _______ _____ _____    ______ ____
ROOT
ATOM      1  C   UNL     1       0.266  10.181  20.218  0.00  0.00    +0.000 A 
ATOM      2  C   UNL     1       0.427  10.522  21.544  0.00  0.00    +0.000 A 
ATOM      3  S   UNL     1       1.182   9.248  22.398  0.00  0.00    +0.000 S 
ATOM      4  C   UNL     1       1.293   8.346  20.937  0.00  0.00    +0.000 A 
ATOM      5  N   UNL     1       1.869   7.125  20.961  0.00  0.00    +0.000 N 
ATOM      6  N   UNL     1       0.782   8.939  19.881  0.00  0.00    +0.000 NA
ATOM      7  H   UNL     1       2.303   6.844  21.834  0.00  0.00    +0.000 HD
ENDROOT
BRANCH   1  16
ATOM      8  C   UNL     1       0.897  13.305  19.295  0.00  0.00    +0.000 C 
ATOM      9  C   UNL     1      -0.137  12.356  18.818  0.00  0.00    +0.000 A 
ATOM     10  N   UNL     1      -1.010  12.785  17.828  0.00  0.00    +0.000 NA
ATOM     11  C   UNL     1      -1.775  11.751  17.631  0.00  0.00    +0.000 A 
ATOM     12  S   UNL     1      -3.131  11.431  16.594  0.00  0.00    +0.000 S 
ATOM     13  C   UNL     1      -3.236   9.811  17.298  0.00  0.00    +0.000 A 
ATOM     14  C   UNL     1      -2.295   9.582  18.232  0.00  0.00    +0.000 A 
ATOM     15  N   UNL     1      -1.474  10.677  18.414  0.00  0.00    +0.000 N 
ATOM     16  C   UNL     1      -0.405  11.036  19.198  0.00  0.00    +0.000 A 
ENDBRANCH   1  16
BRANCH   5  17
ATOM     17  C   UNL     1       2.534   6.621  19.778  0.00  0.00    +0.000 C 
BRANCH  17  18
ATOM     18  C   UNL     1       2.013   5.241  19.445  0.00  0.00    +0.000 A 
ATOM     19  C   UNL     1       1.391   4.455  20.426  0.00  0.00    +0.000 A 
ATOM     20  C   UNL     1       0.903   3.185  20.112  0.00  0.00    +0.000 A 
ATOM     21  C   UNL     1       1.040   2.684  18.818  0.00  0.00    +0.000 A 
ATOM     22  C   UNL     1       1.676   3.445  17.841  0.00  0.00    +0.000 A 
ATOM     23  C   UNL     1       2.167   4.715  18.154  0.00  0.00    +0.000 A 
ENDBRANCH  17  18
ENDBRANCH   5  17
TORSDOF 3
ENDMDL
MODEL 5
REMARK VINA RESULT:      -7.1      3.316      8.435
REMARK  Name = 
REMARK  4 active torsions:
REMARK  status: ('A' for Active; 'I' for Inactive)
REMARK    1  A    between atoms: C_1  and  C_2
REMARK    2  A    between atoms: C_9  and  C_10
REMARK    3  A    between atoms: N_14  and  C_15
REMARK    4  A    between atoms: C_15  and  C_16
REMARK                            x       y       z     vdW  Elec       q    Type
REMARK                         _______ _______ _______ _____ _____    ______ ____
ROOT
ATOM      1  C   UNL     1       5.175   4.774  17.621  0.00  0.00    +0.000 A 
ATOM      2  C   UNL     1       6.259   4.810  18.472  0.00  0.00    +0.000 A 
ATOM      3  S   UNL     1       7.715   4.683  17.585  0.00  0.00    +0.000 S 
ATOM      4  C   UNL     1       6.809   4.642  16.122  0.00  0.00    +0.000 A 
ATOM      5  N   UNL     1       7.466   4.553  14.946  0.00  0.00    +0.000 N 
ATOM      6  N   UNL     1       5.505   4.695  16.277  0.00  0.00    +0.000 NA
ATOM      7  H   UNL     1       8.478   4.618  14.984  0.00  0.00    +0.000 HD
ENDROOT
BRANCH   1  16
ATOM      8  C   UNL     1       3.087   7.334  17.926  0.00  0.00    +0.000 C 
ATOM      9  C   UNL     1       2.877   5.892  18.193  0.00  0.00    +0.000 A 
ATOM     10  N   UNL     1       1.629   5.485  18.644  0.00  0.00    +0.000 NA
ATOM     11  C   UNL     1       1.761   4.198  18.780  0.00  0.00    +0.000 A 
ATOM     12  S   UNL     1       0.707   2.925  19.312  0.00  0.00    +0.000 S 
ATOM     13  C   UNL     1       2.034   1.779  19.071  0.00  0.00    +0.000 A 
ATOM     14  C   UNL     1       3.158   2.365  18.618  0.00  0.00    +0.000 A 
ATOM     15  N   UNL     1       2.997   3.726  18.454  0.00  0.00    +0.000 N 
ATOM     16  C   UNL     1       3.750   4.806  18.061  0.00  0.00    +0.000 A 
ENDBRANCH   1  16
BRANCH   5  17
ATOM     17  C   UNL     1       6.878   5.119  13.751  0.00  0.00    +0.000 C 
BRANCH  17  18
ATOM     18  C   UNL     1       6.430   4.011  12.824  0.00  0.00    +0.000 A 
ATOM     19  C   UNL     1       5.066   3.764  12.610  0.00  0.00    +0.000 A 
ATOM     20  C   UNL     1       4.657   2.747  11.746  0.00  0.00    +0.000 A 
ATOM     21  C   UNL     1       5.605   1.961  11.093  0.00  0.00    +0.000 A 
ATOM     22  C   UNL     1       6.962   2.181  11.314  0.00  0.00    +0.000 A 
ATOM     23  C   UNL     1       7.374   3.197  12.180  0.00  0.00    +0.000 A 
ENDBRANCH  17  18
ENDBRANCH   5  17
TORSDOF 3
ENDMDL
MODEL 6
REMARK VINA RESULT:      -7.0      3.917      8.232
REMARK  Name = 
REMARK  4 active torsions:
REMARK  status: ('A' for Active; 'I' for Inactive)
REMARK    1  A    between atoms: C_1  and  C_2
REMARK    2  A    between atoms: C_9  and  C_10
REMARK    3  A    between atoms: N_14  and  C_15
REMARK    4  A    between atoms: C_15  and  C_16
REMARK                            x       y       z     vdW  Elec       q    Type
REMARK                         _______ _______ _______ _____ _____    ______ ____
ROOT
ATOM      1  C   UNL     1       0.650   9.729  18.924  0.00  0.00    +0.000 A 
ATOM      2  C   UNL     1       1.482   9.820  17.829  0.00  0.00    +0.000 A 
ATOM      3  S   UNL     1       2.694   8.617  17.902  0.00  0.00    +0.000 S 
ATOM      4  C   UNL     1       2.001   8.020  19.360  0.00  0.00    +0.000 A 
ATOM      5  N   UNL     1       2.563   6.952  19.965  0.00  0.00    +0.000 N 
ATOM      6  N   UNL     1       0.949   8.684  19.784  0.00  0.00    +0.000 NA
ATOM      7  H   UNL     1       3.315   6.489  19.465  0.00  0.00    +0.000 HD
ENDROOT
BRANCH   1  16
ATOM      8  C   UNL     1       0.397  12.175  21.152  0.00  0.00    +0.000 C 
ATOM      9  C   UNL     1      -0.582  11.684  20.154  0.00  0.00    +0.000 A 
ATOM     10  N   UNL     1      -1.822  12.307  20.094  0.00  0.00    +0.000 NA
ATOM     11  C   UNL     1      -2.437  11.666  19.143  0.00  0.00    +0.000 A 
ATOM     12  S   UNL     1      -4.019  11.779  18.437  0.00  0.00    +0.000 S 
ATOM     13  C   UNL     1      -3.600  10.423  17.379  0.00  0.00    +0.000 A 
ATOM     14  C   UNL     1      -2.351   9.965  17.582  0.00  0.00    +0.000 A 
ATOM     15  N   UNL     1      -1.700  10.670  18.575  0.00  0.00    +0.000 N 
ATOM     16  C   UNL     1      -0.482  10.658  19.208  0.00  0.00    +0.000 A 
ENDBRANCH   1  16
BRANCH   5  17
ATOM     17  C   UNL     1       1.742   6.063  20.759  0.00  0.00    +0.000 C 
BRANCH  17  18
ATOM     18  C   UNL     1       1.579   4.740  20.046  0.00  0.00    +0.000 A 
ATOM     19  C   UNL     1       1.165   3.596  20.745  0.00  0.00    +0.000 A 
ATOM     20  C   UNL     1       1.005   2.379  20.080  0.00  0.00    +0.000 A 
ATOM     21  C   UNL     1       1.266   2.288  18.714  0.00  0.00    +0.000 A 
ATOM     22  C   UNL     1       1.700   3.411  18.013  0.00  0.00    +0.000 A 
ATOM     23  C   UNL     1       1.862   4.630  18.677  0.00  0.00    +0.000 A 
ENDBRANCH  17  18
ENDBRANCH   5  17
TORSDOF 3
ENDMDL
MODEL 7
REMARK VINA RESULT:      -6.9      4.030      8.311
REMARK  Name = 
REMARK  4 active torsions:
REMARK  status: ('A' for Active; 'I' for Inactive)
REMARK    1  A    between atoms: C_1  and  C_2
REMARK    2  A    between atoms: C_9  and  C_10
REMARK    3  A    between atoms: N_14  and  C_15
REMARK    4  A    between atoms: C_15  and  C_16
REMARK                            x       y       z     vdW  Elec       q    Type
REMARK                         _______ _______ _______ _____ _____    ______ ____
ROOT
ATOM      1  C   UNL     1       0.700   9.780  18.912  0.00  0.00    +0.000 A 
ATOM      2  C   UNL     1       1.515   9.827  17.801  0.00  0.00    +0.000 A 
ATOM      3  S   UNL     1       2.682   8.580  17.867  0.00  0.00    +0.000 S 
ATOM      4  C   UNL     1       1.994   8.026  19.343  0.00  0.00    +0.000 A 
ATOM      5  N   UNL     1       2.526   6.944  19.950  0.00  0.00    +0.000 N 
ATOM      6  N   UNL     1       0.974   8.733  19.778  0.00  0.00    +0.000 NA
ATOM      7  H   UNL     1       3.251   6.448  19.442  0.00  0.00    +0.000 HD
ENDROOT
BRANCH   1  16
ATOM      8  C   UNL     1       0.670  12.419  20.923  0.00  0.00    +0.000 C 
ATOM      9  C   UNL     1      -0.397  11.862  20.059  0.00  0.00    +0.000 A 
ATOM     10  N   UNL     1      -1.629  12.502  20.047  0.00  0.00    +0.000 NA
ATOM     11  C   UNL     1      -2.331  11.792  19.214  0.00  0.00    +0.000 A 
ATOM     12  S   UNL     1      -3.967  11.874  18.635  0.00  0.00    +0.000 S 
ATOM     13  C   UNL     1      -3.657  10.422  17.673  0.00  0.00    +0.000 A 
ATOM     14  C   UNL     1      -2.401   9.958  17.811  0.00  0.00    +0.000 A 
ATOM     15  N   UNL     1      -1.659  10.735  18.677  0.00  0.00    +0.000 N 
ATOM     16  C   UNL     1      -0.391  10.753  19.205  0.00  0.00    +0.000 A 
ENDBRANCH   1  16
BRANCH   5  17
ATOM     17  C   UNL     1       1.687   6.095  20.769  0.00  0.00    +0.000 C 
BRANCH  17  18
ATOM     18  C   UNL     1       1.642   4.701  20.186  0.00  0.00    +0.000 A 
ATOM     19  C   UNL     1       1.671   4.504  18.798  0.00  0.00    +0.000 A 
ATOM     20  C   UNL     1       1.640   3.214  18.264  0.00  0.00    +0.000 A 
ATOM     21  C   UNL     1       1.571   2.109  19.110  0.00  0.00    +0.000 A 
ATOM     22  C   UNL     1       1.519   2.291  20.490  0.00  0.00    +0.000 A 
ATOM     23  C   UNL     1       1.548   3.581  21.026  0.00  0.00    +0.000 A 
ENDBRANCH  17  18
ENDBRANCH   5  17
TORSDOF 3
ENDMDL
MODEL 8
REMARK VINA RESULT:      -6.9      3.809      8.547
REMARK  Name = 
REMARK  4 active torsions:
REMARK  status: ('A' for Active; 'I' for Inactive)
REMARK    1  A    between atoms: C_1  and  C_2
REMARK    2  A    between atoms: C_9  and  C_10
REMARK    3  A    between atoms: N_14  and  C_15
REMARK    4  A    between atoms: C_15  and  C_16
REMARK                            x       y       z     vdW  Elec       q    Type
REMARK                         _______ _______ _______ _____ _____    ______ ____
ROOT
ATOM      1  C   UNL     1       0.651   9.649  18.942  0.00  0.00    +0.000 A 
ATOM      2  C   UNL     1       1.497   9.777  17.861  0.00  0.00    +0.000 A 
ATOM      3  S   UNL     1       2.726   8.591  17.925  0.00  0.00    +0.000 S 
ATOM      4  C   UNL     1       2.021   7.951  19.358  0.00  0.00    +0.000 A 
ATOM      5  N   UNL     1       2.591   6.878  19.947  0.00  0.00    +0.000 N 
ATOM      6  N   UNL     1       0.953   8.589  19.782  0.00  0.00    +0.000 NA
ATOM      7  H   UNL     1       3.357   6.438  19.448  0.00  0.00    +0.000 HD
ENDROOT
BRANCH   1  16
ATOM      8  C   UNL     1      -2.127  10.197  17.212  0.00  0.00    +0.000 C 
ATOM      9  C   UNL     1      -1.666  10.783  18.493  0.00  0.00    +0.000 A 
ATOM     10  N   UNL     1      -2.483  11.717  19.115  0.00  0.00    +0.000 NA
ATOM     11  C   UNL     1      -1.817  12.033  20.188  0.00  0.00    +0.000 A 
ATOM     12  S   UNL     1      -2.097  13.132  21.503  0.00  0.00    +0.000 S 
ATOM     13  C   UNL     1      -0.536  12.651  22.184  0.00  0.00    +0.000 A 
ATOM     14  C   UNL     1       0.100  11.727  21.440  0.00  0.00    +0.000 A 
ATOM     15  N   UNL     1      -0.628  11.381  20.319  0.00  0.00    +0.000 N 
ATOM     16  C   UNL     1      -0.499  10.554  19.231  0.00  0.00    +0.000 A 
ENDBRANCH   1  16
BRANCH   5  17
ATOM     17  C   UNL     1       1.773   5.959  20.709  0.00  0.00    +0.000 C 
BRANCH  17  18
ATOM     18  C   UNL     1       1.622   4.657  19.954  0.00  0.00    +0.000 A 
ATOM     19  C   UNL     1       1.118   3.514  20.591  0.00  0.00    +0.000 A 
ATOM     20  C   UNL     1       0.970   2.318  19.887  0.00  0.00    +0.000 A 
ATOM     21  C   UNL     1       1.332   2.248  18.542  0.00  0.00    +0.000 A 
ATOM     22  C   UNL     1       1.855   3.371  17.904  0.00  0.00    +0.000 A 
ATOM     23  C   UNL     1       2.005   4.568  18.607  0.00  0.00    +0.000 A 
ENDBRANCH  17  18
ENDBRANCH   5  17
TORSDOF 3
ENDMDL
MODEL 9
REMARK VINA RESULT:      -6.9      2.438      3.362
REMARK  Name = 
REMARK  4 active torsions:
REMARK  status: ('A' for Active; 'I' for Inactive)
REMARK    1  A    between atoms: C_1  and  C_2
REMARK    2  A    between atoms: C_9  and  C_10
REMARK    3  A    between atoms: N_14  and  C_15
REMARK    4  A    between atoms: C_15  and  C_16
REMARK                            x       y       z     vdW  Elec       q    Type
REMARK                         _______ _______ _______ _____ _____    ______ ____
ROOT
ATOM      1  C   UNL     1       2.965   6.036  18.826  0.00  0.00    +0.000 A 
ATOM      2  C   UNL     1       2.545   5.677  20.089  0.00  0.00    +0.000 A 
ATOM      3  S   UNL     1       1.669   6.956  20.810  0.00  0.00    +0.000 S 
ATOM      4  C   UNL     1       1.860   7.884  19.374  0.00  0.00    +0.000 A 
ATOM      5  N   UNL     1       1.319   9.119  19.313  0.00  0.00    +0.000 N 
ATOM      6  N   UNL     1       2.552   7.297  18.423  0.00  0.00    +0.000 NA
ATOM      7  H   UNL     1       0.731   9.397  20.093  0.00  0.00    +0.000 HD
ENDROOT
BRANCH   1  16
ATOM      8  C   UNL     1       2.345   3.042  17.538  0.00  0.00    +0.000 C 
ATOM      9  C   UNL     1       3.534   3.916  17.400  0.00  0.00    +0.000 A 
ATOM     10  N   UNL     1       4.590   3.464  16.621  0.00  0.00    +0.000 NA
ATOM     11  C   UNL     1       5.457   4.431  16.696  0.00  0.00    +0.000 A 
ATOM     12  S   UNL     1       7.048   4.681  16.045  0.00  0.00    +0.000 S 
ATOM     13  C   UNL     1       7.100   6.242  16.878  0.00  0.00    +0.000 A 
ATOM     14  C   UNL     1       5.977   6.504  17.572  0.00  0.00    +0.000 A 
ATOM     15  N   UNL     1       5.055   5.483  17.463  0.00  0.00    +0.000 N 
ATOM     16  C   UNL     1       3.801   5.181  17.935  0.00  0.00    +0.000 A 
ENDBRANCH   1  16
BRANCH   5  17
ATOM     17  C   UNL     1       0.905   9.660  18.036  0.00  0.00    +0.000 C 
BRANCH  17  18
ATOM     18  C   UNL     1      -0.480  10.256  18.155  0.00  0.00    +0.000 A 
ATOM     19  C   UNL     1      -1.518   9.828  17.314  0.00  0.00    +0.000 A 
ATOM     20  C   UNL     1      -2.797  10.374  17.434  0.00  0.00    +0.000 A 
ATOM     21  C   UNL     1      -3.052  11.357  18.387  0.00  0.00    +0.000 A 
ATOM     22  C   UNL     1      -2.024  11.808  19.213  0.00  0.00    +0.000 A 
ATOM     23  C   UNL     1      -0.743  11.265  19.094  0.00  0.00    +0.000 A 
ENDBRANCH  17  18
ENDBRANCH   5  17
TORSDOF 3
ENDMDL
