MODEL 1
REMARK VINA RESULT:      -8.1      0.000      0.000
REMARK  Name = 
REMARK  7 active torsions:
REMARK  status: ('A' for Active; 'I' for Inactive)
REMARK    1  A    between atoms: C_1  and  C_2
REMARK    2  A    between atoms: C_2  and  C_3
REMARK    3  A    between atoms: C_2  and  C_4
REMARK    4  A    between atoms: N_6  and  C_7
REMARK    5  A    between atoms: C_18  and  N_19
REMARK    6  A    between atoms: N_19  and  C_20
REMARK    7  A    between atoms: C_20  and  C_21
REMARK                            x       y       z     vdW  Elec       q    Type
REMARK                         _______ _______ _______ _____ _____    ______ ____
ROOT
ATOM      1  C   UNL     1       3.558   4.702  18.449  0.00  0.00    +0.000 A 
ATOM      2  C   UNL     1       3.275   3.787  19.479  0.00  0.00    +0.000 A 
ATOM      3  C   UNL     1       2.502   4.136  20.581  0.00  0.00    +0.000 A 
ATOM      4 CL   UNL     1       2.184   2.968  21.805  0.00  0.00    +0.000 Cl
ATOM      5  C   UNL     1       1.978   5.419  20.712  0.00  0.00    +0.000 A 
ATOM      6  C   UNL     1       2.249   6.373  19.710  0.00  0.00    +0.000 A 
ATOM      7  C   UNL     1       3.036   6.005  18.613  0.00  0.00    +0.000 A 
ATOM      8  N   UNL     1       3.126   7.128  17.815  0.00  0.00    +0.000 N 
ATOM      9  C   UNL     1       2.398   8.172  18.336  0.00  0.00    +0.000 A 
ATOM     10  C   UNL     1       2.176   9.455  17.866  0.00  0.00    +0.000 A 
ATOM     11  N   UNL     1       1.402  10.301  18.588  0.00  0.00    +0.000 NA
ATOM     12  C   UNL     1       0.874   9.919  19.769  0.00  0.00    +0.000 A 
ATOM     13  C   UNL     1       1.096   8.647  20.293  0.00  0.00    +0.000 A 
ATOM     14  C   UNL     1       1.858   7.738  19.541  0.00  0.00    +0.000 A 
ATOM     15  H   UNL     1       3.633   7.179  16.942  0.00  0.00    +0.000 HD
ENDROOT
BRANCH   1  18
ATOM     16  C   UNL     1       5.721   4.303  17.293  0.00  0.00    +0.000 C 
ATOM     17  O   UNL     1       6.453   4.393  18.274  0.00  0.00    +0.000 OA
ATOM     18  N   UNL     1       4.339   4.360  17.320  0.00  0.00    +0.000 N 
ATOM     19  H   UNL     1       3.853   4.037  16.497  0.00  0.00    +0.000 HD
BRANCH  16  21
ATOM     20  C   UNL     1       5.272   4.300  14.809  0.00  0.00    +0.000 C 
ATOM     21  C   UNL     1       6.315   4.060  15.899  0.00  0.00    +0.000 C 
ATOM     22  C   UNL     1       7.522   4.977  15.670  0.00  0.00    +0.000 C 
ENDBRANCH  16  21
ENDBRANCH   1  18
BRANCH  12  23
ATOM     23  N   UNL     1       0.207  10.854  20.568  0.00  0.00    +0.000 N 
ATOM     24  H   UNL     1      -0.587  10.451  21.050  0.00  0.00    +0.000 HD
BRANCH  23  25
ATOM     25  C   UNL     1      -0.154  12.112  19.924  0.00  0.00    +0.000 C 
BRANCH  25  26
ATOM     26  C   UNL     1      -1.632  12.087  19.605  0.00  0.00    +0.000 A 
ATOM     27  C   UNL     1      -2.534  12.700  20.490  0.00  0.00    +0.000 A 
ATOM     28  C   UNL     1      -3.905  12.684  20.235  0.00  0.00    +0.000 A 
ATOM     29  C   UNL     1      -4.390  12.060  19.089  0.00  0.00    +0.000 A 
ATOM     30  C   UNL     1      -3.504  11.459  18.194  0.00  0.00    +0.000 A 
ATOM     31  C   UNL     1      -2.130  11.472  18.449  0.00  0.00    +0.000 A 
ENDBRANCH  25  26
ENDBRANCH  23  25
ENDBRANCH  12  23
TORSDOF 5
ENDMDL
MODEL 2
REMARK VINA RESULT:      -8.1      0.961      1.507
REMARK  Name = 
REMARK  7 active torsions:
REMARK  status: ('A' for Active; 'I' for Inactive)
REMARK    1  A    between atoms: C_1  and  C_2
REMARK    2  A    between atoms: C_2  and  C_3
REMARK    3  A    between atoms: C_2  and  C_4
REMARK    4  A    between atoms: N_6  and  C_7
REMARK    5  A    between atoms: C_18  and  N_19
REMARK    6  A    between atoms: N_19  and  C_20
REMARK    7  A    between atoms: C_20  and  C_21
REMARK                            x       y       z     vdW  Elec       q    Type
REMARK                         _______ _______ _______ _____ _____    ______ ____
ROOT
ATOM      1  C   UNL     1       3.523   4.420  18.487  0.00  0.00    +0.000 A 
ATOM      2  C   UNL     1       3.272   3.479  19.500  0.00  0.00    +0.000 A 
ATOM      3  C   UNL     1       2.550   3.803  20.643  0.00  0.00    +0.000 A 
ATOM      4 CL   UNL     1       2.269   2.603  21.846  0.00  0.00    +0.000 Cl
ATOM      5  C   UNL     1       2.048   5.087  20.834  0.00  0.00    +0.000 A 
ATOM      6  C   UNL     1       2.289   6.067  19.850  0.00  0.00    +0.000 A 
ATOM      7  C   UNL     1       3.024   5.723  18.709  0.00  0.00    +0.000 A 
ATOM      8  N   UNL     1       3.095   6.868  17.942  0.00  0.00    +0.000 N 
ATOM      9  C   UNL     1       2.402   7.905  18.523  0.00  0.00    +0.000 A 
ATOM     10  C   UNL     1       2.176   9.203  18.100  0.00  0.00    +0.000 A 
ATOM     11  N   UNL     1       1.443  10.036  18.879  0.00  0.00    +0.000 NA
ATOM     12  C   UNL     1       0.961   9.625  20.069  0.00  0.00    +0.000 A 
ATOM     13  C   UNL     1       1.189   8.336  20.546  0.00  0.00    +0.000 A 
ATOM     14  C   UNL     1       1.908   7.441  19.737  0.00  0.00    +0.000 A 
ATOM     15  H   UNL     1       3.565   6.939  17.050  0.00  0.00    +0.000 HD
ENDROOT
BRANCH   1  18
ATOM     16  C   UNL     1       5.598   4.354  17.122  0.00  0.00    +0.000 C 
ATOM     17  O   UNL     1       6.377   4.746  17.985  0.00  0.00    +0.000 OA
ATOM     18  N   UNL     1       4.252   4.103  17.316  0.00  0.00    +0.000 N 
ATOM     19  H   UNL     1       3.780   3.564  16.604  0.00  0.00    +0.000 HD
BRANCH  16  21
ATOM     20  C   UNL     1       5.033   4.396  14.662  0.00  0.00    +0.000 C 
ATOM     21  C   UNL     1       6.097   4.052  15.702  0.00  0.00    +0.000 C 
ATOM     22  C   UNL     1       7.378   4.842  15.412  0.00  0.00    +0.000 C 
ENDBRANCH  16  21
ENDBRANCH   1  18
BRANCH  12  23
ATOM     23  N   UNL     1       0.339  10.544  20.923  0.00  0.00    +0.000 N 
ATOM     24  H   UNL     1      -0.239  10.091  21.619  0.00  0.00    +0.000 HD
BRANCH  23  25
ATOM     25  C   UNL     1      -0.376  11.640  20.279  0.00  0.00    +0.000 C 
BRANCH  25  26
ATOM     26  C   UNL     1      -1.571  12.006  21.131  0.00  0.00    +0.000 A 
ATOM     27  C   UNL     1      -2.676  12.630  20.530  0.00  0.00    +0.000 A 
ATOM     28  C   UNL     1      -3.789  12.993  21.288  0.00  0.00    +0.000 A 
ATOM     29  C   UNL     1      -3.812  12.731  22.655  0.00  0.00    +0.000 A 
ATOM     30  C   UNL     1      -2.727  12.100  23.263  0.00  0.00    +0.000 A 
ATOM     31  C   UNL     1      -1.610  11.737  22.506  0.00  0.00    +0.000 A 
ENDBRANCH  25  26
ENDBRANCH  23  25
ENDBRANCH  12  23
TORSDOF 5
ENDMDL
MODEL 3
REMARK VINA RESULT:      -8.0      4.311      9.715
REMARK  Name = 
REMARK  7 active torsions:
REMARK  status: ('A' for Active; 'I' for Inactive)
REMARK    1  A    between atoms: C_1  and  C_2
REMARK    2  A    between atoms: C_2  and  C_3
REMARK    3  A    between atoms: C_2  and  C_4
REMARK    4  A    between atoms: N_6  and  C_7
REMARK    5  A    between atoms: C_18  and  N_19
REMARK    6  A    between atoms: N_19  and  C_20
REMARK    7  A    between atoms: C_20  and  C_21
REMARK                            x       y       z     vdW  Elec       q    Type
REMARK                         _______ _______ _______ _____ _____    ______ ____
ROOT
ATOM      1  C   UNL     1      -3.962  11.574  17.571  0.00  0.00    +0.000 A 
ATOM      2  C   UNL     1      -4.342  11.251  16.256  0.00  0.00    +0.000 A 
ATOM      3  C   UNL     1      -3.559  10.440  15.442  0.00  0.00    +0.000 A 
ATOM      4 CL   UNL     1      -4.083  10.074  13.844  0.00  0.00    +0.000 Cl
ATOM      5  C   UNL     1      -2.352   9.917  15.899  0.00  0.00    +0.000 A 
ATOM      6  C   UNL     1      -1.925  10.228  17.206  0.00  0.00    +0.000 A 
ATOM      7  C   UNL     1      -2.724  11.052  18.007  0.00  0.00    +0.000 A 
ATOM      8  N   UNL     1      -2.057  11.175  19.210  0.00  0.00    +0.000 N 
ATOM      9  C   UNL     1      -0.898  10.434  19.219  0.00  0.00    +0.000 A 
ATOM     10  C   UNL     1       0.050  10.234  20.207  0.00  0.00    +0.000 A 
ATOM     11  N   UNL     1       1.117   9.438  19.950  0.00  0.00    +0.000 NA
ATOM     12  C   UNL     1       1.279   8.867  18.739  0.00  0.00    +0.000 A 
ATOM     13  C   UNL     1       0.363   9.065  17.708  0.00  0.00    +0.000 A 
ATOM     14  C   UNL     1      -0.773   9.850  17.964  0.00  0.00    +0.000 A 
ATOM     15  H   UNL     1      -2.385  11.714  20.001  0.00  0.00    +0.000 HD
ENDROOT
BRANCH   1  18
ATOM     16  C   UNL     1      -5.885  11.984  19.089  0.00  0.00    +0.000 C 
ATOM     17  O   UNL     1      -6.279  10.825  19.175  0.00  0.00    +0.000 OA
ATOM     18  N   UNL     1      -4.751  12.393  18.412  0.00  0.00    +0.000 N 
ATOM     19  H   UNL     1      -4.409  13.322  18.615  0.00  0.00    +0.000 HD
BRANCH  16  21
ATOM     20  C   UNL     1      -7.080  12.682  21.200  0.00  0.00    +0.000 C 
ATOM     21  C   UNL     1      -6.637  13.116  19.805  0.00  0.00    +0.000 C 
ATOM     22  C   UNL     1      -5.747  14.359  19.908  0.00  0.00    +0.000 C 
ENDBRANCH  16  21
ENDBRANCH   1  18
BRANCH  12  23
ATOM     23  N   UNL     1       2.461   8.176  18.449  0.00  0.00    +0.000 N 
ATOM     24  H   UNL     1       2.427   7.719  17.546  0.00  0.00    +0.000 HD
BRANCH  23  25
ATOM     25  C   UNL     1       2.945   7.265  19.480  0.00  0.00    +0.000 C 
BRANCH  25  26
ATOM     26  C   UNL     1       2.283   5.918  19.286  0.00  0.00    +0.000 A 
ATOM     27  C   UNL     1       2.230   5.360  17.999  0.00  0.00    +0.000 A 
ATOM     28  C   UNL     1       1.616   4.127  17.781  0.00  0.00    +0.000 A 
ATOM     29  C   UNL     1       1.052   3.435  18.850  0.00  0.00    +0.000 A 
ATOM     30  C   UNL     1       1.109   3.972  20.137  0.00  0.00    +0.000 A 
ATOM     31  C   UNL     1       1.722   5.208  20.356  0.00  0.00    +0.000 A 
ENDBRANCH  25  26
ENDBRANCH  23  25
ENDBRANCH  12  23
TORSDOF 5
ENDMDL
MODEL 4
REMARK VINA RESULT:      -8.0      0.986      1.090
REMARK  Name = 
REMARK  7 active torsions:
REMARK  status: ('A' for Active; 'I' for Inactive)
REMARK    1  A    between atoms: C_1  and  C_2
REMARK    2  A    between atoms: C_2  and  C_3
REMARK    3  A    between atoms: C_2  and  C_4
REMARK    4  A    between atoms: N_6  and  C_7
REMARK    5  A    between atoms: C_18  and  N_19
REMARK    6  A    between atoms: N_19  and  C_20
REMARK    7  A    between atoms: C_20  and  C_21
REMARK                            x       y       z     vdW  Elec       q    Type
REMARK                         _______ _______ _______ _____ _____    ______ ____
ROOT
ATOM      1  C   UNL     1       3.867   5.170  18.796  0.00  0.00    +0.000 A 
ATOM      2  C   UNL     1       3.496   4.249  19.791  0.00  0.00    +0.000 A 
ATOM      3  C   UNL     1       2.510   4.536  20.728  0.00  0.00    +0.000 A 
ATOM      4 CL   UNL     1       2.095   3.363  21.918  0.00  0.00    +0.000 Cl
ATOM      5  C   UNL     1       1.850   5.762  20.722  0.00  0.00    +0.000 A 
ATOM      6  C   UNL     1       2.201   6.722  19.751  0.00  0.00    +0.000 A 
ATOM      7  C   UNL     1       3.201   6.416  18.821  0.00  0.00    +0.000 A 
ATOM      8  N   UNL     1       3.322   7.529  18.013  0.00  0.00    +0.000 N 
ATOM      9  C   UNL     1       2.417   8.504  18.364  0.00  0.00    +0.000 A 
ATOM     10  C   UNL     1       2.158   9.749  17.818  0.00  0.00    +0.000 A 
ATOM     11  N   UNL     1       1.191  10.525  18.365  0.00  0.00    +0.000 NA
ATOM     12  C   UNL     1       0.501  10.111  19.448  0.00  0.00    +0.000 A 
ATOM     13  C   UNL     1       0.749   8.877  20.046  0.00  0.00    +0.000 A 
ATOM     14  C   UNL     1       1.716   8.037  19.470  0.00  0.00    +0.000 A 
ATOM     15  H   UNL     1       3.969   7.617  17.241  0.00  0.00    +0.000 HD
ENDROOT
BRANCH   1  18
ATOM     16  C   UNL     1       4.681   4.132  16.691  0.00  0.00    +0.000 C 
ATOM     17  O   UNL     1       3.601   3.724  16.278  0.00  0.00    +0.000 OA
ATOM     18  N   UNL     1       4.865   4.891  17.833  0.00  0.00    +0.000 N 
ATOM     19  H   UNL     1       5.754   5.359  17.931  0.00  0.00    +0.000 HD
BRANCH  16  21
ATOM     20  C   UNL     1       5.794   4.205  14.426  0.00  0.00    +0.000 C 
ATOM     21  C   UNL     1       5.970   3.856  15.902  0.00  0.00    +0.000 C 
ATOM     22  C   UNL     1       7.133   4.663  16.489  0.00  0.00    +0.000 C 
ENDBRANCH  16  21
ENDBRANCH   1  18
BRANCH  12  23
ATOM     23  N   UNL     1      -0.384  10.988  20.086  0.00  0.00    +0.000 N 
ATOM     24  H   UNL     1      -1.190  10.509  20.467  0.00  0.00    +0.000 HD
BRANCH  23  25
ATOM     25  C   UNL     1      -0.784  12.166  19.325  0.00  0.00    +0.000 C 
BRANCH  25  26
ATOM     26  C   UNL     1      -2.117  11.888  18.666  0.00  0.00    +0.000 A 
ATOM     27  C   UNL     1      -3.300  12.146  19.377  0.00  0.00    +0.000 A 
ATOM     28  C   UNL     1      -4.546  11.888  18.806  0.00  0.00    +0.000 A 
ATOM     29  C   UNL     1      -4.623  11.374  17.514  0.00  0.00    +0.000 A 
ATOM     30  C   UNL     1      -3.457  11.126  16.791  0.00  0.00    +0.000 A 
ATOM     31  C   UNL     1      -2.207  11.381  17.363  0.00  0.00    +0.000 A 
ENDBRANCH  25  26
ENDBRANCH  23  25
ENDBRANCH  12  23
TORSDOF 5
ENDMDL
MODEL 5
REMARK VINA RESULT:      -8.0      1.767      2.122
REMARK  Name = 
REMARK  7 active torsions:
REMARK  status: ('A' for Active; 'I' for Inactive)
REMARK    1  A    between atoms: C_1  and  C_2
REMARK    2  A    between atoms: C_2  and  C_3
REMARK    3  A    between atoms: C_2  and  C_4
REMARK    4  A    between atoms: N_6  and  C_7
REMARK    5  A    between atoms: C_18  and  N_19
REMARK    6  A    between atoms: N_19  and  C_20
REMARK    7  A    between atoms: C_20  and  C_21
REMARK                            x       y       z     vdW  Elec       q    Type
REMARK                         _______ _______ _______ _____ _____    ______ ____
ROOT
ATOM      1  C   UNL     1       3.425   4.883  18.520  0.00  0.00    +0.000 A 
ATOM      2  C   UNL     1       3.113   3.988  19.558  0.00  0.00    +0.000 A 
ATOM      3  C   UNL     1       2.345   4.370  20.652  0.00  0.00    +0.000 A 
ATOM      4 CL   UNL     1       1.990   3.225  21.889  0.00  0.00    +0.000 Cl
ATOM      5  C   UNL     1       1.855   5.668  20.768  0.00  0.00    +0.000 A 
ATOM      6  C   UNL     1       2.157   6.603  19.757  0.00  0.00    +0.000 A 
ATOM      7  C   UNL     1       2.938   6.201  18.667  0.00  0.00    +0.000 A 
ATOM      8  N   UNL     1       3.062   7.312  17.857  0.00  0.00    +0.000 N 
ATOM      9  C   UNL     1       2.361   8.382  18.364  0.00  0.00    +0.000 A 
ATOM     10  C   UNL     1       2.176   9.665  17.878  0.00  0.00    +0.000 A 
ATOM     11  N   UNL     1       1.422  10.540  18.588  0.00  0.00    +0.000 NA
ATOM     12  C   UNL     1       0.879  10.185  19.771  0.00  0.00    +0.000 A 
ATOM     13  C   UNL     1       1.064   8.914  20.310  0.00  0.00    +0.000 A 
ATOM     14  C   UNL     1       1.804   7.976  19.571  0.00  0.00    +0.000 A 
ATOM     15  H   UNL     1       3.574   7.340  16.986  0.00  0.00    +0.000 HD
ENDROOT
BRANCH   1  18
ATOM     16  C   UNL     1       5.574   4.343  17.397  0.00  0.00    +0.000 C 
ATOM     17  O   UNL     1       6.290   4.352  18.393  0.00  0.00    +0.000 OA
ATOM     18  N   UNL     1       4.201   4.507  17.398  0.00  0.00    +0.000 N 
ATOM     19  H   UNL     1       3.708   4.243  16.557  0.00  0.00    +0.000 HD
BRANCH  16  21
ATOM     20  C   UNL     1       5.187   4.451  14.905  0.00  0.00    +0.000 C 
ATOM     21  C   UNL     1       6.177   4.086  16.008  0.00  0.00    +0.000 C 
ATOM     22  C   UNL     1       7.467   4.896  15.834  0.00  0.00    +0.000 C 
ENDBRANCH  16  21
ENDBRANCH   1  18
BRANCH  12  23
ATOM     23  N   UNL     1       0.235  11.148  20.557  0.00  0.00    +0.000 N 
ATOM     24  H   UNL     1       0.852  11.906  20.818  0.00  0.00    +0.000 HD
BRANCH  23  25
ATOM     25  C   UNL     1      -0.502  10.648  21.712  0.00  0.00    +0.000 C 
BRANCH  25  26
ATOM     26  C   UNL     1      -1.143  11.820  22.422  0.00  0.00    +0.000 A 
ATOM     27  C   UNL     1      -0.525  13.079  22.361  0.00  0.00    +0.000 A 
ATOM     28  C   UNL     1      -1.081  14.179  23.014  0.00  0.00    +0.000 A 
ATOM     29  C   UNL     1      -2.265  14.033  23.732  0.00  0.00    +0.000 A 
ATOM     30  C   UNL     1      -2.897  12.791  23.790  0.00  0.00    +0.000 A 
ATOM     31  C   UNL     1      -2.340  11.687  23.138  0.00  0.00    +0.000 A 
ENDBRANCH  25  26
ENDBRANCH  23  25
ENDBRANCH  12  23
TORSDOF 5
ENDMDL
MODEL 6
REMARK VINA RESULT:      -8.0      0.407      1.004
REMARK  Name = 
REMARK  7 active torsions:
REMARK  status: ('A' for Active; 'I' for Inactive)
REMARK    1  A    between atoms: C_1  and  C_2
REMARK    2  A    between atoms: C_2  and  C_3
REMARK    3  A    between atoms: C_2  and  C_4
REMARK    4  A    between atoms: N_6  and  C_7
REMARK    5  A    between atoms: C_18  and  N_19
REMARK    6  A    between atoms: N_19  and  C_20
REMARK    7  A    between atoms: C_20  and  C_21
REMARK                            x       y       z     vdW  Elec       q    Type
REMARK                         _______ _______ _______ _____ _____    ______ ____
ROOT
ATOM      1  C   UNL     1       3.600   4.797  18.638  0.00  0.00    +0.000 A 
ATOM      2  C   UNL     1       3.241   3.899  19.659  0.00  0.00    +0.000 A 
ATOM      3  C   UNL     1       2.391   4.267  20.696  0.00  0.00    +0.000 A 
ATOM      4 CL   UNL     1       1.983   3.120  21.914  0.00  0.00    +0.000 Cl
ATOM      5  C   UNL     1       1.862   5.552  20.769  0.00  0.00    +0.000 A 
ATOM      6  C   UNL     1       2.207   6.489  19.774  0.00  0.00    +0.000 A 
ATOM      7  C   UNL     1       3.070   6.102  18.742  0.00  0.00    +0.000 A 
ATOM      8  N   UNL     1       3.220   7.212  17.935  0.00  0.00    +0.000 N 
ATOM      9  C   UNL     1       2.459   8.266  18.386  0.00  0.00    +0.000 A 
ATOM     10  C   UNL     1       2.274   9.541  17.879  0.00  0.00    +0.000 A 
ATOM     11  N   UNL     1       1.452  10.399  18.530  0.00  0.00    +0.000 NA
ATOM     12  C   UNL     1       0.839  10.037  19.676  0.00  0.00    +0.000 A 
ATOM     13  C   UNL     1       1.020   8.774  20.235  0.00  0.00    +0.000 A 
ATOM     14  C   UNL     1       1.832   7.852  19.555  0.00  0.00    +0.000 A 
ATOM     15  H   UNL     1       3.789   7.248  17.100  0.00  0.00    +0.000 HD
ENDROOT
BRANCH   1  18
ATOM     16  C   UNL     1       5.841   4.480  17.615  0.00  0.00    +0.000 C 
ATOM     17  O   UNL     1       6.515   4.694  18.618  0.00  0.00    +0.000 OA
ATOM     18  N   UNL     1       4.460   4.436  17.575  0.00  0.00    +0.000 N 
ATOM     19  H   UNL     1       4.040   4.020  16.755  0.00  0.00    +0.000 HD
BRANCH  16  21
ATOM     20  C   UNL     1       5.488   3.886  15.187  0.00  0.00    +0.000 C 
ATOM     21  C   UNL     1       6.522   4.185  16.270  0.00  0.00    +0.000 C 
ATOM     22  C   UNL     1       7.389   5.374  15.843  0.00  0.00    +0.000 C 
ENDBRANCH  16  21
ENDBRANCH   1  18
BRANCH  12  23
ATOM     23  N   UNL     1       0.118  10.986  20.409  0.00  0.00    +0.000 N 
ATOM     24  H   UNL     1      -0.671  10.578  20.895  0.00  0.00    +0.000 HD
BRANCH  23  25
ATOM     25  C   UNL     1      -0.275  12.194  19.691  0.00  0.00    +0.000 C 
BRANCH  25  26
ATOM     26  C   UNL     1      -1.685  12.012  19.172  0.00  0.00    +0.000 A 
ATOM     27  C   UNL     1      -1.878  11.474  17.890  0.00  0.00    +0.000 A 
ATOM     28  C   UNL     1      -3.163  11.305  17.374  0.00  0.00    +0.000 A 
ATOM     29  C   UNL     1      -4.270  11.667  18.138  0.00  0.00    +0.000 A 
ATOM     30  C   UNL     1      -4.092  12.189  19.419  0.00  0.00    +0.000 A 
ATOM     31  C   UNL     1      -2.806  12.362  19.937  0.00  0.00    +0.000 A 
ENDBRANCH  25  26
ENDBRANCH  23  25
ENDBRANCH  12  23
TORSDOF 5
ENDMDL
MODEL 7
REMARK VINA RESULT:      -7.9      1.931      2.434
REMARK  Name = 
REMARK  7 active torsions:
REMARK  status: ('A' for Active; 'I' for Inactive)
REMARK    1  A    between atoms: C_1  and  C_2
REMARK    2  A    between atoms: C_2  and  C_3
REMARK    3  A    between atoms: C_2  and  C_4
REMARK    4  A    between atoms: N_6  and  C_7
REMARK    5  A    between atoms: C_18  and  N_19
REMARK    6  A    between atoms: N_19  and  C_20
REMARK    7  A    between atoms: C_20  and  C_21
REMARK                            x       y       z     vdW  Elec       q    Type
REMARK                         _______ _______ _______ _____ _____    ______ ____
ROOT
ATOM      1  C   UNL     1       3.399   5.208  18.656  0.00  0.00    +0.000 A 
ATOM      2  C   UNL     1       3.244   4.103  19.511  0.00  0.00    +0.000 A 
ATOM      3  C   UNL     1       2.463   4.166  20.660  0.00  0.00    +0.000 A 
ATOM      4 CL   UNL     1       2.306   2.776  21.664  0.00  0.00    +0.000 Cl
ATOM      5  C   UNL     1       1.803   5.338  21.015  0.00  0.00    +0.000 A 
ATOM      6  C   UNL     1       1.942   6.476  20.194  0.00  0.00    +0.000 A 
ATOM      7  C   UNL     1       2.739   6.395  19.046  0.00  0.00    +0.000 A 
ATOM      8  N   UNL     1       2.684   7.641  18.456  0.00  0.00    +0.000 N 
ATOM      9  C   UNL     1       1.857   8.491  19.154  0.00  0.00    +0.000 A 
ATOM     10  C   UNL     1       1.482   9.801  18.915  0.00  0.00    +0.000 A 
ATOM     11  N   UNL     1       0.636  10.416  19.777  0.00  0.00    +0.000 NA
ATOM     12  C   UNL     1       0.182   9.778  20.876  0.00  0.00    +0.000 A 
ATOM     13  C   UNL     1       0.557   8.469  21.169  0.00  0.00    +0.000 A 
ATOM     14  C   UNL     1       1.398   7.796  20.267  0.00  0.00    +0.000 A 
ATOM     15  H   UNL     1       3.161   7.900  17.603  0.00  0.00    +0.000 HD
ENDROOT
BRANCH   1  18
ATOM     16  C   UNL     1       5.527   4.825  17.433  0.00  0.00    +0.000 C 
ATOM     17  O   UNL     1       6.182   4.385  18.373  0.00  0.00    +0.000 OA
ATOM     18  N   UNL     1       4.185   5.157  17.481  0.00  0.00    +0.000 N 
ATOM     19  H   UNL     1       3.713   5.276  16.597  0.00  0.00    +0.000 HD
BRANCH  16  21
ATOM     20  C   UNL     1       6.168   3.689  15.272  0.00  0.00    +0.000 C 
ATOM     21  C   UNL     1       6.172   5.003  16.051  0.00  0.00    +0.000 C 
ATOM     22  C   UNL     1       5.429   6.079  15.254  0.00  0.00    +0.000 C 
ENDBRANCH  16  21
ENDBRANCH   1  18
BRANCH  12  23
ATOM     23  N   UNL     1      -0.566  10.480  21.829  0.00  0.00    +0.000 N 
ATOM     24  H   UNL     1      -1.562  10.378  21.685  0.00  0.00    +0.000 HD
BRANCH  23  25
ATOM     25  C   UNL     1      -0.204  11.878  22.030  0.00  0.00    +0.000 C 
BRANCH  25  26
ATOM     26  C   UNL     1      -1.287  12.546  22.849  0.00  0.00    +0.000 A 
ATOM     27  C   UNL     1      -2.463  11.836  23.138  0.00  0.00    +0.000 A 
ATOM     28  C   UNL     1      -3.488  12.425  23.878  0.00  0.00    +0.000 A 
ATOM     29  C   UNL     1      -3.345  13.730  24.342  0.00  0.00    +0.000 A 
ATOM     30  C   UNL     1      -2.177  14.443  24.074  0.00  0.00    +0.000 A 
ATOM     31  C   UNL     1      -1.150  13.855  23.330  0.00  0.00    +0.000 A 
ENDBRANCH  25  26
ENDBRANCH  23  25
ENDBRANCH  12  23
TORSDOF 5
ENDMDL
MODEL 8
REMARK VINA RESULT:      -7.9      2.571      8.877
REMARK  Name = 
REMARK  7 active torsions:
REMARK  status: ('A' for Active; 'I' for Inactive)
REMARK    1  A    between atoms: C_1  and  C_2
REMARK    2  A    between atoms: C_2  and  C_3
REMARK    3  A    between atoms: C_2  and  C_4
REMARK    4  A    between atoms: N_6  and  C_7
REMARK    5  A    between atoms: C_18  and  N_19
REMARK    6  A    between atoms: N_19  and  C_20
REMARK    7  A    between atoms: C_20  and  C_21
REMARK                            x       y       z     vdW  Elec       q    Type
REMARK                         _______ _______ _______ _____ _____    ______ ____
ROOT
ATOM      1  C   UNL     1       2.011   6.629  20.091  0.00  0.00    +0.000 A 
ATOM      2  C   UNL     1       1.529   5.511  20.794  0.00  0.00    +0.000 A 
ATOM      3  C   UNL     1       1.924   4.216  20.477  0.00  0.00    +0.000 A 
ATOM      4 CL   UNL     1       1.304   2.888  21.380  0.00  0.00    +0.000 Cl
ATOM      5  C   UNL     1       2.816   3.972  19.435  0.00  0.00    +0.000 A 
ATOM      6  C   UNL     1       3.312   5.063  18.693  0.00  0.00    +0.000 A 
ATOM      7  C   UNL     1       2.897   6.359  19.024  0.00  0.00    +0.000 A 
ATOM      8  N   UNL     1       3.539   7.202  18.139  0.00  0.00    +0.000 N 
ATOM      9  C   UNL     1       4.372   6.503  17.296  0.00  0.00    +0.000 A 
ATOM     10  C   UNL     1       5.224   6.931  16.292  0.00  0.00    +0.000 A 
ATOM     11  N   UNL     1       5.947   6.016  15.602  0.00  0.00    +0.000 NA
ATOM     12  C   UNL     1       5.824   4.698  15.861  0.00  0.00    +0.000 A 
ATOM     13  C   UNL     1       4.957   4.222  16.842  0.00  0.00    +0.000 A 
ATOM     14  C   UNL     1       4.230   5.154  17.601  0.00  0.00    +0.000 A 
ATOM     15  H   UNL     1       3.442   8.208  18.124  0.00  0.00    +0.000 HD
ENDROOT
BRANCH   1  18
ATOM     16  C   UNL     1       1.295   8.928  19.482  0.00  0.00    +0.000 C 
ATOM     17  O   UNL     1       1.151   8.745  18.277  0.00  0.00    +0.000 OA
ATOM     18  N   UNL     1       1.622   7.952  20.405  0.00  0.00    +0.000 N 
ATOM     19  H   UNL     1       1.476   8.177  21.379  0.00  0.00    +0.000 HD
BRANCH  16  21
ATOM     20  C   UNL     1      -0.122  11.016  19.425  0.00  0.00    +0.000 C 
ATOM     21  C   UNL     1       1.063  10.319  20.090  0.00  0.00    +0.000 C 
ATOM     22  C   UNL     1       0.816  10.204  21.598  0.00  0.00    +0.000 C 
ENDBRANCH  16  21
ENDBRANCH   1  18
BRANCH  12  23
ATOM     23  N   UNL     1       6.463   3.764  15.036  0.00  0.00    +0.000 N 
ATOM     24  H   UNL     1       7.231   3.300  15.505  0.00  0.00    +0.000 HD
BRANCH  23  25
ATOM     25  C   UNL     1       6.864   4.238  13.716  0.00  0.00    +0.000 C 
BRANCH  25  26
ATOM     26  C   UNL     1       6.087   3.470  12.669  0.00  0.00    +0.000 A 
ATOM     27  C   UNL     1       4.788   3.886  12.339  0.00  0.00    +0.000 A 
ATOM     28  C   UNL     1       4.037   3.194  11.389  0.00  0.00    +0.000 A 
ATOM     29  C   UNL     1       4.581   2.081  10.754  0.00  0.00    +0.000 A 
ATOM     30  C   UNL     1       5.876   1.664  11.062  0.00  0.00    +0.000 A 
ATOM     31  C   UNL     1       6.628   2.355  12.016  0.00  0.00    +0.000 A 
ENDBRANCH  25  26
ENDBRANCH  23  25
ENDBRANCH  12  23
TORSDOF 5
ENDMDL
MODEL 9
REMARK VINA RESULT:      -7.9      4.192      9.989
REMARK  Name = 
REMARK  7 active torsions:
REMARK  status: ('A' for Active; 'I' for Inactive)
REMARK    1  A    between atoms: C_1  and  C_2
REMARK    2  A    between atoms: C_2  and  C_3
REMARK    3  A    between atoms: C_2  and  C_4
REMARK    4  A    between atoms: N_6  and  C_7
REMARK    5  A    between atoms: C_18  and  N_19
REMARK    6  A    between atoms: N_19  and  C_20
REMARK    7  A    between atoms: C_20  and  C_21
REMARK                            x       y       z     vdW  Elec       q    Type
REMARK                         _______ _______ _______ _____ _____    ______ ____
ROOT
ATOM      1  C   UNL     1      -3.990  11.649  17.520  0.00  0.00    +0.000 A 
ATOM      2  C   UNL     1      -4.364  11.264  16.221  0.00  0.00    +0.000 A 
ATOM      3  C   UNL     1      -3.575  10.419  15.448  0.00  0.00    +0.000 A 
ATOM      4 CL   UNL     1      -4.092   9.976  13.867  0.00  0.00    +0.000 Cl
ATOM      5  C   UNL     1      -2.369   9.921  15.933  0.00  0.00    +0.000 A 
ATOM      6  C   UNL     1      -1.947  10.294  17.225  0.00  0.00    +0.000 A 
ATOM      7  C   UNL     1      -2.752  11.152  17.985  0.00  0.00    +0.000 A 
ATOM      8  N   UNL     1      -2.090  11.333  19.183  0.00  0.00    +0.000 N 
ATOM      9  C   UNL     1      -0.929  10.597  19.230  0.00  0.00    +0.000 A 
ATOM     10  C   UNL     1       0.017  10.446  20.230  0.00  0.00    +0.000 A 
ATOM     11  N   UNL     1       1.087   9.643  20.015  0.00  0.00    +0.000 NA
ATOM     12  C   UNL     1       1.255   9.016  18.832  0.00  0.00    +0.000 A 
ATOM     13  C   UNL     1       0.343   9.163  17.789  0.00  0.00    +0.000 A 
ATOM     14  C   UNL     1      -0.797   9.955  18.004  0.00  0.00    +0.000 A 
ATOM     15  H   UNL     1      -2.422  11.907  19.946  0.00  0.00    +0.000 HD
ENDROOT
BRANCH   1  18
ATOM     16  C   UNL     1      -5.903  12.117  19.033  0.00  0.00    +0.000 C 
ATOM     17  O   UNL     1      -6.276  10.958  19.194  0.00  0.00    +0.000 OA
ATOM     18  N   UNL     1      -4.784  12.504  18.319  0.00  0.00    +0.000 N 
ATOM     19  H   UNL     1      -4.456  13.449  18.461  0.00  0.00    +0.000 HD
BRANCH  16  21
ATOM     20  C   UNL     1      -7.735  13.830  18.746  0.00  0.00    +0.000 C 
ATOM     21  C   UNL     1      -6.667  13.277  19.688  0.00  0.00    +0.000 C 
ATOM     22  C   UNL     1      -7.321  12.811  20.993  0.00  0.00    +0.000 C 
ENDBRANCH  16  21
ENDBRANCH   1  18
BRANCH  12  23
ATOM     23  N   UNL     1       2.440   8.316  18.578  0.00  0.00    +0.000 N 
ATOM     24  H   UNL     1       2.542   8.073  17.601  0.00  0.00    +0.000 HD
BRANCH  23  25
ATOM     25  C   UNL     1       2.705   7.165  19.435  0.00  0.00    +0.000 C 
BRANCH  25  26
ATOM     26  C   UNL     1       2.954   5.956  18.559  0.00  0.00    +0.000 A 
ATOM     27  C   UNL     1       4.193   5.822  17.914  0.00  0.00    +0.000 A 
ATOM     28  C   UNL     1       4.453   4.728  17.089  0.00  0.00    +0.000 A 
ATOM     29  C   UNL     1       3.476   3.753  16.903  0.00  0.00    +0.000 A 
ATOM     30  C   UNL     1       2.244   3.867  17.549  0.00  0.00    +0.000 A 
ATOM     31  C   UNL     1       1.982   4.964  18.374  0.00  0.00    +0.000 A 
ENDBRANCH  25  26
ENDBRANCH  23  25
ENDBRANCH  12  23
TORSDOF 5
ENDMDL
