MODEL 1
REMARK VINA RESULT:      -8.7      0.000      0.000
REMARK  Name = 
REMARK  7 active torsions:
REMARK  status: ('A' for Active; 'I' for Inactive)
REMARK    1  A    between atoms: C_2  and  C_24
REMARK    2  A    between atoms: N_3  and  C_4
REMARK    3  A    between atoms: C_4  and  C_5
REMARK    4  A    between atoms: N_7  and  C_8
REMARK    5  A    between atoms: C_8  and  C_9
REMARK    6  A    between atoms: C_13  and  O_14
REMARK    7  A    between atoms: O_14  and  C_15
REMARK                            x       y       z     vdW  Elec       q    Type
REMARK                         _______ _______ _______ _____ _____    ______ ____
ROOT
ATOM      1  C   UNL     1       5.617   4.556  19.074  0.00  0.00    +0.000 A 
ATOM      2  C   UNL     1       4.678   5.514  19.382  0.00  0.00    +0.000 A 
ATOM      3  N   UNL     1       3.596   4.800  19.815  0.00  0.00    +0.000 N 
ATOM      4  N   UNL     1       3.853   3.479  19.795  0.00  0.00    +0.000 NA
ATOM      5  N   UNL     1       5.093   3.319  19.351  0.00  0.00    +0.000 NA
ENDROOT
BRANCH   1   6
ATOM      6  C   UNL     1       6.953   4.710  18.454  0.00  0.00    +0.000 C 
BRANCH   6   9
ATOM      7  O   UNL     1       7.471   6.473  16.395  0.00  0.00    +0.000 OA
ATOM      8  C   UNL     1       7.180   5.316  16.106  0.00  0.00    +0.000 C 
ATOM      9  N   UNL     1       6.938   4.349  17.059  0.00  0.00    +0.000 N 
ATOM     10  H   UNL     1       6.589   3.444  16.747  0.00  0.00    +0.000 HD
BRANCH   8  11
ATOM     11  C   UNL     1       7.077   4.879  14.681  0.00  0.00    +0.000 A 
ATOM     12  C   UNL     1       6.152   3.896  14.345  0.00  0.00    +0.000 A 
ATOM     13  C   UNL     1       6.041   3.523  13.010  0.00  0.00    +0.000 A 
ATOM     14  C   UNL     1       6.855   4.140  12.065  0.00  0.00    +0.000 A 
ATOM     15  C   UNL     1       7.759   5.104  12.494  0.00  0.00    +0.000 A 
ATOM     16  N   UNL     1       7.891   5.498  13.781  0.00  0.00    +0.000 NA
ENDBRANCH   8  11
ENDBRANCH   6   9
ENDBRANCH   1   6
BRANCH   3  17
ATOM     17  C   UNL     1       2.279   5.297  20.160  0.00  0.00    +0.000 C 
BRANCH  17  18
ATOM     18  C   UNL     1       2.042   6.689  19.632  0.00  0.00    +0.000 A 
ATOM     19  C   UNL     1       2.290   7.005  18.290  0.00  0.00    +0.000 A 
ATOM     20  C   UNL     1       2.088   8.307  17.822  0.00  0.00    +0.000 A 
ATOM     21  C   UNL     1       1.661   9.311  18.693  0.00  0.00    +0.000 A 
ATOM     22  C   UNL     1       1.447   9.020  20.038  0.00  0.00    +0.000 A 
ATOM     23  C   UNL     1       1.605   7.708  20.492  0.00  0.00    +0.000 A 
BRANCH  22  24
ATOM     24  O   UNL     1       1.041  10.055  20.852  0.00  0.00    +0.000 OA
BRANCH  24  25
ATOM     25  C   UNL     1       0.347  11.108  20.291  0.00  0.00    +0.000 A 
ATOM     26  C   UNL     1       0.894  12.382  20.098  0.00  0.00    +0.000 A 
ATOM     27  C   UNL     1       0.117  13.407  19.562  0.00  0.00    +0.000 A 
ATOM     28  C   UNL     1      -1.190  13.147  19.155  0.00  0.00    +0.000 A 
ATOM     29  C   UNL     1      -1.722  11.864  19.289  0.00  0.00    +0.000 A 
ATOM     30  C   UNL     1      -0.956  10.846  19.862  0.00  0.00    +0.000 A 
ENDBRANCH  24  25
ENDBRANCH  22  24
ENDBRANCH  17  18
ENDBRANCH   3  17
TORSDOF 7
ENDMDL
MODEL 2
REMARK VINA RESULT:      -8.4      3.209      8.921
REMARK  Name = 
REMARK  7 active torsions:
REMARK  status: ('A' for Active; 'I' for Inactive)
REMARK    1  A    between atoms: C_2  and  C_24
REMARK    2  A    between atoms: N_3  and  C_4
REMARK    3  A    between atoms: C_4  and  C_5
REMARK    4  A    between atoms: N_7  and  C_8
REMARK    5  A    between atoms: C_8  and  C_9
REMARK    6  A    between atoms: C_13  and  O_14
REMARK    7  A    between atoms: O_14  and  C_15
REMARK                            x       y       z     vdW  Elec       q    Type
REMARK                         _______ _______ _______ _____ _____    ______ ____
ROOT
ATOM      1  C   UNL     1       1.753   9.079  18.797  0.00  0.00    +0.000 A 
ATOM      2  C   UNL     1       1.568   8.440  20.002  0.00  0.00    +0.000 A 
ATOM      3  N   UNL     1       1.895   7.137  19.747  0.00  0.00    +0.000 N 
ATOM      4  N   UNL     1       2.278   6.980  18.466  0.00  0.00    +0.000 NA
ATOM      5  N   UNL     1       2.204   8.167  17.877  0.00  0.00    +0.000 NA
ENDROOT
BRANCH   1   6
ATOM      6  C   UNL     1       1.454  10.479  18.418  0.00  0.00    +0.000 C 
BRANCH   6   9
ATOM      7  O   UNL     1      -0.688  11.589  19.757  0.00  0.00    +0.000 OA
ATOM      8  C   UNL     1      -0.877  11.153  18.626  0.00  0.00    +0.000 C 
ATOM      9  N   UNL     1       0.133  10.611  17.858  0.00  0.00    +0.000 N 
ATOM     10  H   UNL     1      -0.120  10.164  16.978  0.00  0.00    +0.000 HD
BRANCH   8  11
ATOM     11  C   UNL     1      -2.234  11.189  18.001  0.00  0.00    +0.000 A 
ATOM     12  C   UNL     1      -2.407  10.635  16.736  0.00  0.00    +0.000 A 
ATOM     13  C   UNL     1      -3.681  10.644  16.181  0.00  0.00    +0.000 A 
ATOM     14  C   UNL     1      -4.730  11.206  16.903  0.00  0.00    +0.000 A 
ATOM     15  C   UNL     1      -4.462  11.747  18.154  0.00  0.00    +0.000 A 
ATOM     16  N   UNL     1      -3.238  11.751  18.730  0.00  0.00    +0.000 NA
ENDBRANCH   8  11
ENDBRANCH   6   9
ENDBRANCH   1   6
BRANCH   3  17
ATOM     17  C   UNL     1       1.773   5.996  20.632  0.00  0.00    +0.000 C 
BRANCH  17  18
ATOM     18  C   UNL     1       2.566   4.812  20.141  0.00  0.00    +0.000 A 
ATOM     19  C   UNL     1       1.994   3.534  20.078  0.00  0.00    +0.000 A 
ATOM     20  C   UNL     1       2.750   2.442  19.642  0.00  0.00    +0.000 A 
ATOM     21  C   UNL     1       4.091   2.608  19.291  0.00  0.00    +0.000 A 
ATOM     22  C   UNL     1       4.684   3.866  19.385  0.00  0.00    +0.000 A 
ATOM     23  C   UNL     1       3.912   4.963  19.775  0.00  0.00    +0.000 A 
BRANCH  22  24
ATOM     24  O   UNL     1       6.014   3.965  19.038  0.00  0.00    +0.000 OA
BRANCH  24  25
ATOM     25  C   UNL     1       6.466   5.136  18.465  0.00  0.00    +0.000 A 
ATOM     26  C   UNL     1       5.874   5.729  17.344  0.00  0.00    +0.000 A 
ATOM     27  C   UNL     1       6.412   6.891  16.797  0.00  0.00    +0.000 A 
ATOM     28  C   UNL     1       7.505   7.505  17.406  0.00  0.00    +0.000 A 
ATOM     29  C   UNL     1       8.063   6.951  18.559  0.00  0.00    +0.000 A 
ATOM     30  C   UNL     1       7.547   5.765  19.086  0.00  0.00    +0.000 A 
ENDBRANCH  24  25
ENDBRANCH  22  24
ENDBRANCH  17  18
ENDBRANCH   3  17
TORSDOF 7
ENDMDL
MODEL 3
REMARK VINA RESULT:      -8.3      3.888      5.907
REMARK  Name = 
REMARK  7 active torsions:
REMARK  status: ('A' for Active; 'I' for Inactive)
REMARK    1  A    between atoms: C_2  and  C_24
REMARK    2  A    between atoms: N_3  and  C_4
REMARK    3  A    between atoms: C_4  and  C_5
REMARK    4  A    between atoms: N_7  and  C_8
REMARK    5  A    between atoms: C_8  and  C_9
REMARK    6  A    between atoms: C_13  and  O_14
REMARK    7  A    between atoms: O_14  and  C_15
REMARK                            x       y       z     vdW  Elec       q    Type
REMARK                         _______ _______ _______ _____ _____    ______ ____
ROOT
ATOM      1  C   UNL     1       1.053   8.234  20.734  0.00  0.00    +0.000 A 
ATOM      2  C   UNL     1       1.121   9.239  19.796  0.00  0.00    +0.000 A 
ATOM      3  N   UNL     1       0.122  10.102  20.153  0.00  0.00    +0.000 N 
ATOM      4  N   UNL     1      -0.515   9.668  21.257  0.00  0.00    +0.000 NA
ATOM      5  N   UNL     1       0.054   8.528  21.627  0.00  0.00    +0.000 NA
ENDROOT
BRANCH   1   6
ATOM      6  C   UNL     1       1.808   6.961  20.808  0.00  0.00    +0.000 C 
BRANCH   6   9
ATOM      7  O   UNL     1       1.726   4.867  19.014  0.00  0.00    +0.000 OA
ATOM      8  C   UNL     1       2.606   5.710  18.878  0.00  0.00    +0.000 C 
ATOM      9  N   UNL     1       2.714   6.813  19.697  0.00  0.00    +0.000 N 
ATOM     10  H   UNL     1       3.536   7.407  19.599  0.00  0.00    +0.000 HD
BRANCH   8  11
ATOM     11  C   UNL     1       3.627   5.592  17.793  0.00  0.00    +0.000 A 
ATOM     12  C   UNL     1       3.968   4.326  17.325  0.00  0.00    +0.000 A 
ATOM     13  C   UNL     1       4.893   4.232  16.291  0.00  0.00    +0.000 A 
ATOM     14  C   UNL     1       5.444   5.397  15.767  0.00  0.00    +0.000 A 
ATOM     15  C   UNL     1       5.053   6.617  16.304  0.00  0.00    +0.000 A 
ATOM     16  N   UNL     1       4.152   6.750  17.305  0.00  0.00    +0.000 NA
ENDBRANCH   8  11
ENDBRANCH   6   9
ENDBRANCH   1   6
BRANCH   3  17
ATOM     17  C   UNL     1      -0.335  11.281  19.445  0.00  0.00    +0.000 C 
BRANCH  17  18
ATOM     18  C   UNL     1      -1.476  10.972  18.510  0.00  0.00    +0.000 A 
ATOM     19  C   UNL     1      -1.327  10.053  17.464  0.00  0.00    +0.000 A 
ATOM     20  C   UNL     1      -2.388   9.796  16.591  0.00  0.00    +0.000 A 
ATOM     21  C   UNL     1      -3.601  10.473  16.738  0.00  0.00    +0.000 A 
ATOM     22  C   UNL     1      -3.751  11.418  17.750  0.00  0.00    +0.000 A 
ATOM     23  C   UNL     1      -2.705  11.638  18.649  0.00  0.00    +0.000 A 
BRANCH  22  24
ATOM     24  O   UNL     1      -4.966  12.064  17.836  0.00  0.00    +0.000 OA
BRANCH  24  25
ATOM     25  C   UNL     1      -5.800  11.775  18.897  0.00  0.00    +0.000 A 
ATOM     26  C   UNL     1      -6.043  12.658  19.954  0.00  0.00    +0.000 A 
ATOM     27  C   UNL     1      -6.866  12.278  21.013  0.00  0.00    +0.000 A 
ATOM     28  C   UNL     1      -7.501  11.039  20.988  0.00  0.00    +0.000 A 
ATOM     29  C   UNL     1      -7.310  10.177  19.908  0.00  0.00    +0.000 A 
ATOM     30  C   UNL     1      -6.455  10.542  18.865  0.00  0.00    +0.000 A 
ENDBRANCH  24  25
ENDBRANCH  22  24
ENDBRANCH  17  18
ENDBRANCH   3  17
TORSDOF 7
ENDMDL
MODEL 4
REMARK VINA RESULT:      -8.3      3.381      9.252
REMARK  Name = 
REMARK  7 active torsions:
REMARK  status: ('A' for Active; 'I' for Inactive)
REMARK    1  A    between atoms: C_2  and  C_24
REMARK    2  A    between atoms: N_3  and  C_4
REMARK    3  A    between atoms: C_4  and  C_5
REMARK    4  A    between atoms: N_7  and  C_8
REMARK    5  A    between atoms: C_8  and  C_9
REMARK    6  A    between atoms: C_13  and  O_14
REMARK    7  A    between atoms: O_14  and  C_15
REMARK                            x       y       z     vdW  Elec       q    Type
REMARK                         _______ _______ _______ _____ _____    ______ ____
ROOT
ATOM      1  C   UNL     1       1.001   9.474  20.134  0.00  0.00    +0.000 A 
ATOM      2  C   UNL     1       1.164   8.407  20.988  0.00  0.00    +0.000 A 
ATOM      3  N   UNL     1       1.784   7.457  20.225  0.00  0.00    +0.000 N 
ATOM      4  N   UNL     1       2.009   7.912  18.979  0.00  0.00    +0.000 NA
ATOM      5  N   UNL     1       1.541   9.153  18.915  0.00  0.00    +0.000 NA
ENDROOT
BRANCH   1   6
ATOM      6  C   UNL     1       0.293  10.757  20.353  0.00  0.00    +0.000 C 
BRANCH   6   9
ATOM      7  O   UNL     1      -0.477  12.422  18.291  0.00  0.00    +0.000 OA
ATOM      8  C   UNL     1      -1.311  11.648  18.752  0.00  0.00    +0.000 C 
ATOM      9  N   UNL     1      -1.019  10.751  19.757  0.00  0.00    +0.000 N 
ATOM     10  H   UNL     1      -1.788  10.224  20.168  0.00  0.00    +0.000 HD
BRANCH   8  11
ATOM     11  C   UNL     1      -2.713  11.629  18.235  0.00  0.00    +0.000 A 
ATOM     12  C   UNL     1      -3.749  11.995  19.089  0.00  0.00    +0.000 A 
ATOM     13  C   UNL     1      -5.045  12.007  18.587  0.00  0.00    +0.000 A 
ATOM     14  C   UNL     1      -5.260  11.651  17.259  0.00  0.00    +0.000 A 
ATOM     15  C   UNL     1      -4.166  11.287  16.483  0.00  0.00    +0.000 A 
ATOM     16  N   UNL     1      -2.891  11.270  16.933  0.00  0.00    +0.000 NA
ENDBRANCH   8  11
ENDBRANCH   6   9
ENDBRANCH   1   6
BRANCH   3  17
ATOM     17  C   UNL     1       2.094   6.087  20.584  0.00  0.00    +0.000 C 
BRANCH  17  18
ATOM     18  C   UNL     1       2.412   5.244  19.376  0.00  0.00    +0.000 A 
ATOM     19  C   UNL     1       1.490   4.313  18.880  0.00  0.00    +0.000 A 
ATOM     20  C   UNL     1       1.811   3.522  17.773  0.00  0.00    +0.000 A 
ATOM     21  C   UNL     1       3.063   3.633  17.166  0.00  0.00    +0.000 A 
ATOM     22  C   UNL     1       4.004   4.527  17.672  0.00  0.00    +0.000 A 
ATOM     23  C   UNL     1       3.664   5.349  18.749  0.00  0.00    +0.000 A 
BRANCH  22  24
ATOM     24  O   UNL     1       5.228   4.581  17.040  0.00  0.00    +0.000 OA
BRANCH  24  25
ATOM     25  C   UNL     1       6.170   5.484  17.492  0.00  0.00    +0.000 A 
ATOM     26  C   UNL     1       6.323   6.772  16.967  0.00  0.00    +0.000 A 
ATOM     27  C   UNL     1       7.325   7.612  17.447  0.00  0.00    +0.000 A 
ATOM     28  C   UNL     1       8.136   7.195  18.500  0.00  0.00    +0.000 A 
ATOM     29  C   UNL     1       7.949   5.934  19.068  0.00  0.00    +0.000 A 
ATOM     30  C   UNL     1       6.970   5.077  18.561  0.00  0.00    +0.000 A 
ENDBRANCH  24  25
ENDBRANCH  22  24
ENDBRANCH  17  18
ENDBRANCH   3  17
TORSDOF 7
ENDMDL
MODEL 5
REMARK VINA RESULT:      -8.3      3.358      8.799
REMARK  Name = 
REMARK  7 active torsions:
REMARK  status: ('A' for Active; 'I' for Inactive)
REMARK    1  A    between atoms: C_2  and  C_24
REMARK    2  A    between atoms: N_3  and  C_4
REMARK    3  A    between atoms: C_4  and  C_5
REMARK    4  A    between atoms: N_7  and  C_8
REMARK    5  A    between atoms: C_8  and  C_9
REMARK    6  A    between atoms: C_13  and  O_14
REMARK    7  A    between atoms: O_14  and  C_15
REMARK                            x       y       z     vdW  Elec       q    Type
REMARK                         _______ _______ _______ _____ _____    ______ ____
ROOT
ATOM      1  C   UNL     1       1.462   8.751  19.323  0.00  0.00    +0.000 A 
ATOM      2  C   UNL     1       1.808   7.457  19.007  0.00  0.00    +0.000 A 
ATOM      3  N   UNL     1       1.751   6.791  20.200  0.00  0.00    +0.000 N 
ATOM      4  N   UNL     1       1.374   7.617  21.193  0.00  0.00    +0.000 NA
ATOM      5  N   UNL     1       1.185   8.820  20.664  0.00  0.00    +0.000 NA
ENDROOT
BRANCH   1   6
ATOM      6  C   UNL     1       1.453   9.960  18.467  0.00  0.00    +0.000 C 
BRANCH   6   9
ATOM      7  O   UNL     1      -0.598  11.484  19.508  0.00  0.00    +0.000 OA
ATOM      8  C   UNL     1      -0.792  10.904  18.444  0.00  0.00    +0.000 C 
ATOM      9  N   UNL     1       0.178  10.147  17.821  0.00  0.00    +0.000 N 
ATOM     10  H   UNL     1      -0.090   9.602  17.004  0.00  0.00    +0.000 HD
BRANCH   8  11
ATOM     11  C   UNL     1      -2.110  10.992  17.746  0.00  0.00    +0.000 A 
ATOM     12  C   UNL     1      -3.181  11.587  18.405  0.00  0.00    +0.000 A 
ATOM     13  C   UNL     1      -4.393  11.694  17.731  0.00  0.00    +0.000 A 
ATOM     14  C   UNL     1      -4.491  11.203  16.433  0.00  0.00    +0.000 A 
ATOM     15  C   UNL     1      -3.373  10.613  15.859  0.00  0.00    +0.000 A 
ATOM     16  N   UNL     1      -2.176  10.496  16.479  0.00  0.00    +0.000 NA
ENDBRANCH   8  11
ENDBRANCH   6   9
ENDBRANCH   1   6
BRANCH   3  17
ATOM     17  C   UNL     1       2.131   5.421  20.476  0.00  0.00    +0.000 C 
BRANCH  17  18
ATOM     18  C   UNL     1       2.772   4.759  19.283  0.00  0.00    +0.000 A 
ATOM     19  C   UNL     1       2.015   3.991  18.388  0.00  0.00    +0.000 A 
ATOM     20  C   UNL     1       2.629   3.366  17.299  0.00  0.00    +0.000 A 
ATOM     21  C   UNL     1       4.007   3.478  17.106  0.00  0.00    +0.000 A 
ATOM     22  C   UNL     1       4.778   4.206  18.010  0.00  0.00    +0.000 A 
ATOM     23  C   UNL     1       4.155   4.869  19.069  0.00  0.00    +0.000 A 
BRANCH  22  24
ATOM     24  O   UNL     1       6.136   4.269  17.775  0.00  0.00    +0.000 OA
BRANCH  24  25
ATOM     25  C   UNL     1       6.770   5.491  17.869  0.00  0.00    +0.000 A 
ATOM     26  C   UNL     1       6.521   6.561  17.003  0.00  0.00    +0.000 A 
ATOM     27  C   UNL     1       7.232   7.753  17.135  0.00  0.00    +0.000 A 
ATOM     28  C   UNL     1       8.148   7.903  18.173  0.00  0.00    +0.000 A 
ATOM     29  C   UNL     1       8.357   6.861  19.077  0.00  0.00    +0.000 A 
ATOM     30  C   UNL     1       7.672   5.653  18.922  0.00  0.00    +0.000 A 
ENDBRANCH  24  25
ENDBRANCH  22  24
ENDBRANCH  17  18
ENDBRANCH   3  17
TORSDOF 7
ENDMDL
MODEL 6
REMARK VINA RESULT:      -8.3      2.694      9.528
REMARK  Name = 
REMARK  7 active torsions:
REMARK  status: ('A' for Active; 'I' for Inactive)
REMARK    1  A    between atoms: C_2  and  C_24
REMARK    2  A    between atoms: N_3  and  C_4
REMARK    3  A    between atoms: C_4  and  C_5
REMARK    4  A    between atoms: N_7  and  C_8
REMARK    5  A    between atoms: C_8  and  C_9
REMARK    6  A    between atoms: C_13  and  O_14
REMARK    7  A    between atoms: O_14  and  C_15
REMARK                            x       y       z     vdW  Elec       q    Type
REMARK                         _______ _______ _______ _____ _____    ______ ____
ROOT
ATOM      1  C   UNL     1       2.107   8.524  18.465  0.00  0.00    +0.000 A 
ATOM      2  C   UNL     1       2.691   7.559  17.674  0.00  0.00    +0.000 A 
ATOM      3  N   UNL     1       2.769   6.461  18.484  0.00  0.00    +0.000 N 
ATOM      4  N   UNL     1       2.248   6.720  19.697  0.00  0.00    +0.000 NA
ATOM      5  N   UNL     1       1.831   7.980  19.693  0.00  0.00    +0.000 NA
ENDROOT
BRANCH   1   6
ATOM      6  C   UNL     1       1.863   9.956  18.178  0.00  0.00    +0.000 C 
BRANCH   6   9
ATOM      7  O   UNL     1       0.054  11.120  19.906  0.00  0.00    +0.000 OA
ATOM      8  C   UNL     1      -0.347  10.766  18.801  0.00  0.00    +0.000 C 
ATOM      9  N   UNL     1       0.482  10.208  17.852  0.00  0.00    +0.000 N 
ATOM     10  H   UNL     1       0.059   9.832  17.005  0.00  0.00    +0.000 HD
BRANCH   8  11
ATOM     11  C   UNL     1      -1.781  10.929  18.412  0.00  0.00    +0.000 A 
ATOM     12  C   UNL     1      -2.292  10.140  17.386  0.00  0.00    +0.000 A 
ATOM     13  C   UNL     1      -3.636  10.276  17.058  0.00  0.00    +0.000 A 
ATOM     14  C   UNL     1      -4.415  11.192  17.758  0.00  0.00    +0.000 A 
ATOM     15  C   UNL     1      -3.816  11.946  18.759  0.00  0.00    +0.000 A 
ATOM     16  N   UNL     1      -2.515  11.838  19.112  0.00  0.00    +0.000 NA
ENDBRANCH   8  11
ENDBRANCH   6   9
ENDBRANCH   1   6
BRANCH   3  17
ATOM     17  C   UNL     1       3.405   5.189  18.204  0.00  0.00    +0.000 C 
BRANCH  17  18
ATOM     18  C   UNL     1       4.904   5.315  18.107  0.00  0.00    +0.000 A 
ATOM     19  C   UNL     1       5.706   5.306  19.255  0.00  0.00    +0.000 A 
ATOM     20  C   UNL     1       7.093   5.447  19.150  0.00  0.00    +0.000 A 
ATOM     21  C   UNL     1       7.691   5.624  17.900  0.00  0.00    +0.000 A 
ATOM     22  C   UNL     1       6.902   5.673  16.753  0.00  0.00    +0.000 A 
ATOM     23  C   UNL     1       5.521   5.485  16.858  0.00  0.00    +0.000 A 
BRANCH  22  24
ATOM     24  O   UNL     1       7.547   5.865  15.550  0.00  0.00    +0.000 OA
BRANCH  24  25
ATOM     25  C   UNL     1       7.165   5.105  14.463  0.00  0.00    +0.000 A 
ATOM     26  C   UNL     1       7.677   5.285  13.173  0.00  0.00    +0.000 A 
ATOM     27  C   UNL     1       7.211   4.505  12.116  0.00  0.00    +0.000 A 
ATOM     28  C   UNL     1       6.281   3.496  12.355  0.00  0.00    +0.000 A 
ATOM     29  C   UNL     1       5.811   3.272  13.650  0.00  0.00    +0.000 A 
ATOM     30  C   UNL     1       6.249   4.079  14.703  0.00  0.00    +0.000 A 
ENDBRANCH  24  25
ENDBRANCH  22  24
ENDBRANCH  17  18
ENDBRANCH   3  17
TORSDOF 7
ENDMDL
MODEL 7
REMARK VINA RESULT:      -8.2      5.429     10.427
REMARK  Name = 
REMARK  7 active torsions:
REMARK  status: ('A' for Active; 'I' for Inactive)
REMARK    1  A    between atoms: C_2  and  C_24
REMARK    2  A    between atoms: N_3  and  C_4
REMARK    3  A    between atoms: C_4  and  C_5
REMARK    4  A    between atoms: N_7  and  C_8
REMARK    5  A    between atoms: C_8  and  C_9
REMARK    6  A    between atoms: C_13  and  O_14
REMARK    7  A    between atoms: O_14  and  C_15
REMARK                            x       y       z     vdW  Elec       q    Type
REMARK                         _______ _______ _______ _____ _____    ______ ____
ROOT
ATOM      1  C   UNL     1       0.387  13.614  21.554  0.00  0.00    +0.000 A 
ATOM      2  C   UNL     1      -0.554  12.639  21.309  0.00  0.00    +0.000 A 
ATOM      3  N   UNL     1       0.183  11.521  21.034  0.00  0.00    +0.000 N 
ATOM      4  N   UNL     1       1.501  11.780  21.121  0.00  0.00    +0.000 NA
ATOM      5  N   UNL     1       1.637  13.059  21.449  0.00  0.00    +0.000 NA
ENDROOT
BRANCH   1   6
ATOM      6  C   UNL     1       0.200  15.063  21.799  0.00  0.00    +0.000 C 
BRANCH   6   9
ATOM      7  O   UNL     1      -1.652  16.384  20.238  0.00  0.00    +0.000 OA
ATOM      8  C   UNL     1      -0.472  16.443  19.909  0.00  0.00    +0.000 C 
ATOM      9  N   UNL     1       0.536  15.849  20.639  0.00  0.00    +0.000 N 
ATOM     10  H   UNL     1       1.475  15.840  20.244  0.00  0.00    +0.000 HD
BRANCH   8  11
ATOM     11  C   UNL     1      -0.049  17.180  18.680  0.00  0.00    +0.000 A 
ATOM     12  C   UNL     1       1.280  17.103  18.273  0.00  0.00    +0.000 A 
ATOM     13  C   UNL     1       1.652  17.765  17.108  0.00  0.00    +0.000 A 
ATOM     14  C   UNL     1       0.691  18.479  16.398  0.00  0.00    +0.000 A 
ATOM     15  C   UNL     1      -0.609  18.510  16.886  0.00  0.00    +0.000 A 
ATOM     16  N   UNL     1      -1.011  17.874  18.010  0.00  0.00    +0.000 NA
ENDBRANCH   8  11
ENDBRANCH   6   9
ENDBRANCH   1   6
BRANCH   3  17
ATOM     17  C   UNL     1      -0.292  10.225  20.592  0.00  0.00    +0.000 C 
BRANCH  17  18
ATOM     18  C   UNL     1       0.715   9.520  19.720  0.00  0.00    +0.000 A 
ATOM     19  C   UNL     1       1.005   9.982  18.429  0.00  0.00    +0.000 A 
ATOM     20  C   UNL     1       1.924   9.303  17.625  0.00  0.00    +0.000 A 
ATOM     21  C   UNL     1       2.545   8.141  18.090  0.00  0.00    +0.000 A 
ATOM     22  C   UNL     1       2.238   7.649  19.356  0.00  0.00    +0.000 A 
ATOM     23  C   UNL     1       1.354   8.356  20.175  0.00  0.00    +0.000 A 
BRANCH  22  24
ATOM     24  O   UNL     1       2.871   6.491  19.754  0.00  0.00    +0.000 OA
BRANCH  24  25
ATOM     25  C   UNL     1       2.196   5.292  19.641  0.00  0.00    +0.000 A 
ATOM     26  C   UNL     1       1.647   4.607  20.731  0.00  0.00    +0.000 A 
ATOM     27  C   UNL     1       1.014   3.380  20.543  0.00  0.00    +0.000 A 
ATOM     28  C   UNL     1       0.870   2.862  19.258  0.00  0.00    +0.000 A 
ATOM     29  C   UNL     1       1.364   3.570  18.161  0.00  0.00    +0.000 A 
ATOM     30  C   UNL     1       2.031   4.782  18.353  0.00  0.00    +0.000 A 
ENDBRANCH  24  25
ENDBRANCH  22  24
ENDBRANCH  17  18
ENDBRANCH   3  17
TORSDOF 7
ENDMDL
MODEL 8
REMARK VINA RESULT:      -8.1      2.029      2.903
REMARK  Name = 
REMARK  7 active torsions:
REMARK  status: ('A' for Active; 'I' for Inactive)
REMARK    1  A    between atoms: C_2  and  C_24
REMARK    2  A    between atoms: N_3  and  C_4
REMARK    3  A    between atoms: C_4  and  C_5
REMARK    4  A    between atoms: N_7  and  C_8
REMARK    5  A    between atoms: C_8  and  C_9
REMARK    6  A    between atoms: C_13  and  O_14
REMARK    7  A    between atoms: O_14  and  C_15
REMARK                            x       y       z     vdW  Elec       q    Type
REMARK                         _______ _______ _______ _____ _____    ______ ____
ROOT
ATOM      1  C   UNL     1       2.797   3.490  19.920  0.00  0.00    +0.000 A 
ATOM      2  C   UNL     1       3.113   4.763  20.339  0.00  0.00    +0.000 A 
ATOM      3  N   UNL     1       1.910   5.316  20.677  0.00  0.00    +0.000 N 
ATOM      4  N   UNL     1       0.909   4.435  20.498  0.00  0.00    +0.000 NA
ATOM      5  N   UNL     1       1.443   3.308  20.042  0.00  0.00    +0.000 NA
ENDROOT
BRANCH   1   6
ATOM      6  C   UNL     1       3.668   2.449  19.328  0.00  0.00    +0.000 C 
BRANCH   6   9
ATOM      7  O   UNL     1       3.008   3.542  16.882  0.00  0.00    +0.000 OA
ATOM      8  C   UNL     1       4.193   3.505  17.198  0.00  0.00    +0.000 C 
ATOM      9  N   UNL     1       4.626   3.013  18.411  0.00  0.00    +0.000 N 
ATOM     10  H   UNL     1       5.629   2.906  18.556  0.00  0.00    +0.000 HD
BRANCH   8  11
ATOM     11  C   UNL     1       5.254   4.007  16.272  0.00  0.00    +0.000 A 
ATOM     12  C   UNL     1       6.352   4.674  16.807  0.00  0.00    +0.000 A 
ATOM     13  C   UNL     1       7.349   5.104  15.938  0.00  0.00    +0.000 A 
ATOM     14  C   UNL     1       7.212   4.858  14.576  0.00  0.00    +0.000 A 
ATOM     15  C   UNL     1       6.076   4.195  14.131  0.00  0.00    +0.000 A 
ATOM     16  N   UNL     1       5.089   3.755  14.944  0.00  0.00    +0.000 NA
ENDBRANCH   8  11
ENDBRANCH   6   9
ENDBRANCH   1   6
BRANCH   3  17
ATOM     17  C   UNL     1       1.635   6.682  21.075  0.00  0.00    +0.000 C 
BRANCH  17  18
ATOM     18  C   UNL     1       1.703   7.636  19.909  0.00  0.00    +0.000 A 
ATOM     19  C   UNL     1       2.561   7.397  18.828  0.00  0.00    +0.000 A 
ATOM     20  C   UNL     1       2.629   8.303  17.766  0.00  0.00    +0.000 A 
ATOM     21  C   UNL     1       1.861   9.469  17.784  0.00  0.00    +0.000 A 
ATOM     22  C   UNL     1       1.031   9.738  18.870  0.00  0.00    +0.000 A 
ATOM     23  C   UNL     1       0.931   8.808  19.907  0.00  0.00    +0.000 A 
BRANCH  22  24
ATOM     24  O   UNL     1       0.309  10.912  18.838  0.00  0.00    +0.000 OA
BRANCH  24  25
ATOM     25  C   UNL     1      -1.017  10.866  18.455  0.00  0.00    +0.000 A 
ATOM     26  C   UNL     1      -1.515   9.975  17.497  0.00  0.00    +0.000 A 
ATOM     27  C   UNL     1      -2.859  10.016  17.132  0.00  0.00    +0.000 A 
ATOM     28  C   UNL     1      -3.726  10.901  17.769  0.00  0.00    +0.000 A 
ATOM     29  C   UNL     1      -3.246  11.750  18.767  0.00  0.00    +0.000 A 
ATOM     30  C   UNL     1      -1.891  11.736  19.107  0.00  0.00    +0.000 A 
ENDBRANCH  24  25
ENDBRANCH  22  24
ENDBRANCH  17  18
ENDBRANCH   3  17
TORSDOF 7
ENDMDL
MODEL 9
REMARK VINA RESULT:      -8.1      3.190      8.852
REMARK  Name = 
REMARK  7 active torsions:
REMARK  status: ('A' for Active; 'I' for Inactive)
REMARK    1  A    between atoms: C_2  and  C_24
REMARK    2  A    between atoms: N_3  and  C_4
REMARK    3  A    between atoms: C_4  and  C_5
REMARK    4  A    between atoms: N_7  and  C_8
REMARK    5  A    between atoms: C_8  and  C_9
REMARK    6  A    between atoms: C_13  and  O_14
REMARK    7  A    between atoms: O_14  and  C_15
REMARK                            x       y       z     vdW  Elec       q    Type
REMARK                         _______ _______ _______ _____ _____    ______ ____
ROOT
ATOM      1  C   UNL     1       1.682   9.198  19.258  0.00  0.00    +0.000 A 
ATOM      2  C   UNL     1       1.454   8.424  20.374  0.00  0.00    +0.000 A 
ATOM      3  N   UNL     1       1.923   7.188  20.029  0.00  0.00    +0.000 N 
ATOM      4  N   UNL     1       2.430   7.197  18.782  0.00  0.00    +0.000 NA
ATOM      5  N   UNL     1       2.296   8.428  18.304  0.00  0.00    +0.000 NA
ENDROOT
BRANCH   1   6
ATOM      6  C   UNL     1       1.288  10.600  18.987  0.00  0.00    +0.000 C 
BRANCH   6   9
ATOM      7  O   UNL     1      -1.303  10.858  19.898  0.00  0.00    +0.000 OA
ATOM      8  C   UNL     1      -1.122  10.770  18.688  0.00  0.00    +0.000 C 
ATOM      9  N   UNL     1       0.134  10.673  18.128  0.00  0.00    +0.000 N 
ATOM     10  H   UNL     1       0.201  10.485  17.128  0.00  0.00    +0.000 HD
BRANCH   8  11
ATOM     11  C   UNL     1      -2.273  10.768  17.734  0.00  0.00    +0.000 A 
ATOM     12  C   UNL     1      -3.362  11.594  17.993  0.00  0.00    +0.000 A 
ATOM     13  C   UNL     1      -4.410  11.610  17.079  0.00  0.00    +0.000 A 
ATOM     14  C   UNL     1      -4.335  10.802  15.949  0.00  0.00    +0.000 A 
ATOM     15  C   UNL     1      -3.214  10.000  15.779  0.00  0.00    +0.000 A 
ATOM     16  N   UNL     1      -2.172   9.962  16.641  0.00  0.00    +0.000 NA
ENDBRANCH   8  11
ENDBRANCH   6   9
ENDBRANCH   1   6
BRANCH   3  17
ATOM     17  C   UNL     1       1.831   5.955  20.786  0.00  0.00    +0.000 C 
BRANCH  17  18
ATOM     18  C   UNL     1       1.903   4.739  19.898  0.00  0.00    +0.000 A 
ATOM     19  C   UNL     1       0.894   3.768  19.918  0.00  0.00    +0.000 A 
ATOM     20  C   UNL     1       0.988   2.634  19.105  0.00  0.00    +0.000 A 
ATOM     21  C   UNL     1       2.101   2.445  18.284  0.00  0.00    +0.000 A 
ATOM     22  C   UNL     1       3.131   3.384  18.282  0.00  0.00    +0.000 A 
ATOM     23  C   UNL     1       3.011   4.539  19.060  0.00  0.00    +0.000 A 
BRANCH  22  24
ATOM     24  O   UNL     1       4.210   3.136  17.461  0.00  0.00    +0.000 OA
BRANCH  24  25
ATOM     25  C   UNL     1       5.172   4.116  17.315  0.00  0.00    +0.000 A 
ATOM     26  C   UNL     1       6.231   4.302  18.211  0.00  0.00    +0.000 A 
ATOM     27  C   UNL     1       7.140   5.339  18.019  0.00  0.00    +0.000 A 
ATOM     28  C   UNL     1       7.036   6.155  16.895  0.00  0.00    +0.000 A 
ATOM     29  C   UNL     1       6.018   5.937  15.966  0.00  0.00    +0.000 A 
ATOM     30  C   UNL     1       5.083   4.921  16.178  0.00  0.00    +0.000 A 
ENDBRANCH  24  25
ENDBRANCH  22  24
ENDBRANCH  17  18
ENDBRANCH   3  17
TORSDOF 7
ENDMDL
