MODEL 1
REMARK VINA RESULT:      -7.9      0.000      0.000
REMARK  Name = 
REMARK  6 active torsions:
REMARK  status: ('A' for Active; 'I' for Inactive)
REMARK    1  A    between atoms: C_1  and  O_2
REMARK    2  A    between atoms: O_2  and  C_3
REMARK    3  A    between atoms: C_9  and  C_10
REMARK    4  A    between atoms: C_10  and  C_12
REMARK    5  A    between atoms: C_21  and  O_22
REMARK    6  A    between atoms: O_22  and  C_23
REMARK                            x       y       z     vdW  Elec       q    Type
REMARK                         _______ _______ _______ _____ _____    ______ ____
ROOT
ATOM      1  C   UNL     1       2.187   3.929  18.069  0.00  0.00    +0.000 A 
ATOM      2  C   UNL     1       2.424   5.313  18.052  0.00  0.00    +0.000 A 
ATOM      3  C   UNL     1       3.632   5.854  17.582  0.00  0.00    +0.000 A 
ATOM      4  C   UNL     1       3.800   7.240  17.498  0.00  0.00    +0.000 A 
ATOM      5  C   UNL     1       4.979   7.741  16.982  0.00  0.00    +0.000 A 
ATOM      6  N   UNL     1       5.993   6.967  16.556  0.00  0.00    +0.000 NA
ATOM      7  C   UNL     1       5.826   5.617  16.644  0.00  0.00    +0.000 A 
ATOM      8  C   UNL     1       4.667   4.996  17.167  0.00  0.00    +0.000 A 
ATOM      9  C   UNL     1       4.458   3.605  17.315  0.00  0.00    +0.000 A 
ATOM     10  C   UNL     1       3.234   3.062  17.738  0.00  0.00    +0.000 A 
ENDROOT
BRANCH   1  12
ATOM     11  C   UNL     1       0.815   3.124  19.824  0.00  0.00    +0.000 C 
ATOM     12  O   UNL     1       0.969   3.419  18.434  0.00  0.00    +0.000 OA
ENDBRANCH   1  12
BRANCH   7  13
ATOM     13  C   UNL     1       6.938   4.827  16.028  0.00  0.00    +0.000 C 
ATOM     14  O   UNL     1       7.803   4.299  16.725  0.00  0.00    +0.000 OA
BRANCH  13  15
ATOM     15  C   UNL     1       7.005   4.619  14.561  0.00  0.00    +0.000 A 
ATOM     16  C   UNL     1       7.852   5.448  13.807  0.00  0.00    +0.000 A 
ATOM     17  C   UNL     1       7.894   5.337  12.418  0.00  0.00    +0.000 A 
ATOM     18  C   UNL     1       7.083   4.403  11.771  0.00  0.00    +0.000 A 
ATOM     19  C   UNL     1       6.243   3.579  12.520  0.00  0.00    +0.000 A 
ATOM     20 CL   UNL     1       5.237   2.435  11.717  0.00  0.00    +0.000 Cl
ATOM     21  C   UNL     1       6.199   3.679  13.910  0.00  0.00    +0.000 A 
ENDBRANCH  13  15
ENDBRANCH   7  13
BRANCH  10  22
ATOM     22  O   UNL     1       3.268   1.696  17.747  0.00  0.00    +0.000 OA
ATOM     23  C   UNL     1       3.887   1.008  18.819  0.00  0.00    +0.000 C 
ENDBRANCH  10  22
TORSDOF 4
ENDMDL
MODEL 2
REMARK VINA RESULT:      -7.6      3.036      5.096
REMARK  Name = 
REMARK  6 active torsions:
REMARK  status: ('A' for Active; 'I' for Inactive)
REMARK    1  A    between atoms: C_1  and  O_2
REMARK    2  A    between atoms: O_2  and  C_3
REMARK    3  A    between atoms: C_9  and  C_10
REMARK    4  A    between atoms: C_10  and  C_12
REMARK    5  A    between atoms: C_21  and  O_22
REMARK    6  A    between atoms: O_22  and  C_23
REMARK                            x       y       z     vdW  Elec       q    Type
REMARK                         _______ _______ _______ _____ _____    ______ ____
ROOT
ATOM      1  C   UNL     1       1.764   7.442  20.457  0.00  0.00    +0.000 A 
ATOM      2  C   UNL     1       1.471   6.216  21.078  0.00  0.00    +0.000 A 
ATOM      3  C   UNL     1       1.719   4.986  20.447  0.00  0.00    +0.000 A 
ATOM      4  C   UNL     1       1.498   3.785  21.127  0.00  0.00    +0.000 A 
ATOM      5  C   UNL     1       1.801   2.593  20.499  0.00  0.00    +0.000 A 
ATOM      6  N   UNL     1       2.297   2.515  19.251  0.00  0.00    +0.000 NA
ATOM      7  C   UNL     1       2.508   3.689  18.590  0.00  0.00    +0.000 A 
ATOM      8  C   UNL     1       2.221   4.964  19.132  0.00  0.00    +0.000 A 
ATOM      9  C   UNL     1       2.385   6.208  18.477  0.00  0.00    +0.000 A 
ATOM     10  C   UNL     1       2.185   7.438  19.123  0.00  0.00    +0.000 A 
ENDROOT
BRANCH   1  12
ATOM     11  C   UNL     1       0.265   9.006  21.415  0.00  0.00    +0.000 C 
ATOM     12  O   UNL     1       1.613   8.630  21.121  0.00  0.00    +0.000 OA
ENDBRANCH   1  12
BRANCH   7  13
ATOM     13  C   UNL     1       3.185   3.525  17.266  0.00  0.00    +0.000 C 
ATOM     14  O   UNL     1       2.575   3.088  16.291  0.00  0.00    +0.000 OA
BRANCH  13  15
ATOM     15  C   UNL     1       4.600   3.928  17.076  0.00  0.00    +0.000 A 
ATOM     16  C   UNL     1       5.385   4.165  18.216  0.00  0.00    +0.000 A 
ATOM     17  C   UNL     1       6.698   4.615  18.088  0.00  0.00    +0.000 A 
ATOM     18  C   UNL     1       7.233   4.842  16.818  0.00  0.00    +0.000 A 
ATOM     19  C   UNL     1       6.454   4.605  15.686  0.00  0.00    +0.000 A 
ATOM     20 CL   UNL     1       7.116   4.893  14.123  0.00  0.00    +0.000 Cl
ATOM     21  C   UNL     1       5.142   4.149  15.805  0.00  0.00    +0.000 A 
ENDBRANCH  13  15
ENDBRANCH   7  13
BRANCH  10  22
ATOM     22  O   UNL     1       2.460   8.489  18.295  0.00  0.00    +0.000 OA
ATOM     23  C   UNL     1       1.408   9.304  17.808  0.00  0.00    +0.000 C 
ENDBRANCH  10  22
TORSDOF 4
ENDMDL
MODEL 3
REMARK VINA RESULT:      -7.5      3.449      5.293
REMARK  Name = 
REMARK  6 active torsions:
REMARK  status: ('A' for Active; 'I' for Inactive)
REMARK    1  A    between atoms: C_1  and  O_2
REMARK    2  A    between atoms: O_2  and  C_3
REMARK    3  A    between atoms: C_9  and  C_10
REMARK    4  A    between atoms: C_10  and  C_12
REMARK    5  A    between atoms: C_21  and  O_22
REMARK    6  A    between atoms: O_22  and  C_23
REMARK                            x       y       z     vdW  Elec       q    Type
REMARK                         _______ _______ _______ _____ _____    ______ ____
ROOT
ATOM      1  C   UNL     1       1.768   7.652  20.361  0.00  0.00    +0.000 A 
ATOM      2  C   UNL     1       1.583   6.446  21.058  0.00  0.00    +0.000 A 
ATOM      3  C   UNL     1       1.888   5.202  20.482  0.00  0.00    +0.000 A 
ATOM      4  C   UNL     1       1.774   4.028  21.233  0.00  0.00    +0.000 A 
ATOM      5  C   UNL     1       2.132   2.825  20.656  0.00  0.00    +0.000 A 
ATOM      6  N   UNL     1       2.584   2.712  19.395  0.00  0.00    +0.000 NA
ATOM      7  C   UNL     1       2.690   3.858  18.664  0.00  0.00    +0.000 A 
ATOM      8  C   UNL     1       2.339   5.140  19.150  0.00  0.00    +0.000 A 
ATOM      9  C   UNL     1       2.394   6.353  18.425  0.00  0.00    +0.000 A 
ATOM     10  C   UNL     1       2.137   7.601  19.013  0.00  0.00    +0.000 A 
ENDROOT
BRANCH   1  12
ATOM     11  C   UNL     1       0.309   9.013  21.638  0.00  0.00    +0.000 C 
ATOM     12  O   UNL     1       1.563   8.862  20.968  0.00  0.00    +0.000 OA
ENDBRANCH   1  12
BRANCH   7  13
ATOM     13  C   UNL     1       3.325   3.666  17.323  0.00  0.00    +0.000 C 
ATOM     14  O   UNL     1       2.697   3.172  16.388  0.00  0.00    +0.000 OA
BRANCH  13  15
ATOM     15  C   UNL     1       4.718   4.107  17.067  0.00  0.00    +0.000 A 
ATOM     16  C   UNL     1       5.231   3.976  15.767  0.00  0.00    +0.000 A 
ATOM     17  C   UNL     1       6.557   4.311  15.494  0.00  0.00    +0.000 A 
ATOM     18  C   UNL     1       7.382   4.770  16.522  0.00  0.00    +0.000 A 
ATOM     19  C   UNL     1       6.871   4.902  17.814  0.00  0.00    +0.000 A 
ATOM     20 CL   UNL     1       7.896   5.461  19.080  0.00  0.00    +0.000 Cl
ATOM     21  C   UNL     1       5.545   4.575  18.094  0.00  0.00    +0.000 A 
ENDBRANCH  13  15
ENDBRANCH   7  13
BRANCH  10  22
ATOM     22  O   UNL     1       2.309   8.622  18.120  0.00  0.00    +0.000 OA
ATOM     23  C   UNL     1       1.278   9.573  17.922  0.00  0.00    +0.000 C 
ENDBRANCH  10  22
TORSDOF 4
ENDMDL
MODEL 4
REMARK VINA RESULT:      -7.3      3.771      7.082
REMARK  Name = 
REMARK  6 active torsions:
REMARK  status: ('A' for Active; 'I' for Inactive)
REMARK    1  A    between atoms: C_1  and  O_2
REMARK    2  A    between atoms: O_2  and  C_3
REMARK    3  A    between atoms: C_9  and  C_10
REMARK    4  A    between atoms: C_10  and  C_12
REMARK    5  A    between atoms: C_21  and  O_22
REMARK    6  A    between atoms: O_22  and  C_23
REMARK                            x       y       z     vdW  Elec       q    Type
REMARK                         _______ _______ _______ _____ _____    ______ ____
ROOT
ATOM      1  C   UNL     1       6.272   4.649  16.770  0.00  0.00    +0.000 A 
ATOM      2  C   UNL     1       5.167   3.812  16.542  0.00  0.00    +0.000 A 
ATOM      3  C   UNL     1       3.976   3.938  17.276  0.00  0.00    +0.000 A 
ATOM      4  C   UNL     1       2.867   3.146  16.965  0.00  0.00    +0.000 A 
ATOM      5  C   UNL     1       1.693   3.330  17.670  0.00  0.00    +0.000 A 
ATOM      6  N   UNL     1       1.553   4.232  18.657  0.00  0.00    +0.000 NA
ATOM      7  C   UNL     1       2.638   4.999  18.961  0.00  0.00    +0.000 A 
ATOM      8  C   UNL     1       3.891   4.886  18.313  0.00  0.00    +0.000 A 
ATOM      9  C   UNL     1       5.058   5.629  18.612  0.00  0.00    +0.000 A 
ATOM     10  C   UNL     1       6.232   5.539  17.849  0.00  0.00    +0.000 A 
ENDROOT
BRANCH   1  12
ATOM     11  C   UNL     1       7.175   4.826  14.587  0.00  0.00    +0.000 C 
ATOM     12  O   UNL     1       7.389   4.584  15.980  0.00  0.00    +0.000 OA
ENDBRANCH   1  12
BRANCH   7  13
ATOM     13  C   UNL     1       2.363   6.066  19.973  0.00  0.00    +0.000 C 
ATOM     14  O   UNL     1       2.512   5.854  21.175  0.00  0.00    +0.000 OA
BRANCH  13  15
ATOM     15  C   UNL     1       1.947   7.427  19.554  0.00  0.00    +0.000 A 
ATOM     16  C   UNL     1       2.240   7.841  18.245  0.00  0.00    +0.000 A 
ATOM     17  C   UNL     1       1.932   9.136  17.828  0.00  0.00    +0.000 A 
ATOM     18  C   UNL     1       1.338  10.029  18.721  0.00  0.00    +0.000 A 
ATOM     19  C   UNL     1       1.045   9.616  20.021  0.00  0.00    +0.000 A 
ATOM     20 CL   UNL     1       0.319  10.725  21.122  0.00  0.00    +0.000 Cl
ATOM     21  C   UNL     1       1.343   8.322  20.444  0.00  0.00    +0.000 A 
ENDBRANCH  13  15
ENDBRANCH   7  13
BRANCH  10  22
ATOM     22  O   UNL     1       7.195   6.394  18.306  0.00  0.00    +0.000 OA
ATOM     23  C   UNL     1       7.527   7.553  17.562  0.00  0.00    +0.000 C 
ENDBRANCH  10  22
TORSDOF 4
ENDMDL
MODEL 5
REMARK VINA RESULT:      -7.0      3.449      7.057
REMARK  Name = 
REMARK  6 active torsions:
REMARK  status: ('A' for Active; 'I' for Inactive)
REMARK    1  A    between atoms: C_1  and  O_2
REMARK    2  A    between atoms: O_2  and  C_3
REMARK    3  A    between atoms: C_9  and  C_10
REMARK    4  A    between atoms: C_10  and  C_12
REMARK    5  A    between atoms: C_21  and  O_22
REMARK    6  A    between atoms: O_22  and  C_23
REMARK                            x       y       z     vdW  Elec       q    Type
REMARK                         _______ _______ _______ _____ _____    ______ ____
ROOT
ATOM      1  C   UNL     1       6.243   4.558  17.129  0.00  0.00    +0.000 A 
ATOM      2  C   UNL     1       5.108   3.852  16.698  0.00  0.00    +0.000 A 
ATOM      3  C   UNL     1       3.894   3.897  17.402  0.00  0.00    +0.000 A 
ATOM      4  C   UNL     1       2.760   3.253  16.898  0.00  0.00    +0.000 A 
ATOM      5  C   UNL     1       1.567   3.359  17.586  0.00  0.00    +0.000 A 
ATOM      6  N   UNL     1       1.429   4.049  18.732  0.00  0.00    +0.000 NA
ATOM      7  C   UNL     1       2.538   4.672  19.222  0.00  0.00    +0.000 A 
ATOM      8  C   UNL     1       3.811   4.619  18.607  0.00  0.00    +0.000 A 
ATOM      9  C   UNL     1       5.000   5.215  19.092  0.00  0.00    +0.000 A 
ATOM     10  C   UNL     1       6.201   5.212  18.365  0.00  0.00    +0.000 A 
ENDROOT
BRANCH   1  12
ATOM     11  C   UNL     1       7.212   4.869  14.990  0.00  0.00    +0.000 C 
ATOM     12  O   UNL     1       7.390   4.588  16.380  0.00  0.00    +0.000 OA
ENDBRANCH   1  12
BRANCH   7  13
ATOM     13  C   UNL     1       2.273   5.527  20.422  0.00  0.00    +0.000 C 
ATOM     14  O   UNL     1       2.407   5.082  21.560  0.00  0.00    +0.000 OA
BRANCH  13  15
ATOM     15  C   UNL     1       1.884   6.951  20.274  0.00  0.00    +0.000 A 
ATOM     16  C   UNL     1       1.125   7.544  21.295  0.00  0.00    +0.000 A 
ATOM     17  C   UNL     1       0.675   8.858  21.169  0.00  0.00    +0.000 A 
ATOM     18  C   UNL     1       0.974   9.585  20.015  0.00  0.00    +0.000 A 
ATOM     19  C   UNL     1       1.730   8.995  19.001  0.00  0.00    +0.000 A 
ATOM     20 CL   UNL     1       2.088   9.893  17.576  0.00  0.00    +0.000 Cl
ATOM     21  C   UNL     1       2.188   7.685  19.123  0.00  0.00    +0.000 A 
ENDBRANCH  13  15
ENDBRANCH   7  13
BRANCH  10  22
ATOM     22  O   UNL     1       7.185   5.898  19.021  0.00  0.00    +0.000 OA
ATOM     23  C   UNL     1       7.881   6.942  18.364  0.00  0.00    +0.000 C 
ENDBRANCH  10  22
TORSDOF 4
ENDMDL
MODEL 6
REMARK VINA RESULT:      -6.9      4.266      7.728
REMARK  Name = 
REMARK  6 active torsions:
REMARK  status: ('A' for Active; 'I' for Inactive)
REMARK    1  A    between atoms: C_1  and  O_2
REMARK    2  A    between atoms: O_2  and  C_3
REMARK    3  A    between atoms: C_9  and  C_10
REMARK    4  A    between atoms: C_10  and  C_12
REMARK    5  A    between atoms: C_21  and  O_22
REMARK    6  A    between atoms: O_22  and  C_23
REMARK                            x       y       z     vdW  Elec       q    Type
REMARK                         _______ _______ _______ _____ _____    ______ ____
ROOT
ATOM      1  C   UNL     1       6.284   5.185  16.525  0.00  0.00    +0.000 A 
ATOM      2  C   UNL     1       5.211   4.330  16.828  0.00  0.00    +0.000 A 
ATOM      3  C   UNL     1       3.987   4.819  17.314  0.00  0.00    +0.000 A 
ATOM      4  C   UNL     1       2.912   3.950  17.523  0.00  0.00    +0.000 A 
ATOM      5  C   UNL     1       1.705   4.467  17.951  0.00  0.00    +0.000 A 
ATOM      6  N   UNL     1       1.499   5.774  18.189  0.00  0.00    +0.000 NA
ATOM      7  C   UNL     1       2.551   6.618  17.988  0.00  0.00    +0.000 A 
ATOM      8  C   UNL     1       3.833   6.195  17.564  0.00  0.00    +0.000 A 
ATOM      9  C   UNL     1       4.967   7.021  17.376  0.00  0.00    +0.000 A 
ATOM     10  C   UNL     1       6.175   6.543  16.844  0.00  0.00    +0.000 A 
ENDROOT
BRANCH   1  12
ATOM     11  C   UNL     1       7.474   4.731  14.527  0.00  0.00    +0.000 C 
ATOM     12  O   UNL     1       7.435   4.708  15.956  0.00  0.00    +0.000 OA
ENDBRANCH   1  12
BRANCH   7  13
ATOM     13  C   UNL     1       2.206   8.065  18.143  0.00  0.00    +0.000 C 
ATOM     14  O   UNL     1       2.429   8.871  17.241  0.00  0.00    +0.000 OA
BRANCH  13  15
ATOM     15  C   UNL     1       1.541   8.565  19.372  0.00  0.00    +0.000 A 
ATOM     16  C   UNL     1       1.735   7.858  20.569  0.00  0.00    +0.000 A 
ATOM     17  C   UNL     1       1.074   8.247  21.734  0.00  0.00    +0.000 A 
ATOM     18  C   UNL     1       0.206   9.340  21.707  0.00  0.00    +0.000 A 
ATOM     19  C   UNL     1       0.014  10.043  20.517  0.00  0.00    +0.000 A 
ATOM     20 CL   UNL     1      -1.065  11.385  20.486  0.00  0.00    +0.000 Cl
ATOM     21  C   UNL     1       0.676   9.664  19.349  0.00  0.00    +0.000 A 
ENDBRANCH  13  15
ENDBRANCH   7  13
BRANCH  10  22
ATOM     22  O   UNL     1       7.095   7.545  16.710  0.00  0.00    +0.000 OA
ATOM     23  C   UNL     1       7.895   7.927  17.815  0.00  0.00    +0.000 C 
ENDBRANCH  10  22
TORSDOF 4
ENDMDL
MODEL 7
REMARK VINA RESULT:      -6.9      6.455      8.727
REMARK  Name = 
REMARK  6 active torsions:
REMARK  status: ('A' for Active; 'I' for Inactive)
REMARK    1  A    between atoms: C_1  and  O_2
REMARK    2  A    between atoms: O_2  and  C_3
REMARK    3  A    between atoms: C_9  and  C_10
REMARK    4  A    between atoms: C_10  and  C_12
REMARK    5  A    between atoms: C_21  and  O_22
REMARK    6  A    between atoms: O_22  and  C_23
REMARK                            x       y       z     vdW  Elec       q    Type
REMARK                         _______ _______ _______ _____ _____    ______ ____
ROOT
ATOM      1  C   UNL     1      -3.388  11.339  17.821  0.00  0.00    +0.000 A 
ATOM      2  C   UNL     1      -2.869  11.938  18.981  0.00  0.00    +0.000 A 
ATOM      3  C   UNL     1      -1.560  11.688  19.423  0.00  0.00    +0.000 A 
ATOM      4  C   UNL     1      -1.046  12.367  20.532  0.00  0.00    +0.000 A 
ATOM      5  C   UNL     1       0.262  12.139  20.911  0.00  0.00    +0.000 A 
ATOM      6  N   UNL     1       1.082  11.285  20.274  0.00  0.00    +0.000 NA
ATOM      7  C   UNL     1       0.576  10.621  19.197  0.00  0.00    +0.000 A 
ATOM      8  C   UNL     1      -0.751  10.769  18.729  0.00  0.00    +0.000 A 
ATOM      9  C   UNL     1      -1.337  10.079  17.642  0.00  0.00    +0.000 A 
ATOM     10  C   UNL     1      -2.627  10.363  17.168  0.00  0.00    +0.000 A 
ENDROOT
BRANCH   1  12
ATOM     11  C   UNL     1      -5.733  11.076  18.033  0.00  0.00    +0.000 C 
ATOM     12  O   UNL     1      -4.629  11.669  17.344  0.00  0.00    +0.000 OA
ENDBRANCH   1  12
BRANCH   7  13
ATOM     13  C   UNL     1       1.587   9.795  18.464  0.00  0.00    +0.000 C 
ATOM     14  O   UNL     1       2.239  10.268  17.535  0.00  0.00    +0.000 OA
BRANCH  13  15
ATOM     15  C   UNL     1       1.865   8.395  18.866  0.00  0.00    +0.000 A 
ATOM     16  C   UNL     1       1.531   7.996  20.170  0.00  0.00    +0.000 A 
ATOM     17  C   UNL     1       1.838   6.712  20.617  0.00  0.00    +0.000 A 
ATOM     18  C   UNL     1       2.492   5.819  19.765  0.00  0.00    +0.000 A 
ATOM     19  C   UNL     1       2.822   6.215  18.469  0.00  0.00    +0.000 A 
ATOM     20 CL   UNL     1       3.636   5.113  17.425  0.00  0.00    +0.000 Cl
ATOM     21  C   UNL     1       2.513   7.495  18.012  0.00  0.00    +0.000 A 
ENDBRANCH  13  15
ENDBRANCH   7  13
BRANCH  10  22
ATOM     22  O   UNL     1      -2.941   9.601  16.078  0.00  0.00    +0.000 OA
ATOM     23  C   UNL     1      -2.983  10.189  14.790  0.00  0.00    +0.000 C 
ENDBRANCH  10  22
TORSDOF 4
ENDMDL
MODEL 8
REMARK VINA RESULT:      -6.7      3.821      5.645
REMARK  Name = 
REMARK  6 active torsions:
REMARK  status: ('A' for Active; 'I' for Inactive)
REMARK    1  A    between atoms: C_1  and  O_2
REMARK    2  A    between atoms: O_2  and  C_3
REMARK    3  A    between atoms: C_9  and  C_10
REMARK    4  A    between atoms: C_10  and  C_12
REMARK    5  A    between atoms: C_21  and  O_22
REMARK    6  A    between atoms: O_22  and  C_23
REMARK                            x       y       z     vdW  Elec       q    Type
REMARK                         _______ _______ _______ _____ _____    ______ ____
ROOT
ATOM      1  C   UNL     1       1.197   7.658  20.600  0.00  0.00    +0.000 A 
ATOM      2  C   UNL     1       1.165   6.310  20.997  0.00  0.00    +0.000 A 
ATOM      3  C   UNL     1       1.956   5.333  20.371  0.00  0.00    +0.000 A 
ATOM      4  C   UNL     1       1.964   4.019  20.848  0.00  0.00    +0.000 A 
ATOM      5  C   UNL     1       2.792   3.092  20.244  0.00  0.00    +0.000 A 
ATOM      6  N   UNL     1       3.597   3.379  19.206  0.00  0.00    +0.000 NA
ATOM      7  C   UNL     1       3.582   4.661  18.742  0.00  0.00    +0.000 A 
ATOM      8  C   UNL     1       2.765   5.686  19.275  0.00  0.00    +0.000 A 
ATOM      9  C   UNL     1       2.683   7.019  18.809  0.00  0.00    +0.000 A 
ATOM     10  C   UNL     1       1.933   8.008  19.463  0.00  0.00    +0.000 A 
ENDROOT
BRANCH   1  12
ATOM     11  C   UNL     1       1.164   9.171  22.422  0.00  0.00    +0.000 C 
ATOM     12  O   UNL     1       0.499   8.618  21.284  0.00  0.00    +0.000 OA
ENDBRANCH   1  12
BRANCH   7  13
ATOM     13  C   UNL     1       4.599   4.932  17.678  0.00  0.00    +0.000 C 
ATOM     14  O   UNL     1       4.377   4.654  16.501  0.00  0.00    +0.000 OA
BRANCH  13  15
ATOM     15  C   UNL     1       5.890   5.587  18.005  0.00  0.00    +0.000 A 
ATOM     16  C   UNL     1       6.757   4.942  18.901  0.00  0.00    +0.000 A 
ATOM     17  C   UNL     1       7.948   5.551  19.294  0.00  0.00    +0.000 A 
ATOM     18  C   UNL     1       8.276   6.815  18.800  0.00  0.00    +0.000 A 
ATOM     19  C   UNL     1       7.415   7.455  17.908  0.00  0.00    +0.000 A 
ATOM     20 CL   UNL     1       7.820   9.018  17.309  0.00  0.00    +0.000 Cl
ATOM     21  C   UNL     1       6.225   6.850  17.506  0.00  0.00    +0.000 A 
ENDBRANCH  13  15
ENDBRANCH   7  13
BRANCH  10  22
ATOM     22  O   UNL     1       2.060   9.222  18.850  0.00  0.00    +0.000 OA
ATOM     23  C   UNL     1       1.087   9.650  17.913  0.00  0.00    +0.000 C 
ENDBRANCH  10  22
TORSDOF 4
ENDMDL
MODEL 9
REMARK VINA RESULT:      -6.7      2.901      4.903
REMARK  Name = 
REMARK  6 active torsions:
REMARK  status: ('A' for Active; 'I' for Inactive)
REMARK    1  A    between atoms: C_1  and  O_2
REMARK    2  A    between atoms: O_2  and  C_3
REMARK    3  A    between atoms: C_9  and  C_10
REMARK    4  A    between atoms: C_10  and  C_12
REMARK    5  A    between atoms: C_21  and  O_22
REMARK    6  A    between atoms: O_22  and  C_23
REMARK                            x       y       z     vdW  Elec       q    Type
REMARK                         _______ _______ _______ _____ _____    ______ ____
ROOT
ATOM      1  C   UNL     1       1.918   7.355  19.961  0.00  0.00    +0.000 A 
ATOM      2  C   UNL     1       1.565   6.292  20.810  0.00  0.00    +0.000 A 
ATOM      3  C   UNL     1       1.931   4.965  20.530  0.00  0.00    +0.000 A 
ATOM      4  C   UNL     1       1.638   3.945  21.439  0.00  0.00    +0.000 A 
ATOM      5  C   UNL     1       2.057   2.658  21.161  0.00  0.00    +0.000 A 
ATOM      6  N   UNL     1       2.732   2.321  20.048  0.00  0.00    +0.000 NA
ATOM      7  C   UNL     1       3.012   3.318  19.162  0.00  0.00    +0.000 A 
ATOM      8  C   UNL     1       2.620   4.667  19.340  0.00  0.00    +0.000 A 
ATOM      9  C   UNL     1       2.851   5.731  18.437  0.00  0.00    +0.000 A 
ATOM     10  C   UNL     1       2.531   7.064  18.737  0.00  0.00    +0.000 A 
ENDROOT
BRANCH   1  12
ATOM     11  C   UNL     1       0.885   8.836  21.493  0.00  0.00    +0.000 C 
ATOM     12  O   UNL     1       1.645   8.654  20.297  0.00  0.00    +0.000 OA
ENDBRANCH   1  12
BRANCH   7  13
ATOM     13  C   UNL     1       3.879   2.890  18.020  0.00  0.00    +0.000 C 
ATOM     14  O   UNL     1       3.615   1.883  17.366  0.00  0.00    +0.000 OA
BRANCH  13  15
ATOM     15  C   UNL     1       5.059   3.693  17.614  0.00  0.00    +0.000 A 
ATOM     16  C   UNL     1       5.816   4.320  18.616  0.00  0.00    +0.000 A 
ATOM     17  C   UNL     1       6.891   5.142  18.279  0.00  0.00    +0.000 A 
ATOM     18  C   UNL     1       7.209   5.352  16.936  0.00  0.00    +0.000 A 
ATOM     19  C   UNL     1       6.457   4.728  15.941  0.00  0.00    +0.000 A 
ATOM     20 CL   UNL     1       6.848   4.996  14.285  0.00  0.00    +0.000 Cl
ATOM     21  C   UNL     1       5.385   3.899  16.269  0.00  0.00    +0.000 A 
ENDBRANCH  13  15
ENDBRANCH   7  13
BRANCH  10  22
ATOM     22  O   UNL     1       2.901   7.909  17.728  0.00  0.00    +0.000 OA
ATOM     23  C   UNL     1       4.030   7.606  16.928  0.00  0.00    +0.000 C 
ENDBRANCH  10  22
TORSDOF 4
ENDMDL
