MODEL 1
REMARK VINA RESULT:      -7.2      0.000      0.000
REMARK  Name = 
REMARK  18 active torsions:
REMARK  status: ('A' for Active; 'I' for Inactive)
REMARK    1  A    between atoms: C_1  and  C_2
REMARK    2  A    between atoms: C_2  and  O_3
REMARK    3  A    between atoms: O_3  and  C_4
REMARK    4  A    between atoms: C_7  and  C_8
REMARK    5  A    between atoms: C_8  and  C_9
REMARK    6  A    between atoms: C_9  and  N_10
REMARK    7  A    between atoms: C_11  and  C_13
REMARK    8  A    between atoms: C_13  and  O_14
REMARK    9  A    between atoms: O_14  and  C_15
REMARK   10  A    between atoms: C_15  and  C_17
REMARK   11  A    between atoms: C_19  and  O_20
REMARK   12  A    between atoms: O_20  and  C_21
REMARK   13  A    between atoms: C_22  and  O_23
REMARK   14  A    between atoms: O_23  and  C_24
REMARK   15  A    between atoms: C_26  and  N_27
REMARK   16  A    between atoms: C_31  and  O_32
REMARK   17  A    between atoms: O_32  and  C_33
REMARK   18  A    between atoms: C_33  and  C_34
REMARK                            x       y       z     vdW  Elec       q    Type
REMARK                         _______ _______ _______ _____ _____    ______ ____
ROOT
ATOM      1  N   UNL     1       1.669   7.006  21.098  0.00  0.00    +0.000 N 
ATOM      2  C   UNL     1       2.119   6.207  20.061  0.00  0.00    +0.000 C 
ATOM      3  O   UNL     1       2.387   6.656  18.947  0.00  0.00    +0.000 OA
ATOM      4  H   UNL     1       1.403   6.593  21.983  0.00  0.00    +0.000 HD
ENDROOT
BRANCH   1   5
ATOM      5  C   UNL     1       1.390   8.410  20.829  0.00  0.00    +0.000 C 
BRANCH   5   6
ATOM      6  C   UNL     1       0.962   9.222  22.054  0.00  0.00    +0.000 C 
BRANCH   6  10
ATOM      7  C   UNL     1      -2.009  12.250  21.060  0.00  0.00    +0.000 A 
ATOM      8  C   UNL     1      -1.688  11.936  22.391  0.00  0.00    +0.000 A 
ATOM      9  C   UNL     1      -0.737  10.963  22.710  0.00  0.00    +0.000 A 
ATOM     10  C   UNL     1      -0.096  10.244  21.704  0.00  0.00    +0.000 A 
ATOM     11  C   UNL     1      -0.449  10.513  20.374  0.00  0.00    +0.000 A 
ATOM     12  C   UNL     1      -1.420  11.484  20.036  0.00  0.00    +0.000 A 
BRANCH   7  13
ATOM     13  O   UNL     1      -2.884  13.276  20.757  0.00  0.00    +0.000 OA
BRANCH  13  15
ATOM     14  C   UNL     1      -4.964  12.575  19.675  0.00  0.00    +0.000 C 
ATOM     15  C   UNL     1      -4.271  12.964  20.972  0.00  0.00    +0.000 C 
ENDBRANCH  13  15
ENDBRANCH   7  13
BRANCH  12  16
ATOM     16  O   UNL     1      -1.629  11.561  18.679  0.00  0.00    +0.000 OA
BRANCH  16  17
ATOM     17  C   UNL     1      -1.328  10.402  17.906  0.00  0.00    +0.000 C 
ATOM     18  C   UNL     1      -2.587   9.919  17.191  0.00  0.00    +0.000 C 
ENDBRANCH  16  17
ENDBRANCH  12  16
ENDBRANCH   6  10
ENDBRANCH   5   6
ENDBRANCH   1   5
BRANCH   2  19
ATOM     19  C   UNL     1       2.294   4.726  20.395  0.00  0.00    +0.000 C 
BRANCH  19  20
ATOM     20  O   UNL     1       3.671   4.394  20.592  0.00  0.00    +0.000 OA
BRANCH  20  21
ATOM     21  C   UNL     1       4.131   3.396  19.796  0.00  0.00    +0.000 C 
ATOM     22  O   UNL     1       4.189   2.215  20.089  0.00  0.00    +0.000 OA
BRANCH  21  23
ATOM     23  C   UNL     1       4.617   3.958  18.523  0.00  0.00    +0.000 A 
ATOM     24  C   UNL     1       5.850   4.621  18.489  0.00  0.00    +0.000 A 
ATOM     25  C   UNL     1       6.388   5.113  17.294  0.00  0.00    +0.000 A 
ATOM     26  C   UNL     1       5.673   4.963  16.084  0.00  0.00    +0.000 A 
ATOM     27  C   UNL     1       4.443   4.296  16.102  0.00  0.00    +0.000 A 
ATOM     28  C   UNL     1       3.934   3.805  17.313  0.00  0.00    +0.000 A 
BRANCH  28  29
ATOM     29  N   UNL     1       2.631   3.177  17.285  0.00  0.00    +0.000 N 
ATOM     30  O   UNL     1       1.652   3.918  17.161  0.00  0.00    +0.000 OA
ATOM     31  O   UNL     1       2.614   1.938  17.290  0.00  0.00    +0.000 OA
ENDBRANCH  28  29
BRANCH  25  32
ATOM     32  O   UNL     1       7.599   5.765  17.256  0.00  0.00    +0.000 OA
ATOM     33  C   UNL     1       7.609   7.081  17.810  0.00  0.00    +0.000 C 
ENDBRANCH  25  32
BRANCH  26  34
ATOM     34  O   UNL     1       6.251   5.483  14.952  0.00  0.00    +0.000 OA
ATOM     35  C   UNL     1       6.780   4.570  13.992  0.00  0.00    +0.000 C 
ENDBRANCH  26  34
ENDBRANCH  21  23
ENDBRANCH  20  21
ENDBRANCH  19  20
ENDBRANCH   2  19
TORSDOF 14
ENDMDL
MODEL 2
REMARK VINA RESULT:      -7.0      1.417      1.913
REMARK  Name = 
REMARK  18 active torsions:
REMARK  status: ('A' for Active; 'I' for Inactive)
REMARK    1  A    between atoms: C_1  and  C_2
REMARK    2  A    between atoms: C_2  and  O_3
REMARK    3  A    between atoms: O_3  and  C_4
REMARK    4  A    between atoms: C_7  and  C_8
REMARK    5  A    between atoms: C_8  and  C_9
REMARK    6  A    between atoms: C_9  and  N_10
REMARK    7  A    between atoms: C_11  and  C_13
REMARK    8  A    between atoms: C_13  and  O_14
REMARK    9  A    between atoms: O_14  and  C_15
REMARK   10  A    between atoms: C_15  and  C_17
REMARK   11  A    between atoms: C_19  and  O_20
REMARK   12  A    between atoms: O_20  and  C_21
REMARK   13  A    between atoms: C_22  and  O_23
REMARK   14  A    between atoms: O_23  and  C_24
REMARK   15  A    between atoms: C_26  and  N_27
REMARK   16  A    between atoms: C_31  and  O_32
REMARK   17  A    between atoms: O_32  and  C_33
REMARK   18  A    between atoms: C_33  and  C_34
REMARK                            x       y       z     vdW  Elec       q    Type
REMARK                         _______ _______ _______ _____ _____    ______ ____
ROOT
ATOM      1  N   UNL     1       2.171   6.979  18.904  0.00  0.00    +0.000 N 
ATOM      2  C   UNL     1       1.754   6.734  20.201  0.00  0.00    +0.000 C 
ATOM      3  O   UNL     1       1.453   7.636  20.982  0.00  0.00    +0.000 OA
ATOM      4  H   UNL     1       2.466   6.215  18.309  0.00  0.00    +0.000 HD
ENDROOT
BRANCH   1   5
ATOM      5  C   UNL     1       2.375   8.358  18.484  0.00  0.00    +0.000 C 
BRANCH   5   6
ATOM      6  C   UNL     1       1.196   8.975  17.725  0.00  0.00    +0.000 C 
BRANCH   6  10
ATOM      7  C   UNL     1      -0.850  11.998  20.105  0.00  0.00    +0.000 A 
ATOM      8  C   UNL     1       0.391  11.464  20.492  0.00  0.00    +0.000 A 
ATOM      9  C   UNL     1       1.046  10.493  19.731  0.00  0.00    +0.000 A 
ATOM     10  C   UNL     1       0.464   9.996  18.567  0.00  0.00    +0.000 A 
ATOM     11  C   UNL     1      -0.799  10.484  18.201  0.00  0.00    +0.000 A 
ATOM     12  C   UNL     1      -1.480  11.456  18.969  0.00  0.00    +0.000 A 
BRANCH   7  13
ATOM     13  O   UNL     1      -1.443  13.022  20.818  0.00  0.00    +0.000 OA
BRANCH  13  15
ATOM     14  C   UNL     1      -3.398  12.653  22.242  0.00  0.00    +0.000 C 
ATOM     15  C   UNL     1      -1.881  12.658  22.139  0.00  0.00    +0.000 C 
ENDBRANCH  13  15
ENDBRANCH   7  13
BRANCH  12  16
ATOM     16  O   UNL     1      -2.712  11.766  18.441  0.00  0.00    +0.000 OA
BRANCH  16  17
ATOM     17  C   UNL     1      -3.400  10.734  17.738  0.00  0.00    +0.000 C 
ATOM     18  C   UNL     1      -4.658  11.304  17.089  0.00  0.00    +0.000 C 
ENDBRANCH  16  17
ENDBRANCH  12  16
ENDBRANCH   6  10
ENDBRANCH   5   6
ENDBRANCH   1   5
BRANCH   2  19
ATOM     19  C   UNL     1       1.659   5.262  20.598  0.00  0.00    +0.000 C 
BRANCH  19  20
ATOM     20  O   UNL     1       2.945   4.723  20.920  0.00  0.00    +0.000 OA
BRANCH  20  21
ATOM     21  C   UNL     1       3.243   3.559  20.292  0.00  0.00    +0.000 C 
ATOM     22  O   UNL     1       2.915   2.443  20.656  0.00  0.00    +0.000 OA
BRANCH  21  23
ATOM     23  C   UNL     1       4.089   3.831  19.116  0.00  0.00    +0.000 A 
ATOM     24  C   UNL     1       5.429   4.194  19.301  0.00  0.00    +0.000 A 
ATOM     25  C   UNL     1       6.292   4.397  18.217  0.00  0.00    +0.000 A 
ATOM     26  C   UNL     1       5.811   4.254  16.895  0.00  0.00    +0.000 A 
ATOM     27  C   UNL     1       4.477   3.883  16.697  0.00  0.00    +0.000 A 
ATOM     28  C   UNL     1       3.638   3.677  17.802  0.00  0.00    +0.000 A 
BRANCH  28  29
ATOM     29  N   UNL     1       2.253   3.354  17.540  0.00  0.00    +0.000 N 
ATOM     30  O   UNL     1       1.484   4.298  17.332  0.00  0.00    +0.000 OA
ATOM     31  O   UNL     1       1.973   2.150  17.447  0.00  0.00    +0.000 OA
ENDBRANCH  28  29
BRANCH  25  32
ATOM     32  O   UNL     1       7.608   4.755  18.393  0.00  0.00    +0.000 OA
ATOM     33  C   UNL     1       7.826   6.060  18.932  0.00  0.00    +0.000 C 
ENDBRANCH  25  32
BRANCH  26  34
ATOM     34  O   UNL     1       6.706   4.482  15.879  0.00  0.00    +0.000 OA
ATOM     35  C   UNL     1       6.230   5.134  14.704  0.00  0.00    +0.000 C 
ENDBRANCH  26  34
ENDBRANCH  21  23
ENDBRANCH  20  21
ENDBRANCH  19  20
ENDBRANCH   2  19
TORSDOF 14
ENDMDL
MODEL 3
REMARK VINA RESULT:      -6.8      1.671      2.142
REMARK  Name = 
REMARK  18 active torsions:
REMARK  status: ('A' for Active; 'I' for Inactive)
REMARK    1  A    between atoms: C_1  and  C_2
REMARK    2  A    between atoms: C_2  and  O_3
REMARK    3  A    between atoms: O_3  and  C_4
REMARK    4  A    between atoms: C_7  and  C_8
REMARK    5  A    between atoms: C_8  and  C_9
REMARK    6  A    between atoms: C_9  and  N_10
REMARK    7  A    between atoms: C_11  and  C_13
REMARK    8  A    between atoms: C_13  and  O_14
REMARK    9  A    between atoms: O_14  and  C_15
REMARK   10  A    between atoms: C_15  and  C_17
REMARK   11  A    between atoms: C_19  and  O_20
REMARK   12  A    between atoms: O_20  and  C_21
REMARK   13  A    between atoms: C_22  and  O_23
REMARK   14  A    between atoms: O_23  and  C_24
REMARK   15  A    between atoms: C_26  and  N_27
REMARK   16  A    between atoms: C_31  and  O_32
REMARK   17  A    between atoms: O_32  and  C_33
REMARK   18  A    between atoms: C_33  and  C_34
REMARK                            x       y       z     vdW  Elec       q    Type
REMARK                         _______ _______ _______ _____ _____    ______ ____
ROOT
ATOM      1  N   UNL     1       1.941   5.961  21.027  0.00  0.00    +0.000 N 
ATOM      2  C   UNL     1       1.566   4.673  20.687  0.00  0.00    +0.000 C 
ATOM      3  O   UNL     1       0.461   4.407  20.216  0.00  0.00    +0.000 OA
ATOM      4  H   UNL     1       2.836   6.133  21.467  0.00  0.00    +0.000 HD
ENDROOT
BRANCH   1   5
ATOM      5  C   UNL     1       0.952   7.026  20.932  0.00  0.00    +0.000 C 
BRANCH   5   6
ATOM      6  C   UNL     1       1.539   8.424  20.717  0.00  0.00    +0.000 C 
BRANCH   6  10
ATOM      7  C   UNL     1      -0.860  11.522  22.623  0.00  0.00    +0.000 A 
ATOM      8  C   UNL     1      -0.831  10.203  23.108  0.00  0.00    +0.000 A 
ATOM      9  C   UNL     1      -0.063   9.209  22.496  0.00  0.00    +0.000 A 
ATOM     10  C   UNL     1       0.678   9.494  21.352  0.00  0.00    +0.000 A 
ATOM     11  C   UNL     1       0.613  10.794  20.830  0.00  0.00    +0.000 A 
ATOM     12  C   UNL     1      -0.170  11.806  21.430  0.00  0.00    +0.000 A 
BRANCH   7  13
ATOM     13  O   UNL     1      -1.550  12.515  23.291  0.00  0.00    +0.000 OA
BRANCH  13  15
ATOM     14  C   UNL     1      -3.735  13.221  22.446  0.00  0.00    +0.000 C 
ATOM     15  C   UNL     1      -2.970  12.301  23.384  0.00  0.00    +0.000 C 
ENDBRANCH  13  15
ENDBRANCH   7  13
BRANCH  12  16
ATOM     16  O   UNL     1      -0.109  12.991  20.735  0.00  0.00    +0.000 OA
BRANCH  16  17
ATOM     17  C   UNL     1       1.184  13.475  20.382  0.00  0.00    +0.000 C 
ATOM     18  C   UNL     1       1.681  14.442  21.452  0.00  0.00    +0.000 C 
ENDBRANCH  16  17
ENDBRANCH  12  16
ENDBRANCH   6  10
ENDBRANCH   5   6
ENDBRANCH   1   5
BRANCH   2  19
ATOM     19  C   UNL     1       2.626   3.595  20.908  0.00  0.00    +0.000 C 
BRANCH  19  20
ATOM     20  O   UNL     1       3.935   4.077  20.589  0.00  0.00    +0.000 OA
BRANCH  20  21
ATOM     21  C   UNL     1       4.681   3.230  19.836  0.00  0.00    +0.000 C 
ATOM     22  O   UNL     1       5.092   2.137  20.183  0.00  0.00    +0.000 OA
BRANCH  21  23
ATOM     23  C   UNL     1       4.983   3.854  18.535  0.00  0.00    +0.000 A 
ATOM     24  C   UNL     1       6.133   4.642  18.400  0.00  0.00    +0.000 A 
ATOM     25  C   UNL     1       6.501   5.201  17.170  0.00  0.00    +0.000 A 
ATOM     26  C   UNL     1       5.693   4.992  16.030  0.00  0.00    +0.000 A 
ATOM     27  C   UNL     1       4.545   4.201  16.150  0.00  0.00    +0.000 A 
ATOM     28  C   UNL     1       4.207   3.646  17.392  0.00  0.00    +0.000 A 
BRANCH  28  29
ATOM     29  N   UNL     1       2.978   2.886  17.474  0.00  0.00    +0.000 N 
ATOM     30  O   UNL     1       1.923   3.503  17.303  0.00  0.00    +0.000 OA
ATOM     31  O   UNL     1       3.094   1.660  17.610  0.00  0.00    +0.000 OA
ENDBRANCH  28  29
BRANCH  25  32
ATOM     32  O   UNL     1       7.630   5.975  17.033  0.00  0.00    +0.000 OA
ATOM     33  C   UNL     1       7.660   7.167  17.820  0.00  0.00    +0.000 C 
ENDBRANCH  25  32
BRANCH  26  34
ATOM     34  O   UNL     1       6.103   5.582  14.860  0.00  0.00    +0.000 OA
ATOM     35  C   UNL     1       6.735   4.758  13.883  0.00  0.00    +0.000 C 
ENDBRANCH  26  34
ENDBRANCH  21  23
ENDBRANCH  20  21
ENDBRANCH  19  20
ENDBRANCH   2  19
TORSDOF 14
ENDMDL
MODEL 4
REMARK VINA RESULT:      -6.8      1.422      3.277
REMARK  Name = 
REMARK  18 active torsions:
REMARK  status: ('A' for Active; 'I' for Inactive)
REMARK    1  A    between atoms: C_1  and  C_2
REMARK    2  A    between atoms: C_2  and  O_3
REMARK    3  A    between atoms: O_3  and  C_4
REMARK    4  A    between atoms: C_7  and  C_8
REMARK    5  A    between atoms: C_8  and  C_9
REMARK    6  A    between atoms: C_9  and  N_10
REMARK    7  A    between atoms: C_11  and  C_13
REMARK    8  A    between atoms: C_13  and  O_14
REMARK    9  A    between atoms: O_14  and  C_15
REMARK   10  A    between atoms: C_15  and  C_17
REMARK   11  A    between atoms: C_19  and  O_20
REMARK   12  A    between atoms: O_20  and  C_21
REMARK   13  A    between atoms: C_22  and  O_23
REMARK   14  A    between atoms: O_23  and  C_24
REMARK   15  A    between atoms: C_26  and  N_27
REMARK   16  A    between atoms: C_31  and  O_32
REMARK   17  A    between atoms: O_32  and  C_33
REMARK   18  A    between atoms: C_33  and  C_34
REMARK                            x       y       z     vdW  Elec       q    Type
REMARK                         _______ _______ _______ _____ _____    ______ ____
ROOT
ATOM      1  N   UNL     1       1.966   5.751  19.816  0.00  0.00    +0.000 N 
ATOM      2  C   UNL     1       1.804   5.417  18.483  0.00  0.00    +0.000 C 
ATOM      3  O   UNL     1       2.092   6.187  17.567  0.00  0.00    +0.000 OA
ATOM      4  H   UNL     1       1.664   5.115  20.543  0.00  0.00    +0.000 HD
ENDROOT
BRANCH   1   5
ATOM      5  C   UNL     1       2.384   7.105  20.153  0.00  0.00    +0.000 C 
BRANCH   5   6
ATOM      6  C   UNL     1       1.388   7.885  21.015  0.00  0.00    +0.000 C 
BRANCH   6  10
ATOM      7  C   UNL     1      -0.576  11.031  18.729  0.00  0.00    +0.000 A 
ATOM      8  C   UNL     1       0.387  10.187  18.152  0.00  0.00    +0.000 A 
ATOM      9  C   UNL     1       1.018   9.178  18.885  0.00  0.00    +0.000 A 
ATOM     10  C   UNL     1       0.731   9.003  20.237  0.00  0.00    +0.000 A 
ATOM     11  C   UNL     1      -0.189   9.876  20.835  0.00  0.00    +0.000 A 
ATOM     12  C   UNL     1      -0.825  10.909  20.109  0.00  0.00    +0.000 A 
BRANCH   7  13
ATOM     13  O   UNL     1      -1.259  11.963  17.970  0.00  0.00    +0.000 OA
BRANCH  13  15
ATOM     14  C   UNL     1      -2.639  10.974  16.208  0.00  0.00    +0.000 C 
ATOM     15  C   UNL     1      -2.595  11.575  17.604  0.00  0.00    +0.000 C 
ENDBRANCH  13  15
ENDBRANCH   7  13
BRANCH  12  16
ATOM     16  O   UNL     1      -1.664  11.660  20.899  0.00  0.00    +0.000 OA
BRANCH  16  17
ATOM     17  C   UNL     1      -1.144  12.129  22.141  0.00  0.00    +0.000 C 
ATOM     18  C   UNL     1      -2.171  11.903  23.247  0.00  0.00    +0.000 C 
ENDBRANCH  16  17
ENDBRANCH  12  16
ENDBRANCH   6  10
ENDBRANCH   5   6
ENDBRANCH   1   5
BRANCH   2  19
ATOM     19  C   UNL     1       1.269   4.012  18.213  0.00  0.00    +0.000 C 
BRANCH  19  20
ATOM     20  O   UNL     1       1.969   3.384  17.135  0.00  0.00    +0.000 OA
BRANCH  20  21
ATOM     21  C   UNL     1       3.047   2.651  17.512  0.00  0.00    +0.000 C 
ATOM     22  O   UNL     1       3.040   1.471  17.816  0.00  0.00    +0.000 OA
BRANCH  21  23
ATOM     23  C   UNL     1       4.242   3.513  17.563  0.00  0.00    +0.000 A 
ATOM     24  C   UNL     1       4.686   4.143  16.394  0.00  0.00    +0.000 A 
ATOM     25  C   UNL     1       5.774   5.024  16.402  0.00  0.00    +0.000 A 
ATOM     26  C   UNL     1       6.465   5.281  17.608  0.00  0.00    +0.000 A 
ATOM     27  C   UNL     1       6.027   4.664  18.784  0.00  0.00    +0.000 A 
ATOM     28  C   UNL     1       4.928   3.794  18.747  0.00  0.00    +0.000 A 
BRANCH  28  29
ATOM     29  N   UNL     1       4.553   3.136  19.980  0.00  0.00    +0.000 N 
ATOM     30  O   UNL     1       5.175   2.114  20.284  0.00  0.00    +0.000 OA
ATOM     31  O   UNL     1       3.706   3.711  20.679  0.00  0.00    +0.000 OA
ENDBRANCH  28  29
BRANCH  25  32
ATOM     32  O   UNL     1       6.215   5.645  15.257  0.00  0.00    +0.000 OA
ATOM     33  C   UNL     1       6.822   4.791  14.285  0.00  0.00    +0.000 C 
ENDBRANCH  25  32
BRANCH  26  34
ATOM     34  O   UNL     1       7.532   6.143  17.542  0.00  0.00    +0.000 OA
ATOM     35  C   UNL     1       8.073   6.632  18.767  0.00  0.00    +0.000 C 
ENDBRANCH  26  34
ENDBRANCH  21  23
ENDBRANCH  20  21
ENDBRANCH  19  20
ENDBRANCH   2  19
TORSDOF 14
ENDMDL
MODEL 5
REMARK VINA RESULT:      -6.8      1.716      2.116
REMARK  Name = 
REMARK  18 active torsions:
REMARK  status: ('A' for Active; 'I' for Inactive)
REMARK    1  A    between atoms: C_1  and  C_2
REMARK    2  A    between atoms: C_2  and  O_3
REMARK    3  A    between atoms: O_3  and  C_4
REMARK    4  A    between atoms: C_7  and  C_8
REMARK    5  A    between atoms: C_8  and  C_9
REMARK    6  A    between atoms: C_9  and  N_10
REMARK    7  A    between atoms: C_11  and  C_13
REMARK    8  A    between atoms: C_13  and  O_14
REMARK    9  A    between atoms: O_14  and  C_15
REMARK   10  A    between atoms: C_15  and  C_17
REMARK   11  A    between atoms: C_19  and  O_20
REMARK   12  A    between atoms: O_20  and  C_21
REMARK   13  A    between atoms: C_22  and  O_23
REMARK   14  A    between atoms: O_23  and  C_24
REMARK   15  A    between atoms: C_26  and  N_27
REMARK   16  A    between atoms: C_31  and  O_32
REMARK   17  A    between atoms: O_32  and  C_33
REMARK   18  A    between atoms: C_33  and  C_34
REMARK                            x       y       z     vdW  Elec       q    Type
REMARK                         _______ _______ _______ _____ _____    ______ ____
ROOT
ATOM      1  N   UNL     1       1.771   7.467  21.208  0.00  0.00    +0.000 N 
ATOM      2  C   UNL     1       2.118   7.398  19.870  0.00  0.00    +0.000 C 
ATOM      3  O   UNL     1       2.106   8.382  19.131  0.00  0.00    +0.000 OA
ATOM      4  H   UNL     1       1.736   6.626  21.771  0.00  0.00    +0.000 HD
ENDROOT
BRANCH   1   5
ATOM      5  C   UNL     1       1.262   8.725  21.735  0.00  0.00    +0.000 C 
BRANCH   5   6
ATOM      6  C   UNL     1      -0.153   9.085  21.273  0.00  0.00    +0.000 C 
BRANCH   6  10
ATOM      7  C   UNL     1      -0.135  12.823  19.035  0.00  0.00    +0.000 A 
ATOM      8  C   UNL     1       0.739  12.600  20.112  0.00  0.00    +0.000 A 
ATOM      9  C   UNL     1       0.732  11.402  20.831  0.00  0.00    +0.000 A 
ATOM     10  C   UNL     1      -0.178  10.395  20.518  0.00  0.00    +0.000 A 
ATOM     11  C   UNL     1      -1.090  10.630  19.479  0.00  0.00    +0.000 A 
ATOM     12  C   UNL     1      -1.105  11.843  18.752  0.00  0.00    +0.000 A 
BRANCH   7  13
ATOM     13  O   UNL     1      -0.056  13.975  18.275  0.00  0.00    +0.000 OA
BRANCH  13  15
ATOM     14  C   UNL     1       0.844  16.195  18.772  0.00  0.00    +0.000 C 
ATOM     15  C   UNL     1      -0.275  15.193  19.008  0.00  0.00    +0.000 C 
ENDBRANCH  13  15
ENDBRANCH   7  13
BRANCH  12  16
ATOM     16  O   UNL     1      -2.099  11.868  17.802  0.00  0.00    +0.000 OA
BRANCH  16  17
ATOM     17  C   UNL     1      -3.422  11.558  18.234  0.00  0.00    +0.000 C 
ATOM     18  C   UNL     1      -4.309  11.293  17.021  0.00  0.00    +0.000 C 
ENDBRANCH  16  17
ENDBRANCH  12  16
ENDBRANCH   6  10
ENDBRANCH   5   6
ENDBRANCH   1   5
BRANCH   2  19
ATOM     19  C   UNL     1       2.549   6.021  19.368  0.00  0.00    +0.000 C 
BRANCH  19  20
ATOM     20  O   UNL     1       2.891   5.153  20.454  0.00  0.00    +0.000 OA
BRANCH  20  21
ATOM     21  C   UNL     1       3.339   3.929  20.078  0.00  0.00    +0.000 C 
ATOM     22  O   UNL     1       3.138   2.881  20.665  0.00  0.00    +0.000 OA
BRANCH  21  23
ATOM     23  C   UNL     1       4.173   4.054  18.868  0.00  0.00    +0.000 A 
ATOM     24  C   UNL     1       5.478   4.549  18.979  0.00  0.00    +0.000 A 
ATOM     25  C   UNL     1       6.333   4.623  17.873  0.00  0.00    +0.000 A 
ATOM     26  C   UNL     1       5.877   4.211  16.600  0.00  0.00    +0.000 A 
ATOM     27  C   UNL     1       4.578   3.707  16.477  0.00  0.00    +0.000 A 
ATOM     28  C   UNL     1       3.748   3.635  17.605  0.00  0.00    +0.000 A 
BRANCH  28  29
ATOM     29  N   UNL     1       2.394   3.162  17.410  0.00  0.00    +0.000 N 
ATOM     30  O   UNL     1       1.548   3.999  17.081  0.00  0.00    +0.000 OA
ATOM     31  O   UNL     1       2.218   1.938  17.494  0.00  0.00    +0.000 OA
ENDBRANCH  28  29
BRANCH  25  32
ATOM     32  O   UNL     1       7.615   5.109  17.977  0.00  0.00    +0.000 OA
ATOM     33  C   UNL     1       7.825   6.085  18.999  0.00  0.00    +0.000 C 
ENDBRANCH  25  32
BRANCH  26  34
ATOM     34  O   UNL     1       6.761   4.325  15.556  0.00  0.00    +0.000 OA
ATOM     35  C   UNL     1       6.278   4.064  14.240  0.00  0.00    +0.000 C 
ENDBRANCH  26  34
ENDBRANCH  21  23
ENDBRANCH  20  21
ENDBRANCH  19  20
ENDBRANCH   2  19
TORSDOF 14
ENDMDL
MODEL 6
REMARK VINA RESULT:      -6.8      2.190     10.445
REMARK  Name = 
REMARK  18 active torsions:
REMARK  status: ('A' for Active; 'I' for Inactive)
REMARK    1  A    between atoms: C_1  and  C_2
REMARK    2  A    between atoms: C_2  and  O_3
REMARK    3  A    between atoms: O_3  and  C_4
REMARK    4  A    between atoms: C_7  and  C_8
REMARK    5  A    between atoms: C_8  and  C_9
REMARK    6  A    between atoms: C_9  and  N_10
REMARK    7  A    between atoms: C_11  and  C_13
REMARK    8  A    between atoms: C_13  and  O_14
REMARK    9  A    between atoms: O_14  and  C_15
REMARK   10  A    between atoms: C_15  and  C_17
REMARK   11  A    between atoms: C_19  and  O_20
REMARK   12  A    between atoms: O_20  and  C_21
REMARK   13  A    between atoms: C_22  and  O_23
REMARK   14  A    between atoms: O_23  and  C_24
REMARK   15  A    between atoms: C_26  and  N_27
REMARK   16  A    between atoms: C_31  and  O_32
REMARK   17  A    between atoms: O_32  and  C_33
REMARK   18  A    between atoms: C_33  and  C_34
REMARK                            x       y       z     vdW  Elec       q    Type
REMARK                         _______ _______ _______ _____ _____    ______ ____
ROOT
ATOM      1  N   UNL     1       1.558   7.368  20.951  0.00  0.00    +0.000 N 
ATOM      2  C   UNL     1       1.604   8.424  20.058  0.00  0.00    +0.000 C 
ATOM      3  O   UNL     1       2.267   8.386  19.022  0.00  0.00    +0.000 OA
ATOM      4  H   UNL     1       1.048   7.457  21.821  0.00  0.00    +0.000 HD
ENDROOT
BRANCH   1   5
ATOM      5  C   UNL     1       2.415   6.215  20.717  0.00  0.00    +0.000 C 
BRANCH   5   6
ATOM      6  C   UNL     1       1.857   5.197  19.718  0.00  0.00    +0.000 C 
BRANCH   6  10
ATOM      7  C   UNL     1       4.940   3.840  16.953  0.00  0.00    +0.000 A 
ATOM      8  C   UNL     1       3.572   3.750  16.642  0.00  0.00    +0.000 A 
ATOM      9  C   UNL     1       2.583   4.183  17.529  0.00  0.00    +0.000 A 
ATOM     10  C   UNL     1       2.930   4.692  18.778  0.00  0.00    +0.000 A 
ATOM     11  C   UNL     1       4.289   4.736  19.120  0.00  0.00    +0.000 A 
ATOM     12  C   UNL     1       5.299   4.288  18.238  0.00  0.00    +0.000 A 
BRANCH   7  13
ATOM     13  O   UNL     1       5.908   3.493  16.031  0.00  0.00    +0.000 OA
BRANCH  13  15
ATOM     14  C   UNL     1       6.042   3.838  13.613  0.00  0.00    +0.000 C 
ATOM     15  C   UNL     1       6.125   4.466  14.995  0.00  0.00    +0.000 C 
ENDBRANCH  13  15
ENDBRANCH   7  13
BRANCH  12  16
ATOM     16  O   UNL     1       6.555   4.396  18.789  0.00  0.00    +0.000 OA
BRANCH  16  17
ATOM     17  C   UNL     1       6.981   5.694  19.195  0.00  0.00    +0.000 C 
ATOM     18  C   UNL     1       7.406   6.502  17.972  0.00  0.00    +0.000 C 
ENDBRANCH  16  17
ENDBRANCH  12  16
ENDBRANCH   6  10
ENDBRANCH   5   6
ENDBRANCH   1   5
BRANCH   2  19
ATOM     19  C   UNL     1       0.752   9.638  20.423  0.00  0.00    +0.000 C 
BRANCH  19  20
ATOM     20  O   UNL     1      -0.342   9.801  19.516  0.00  0.00    +0.000 OA
BRANCH  20  21
ATOM     21  C   UNL     1      -0.399  11.014  18.911  0.00  0.00    +0.000 C 
ATOM     22  O   UNL     1       0.543  11.758  18.709  0.00  0.00    +0.000 OA
BRANCH  21  23
ATOM     23  C   UNL     1      -1.799  11.340  18.581  0.00  0.00    +0.000 A 
ATOM     24  C   UNL     1      -2.344  10.888  17.373  0.00  0.00    +0.000 A 
ATOM     25  C   UNL     1      -3.686  11.112  17.043  0.00  0.00    +0.000 A 
ATOM     26  C   UNL     1      -4.522  11.827  17.930  0.00  0.00    +0.000 A 
ATOM     27  C   UNL     1      -3.991  12.277  19.145  0.00  0.00    +0.000 A 
ATOM     28  C   UNL     1      -2.646  12.029  19.453  0.00  0.00    +0.000 A 
BRANCH  28  29
ATOM     29  N   UNL     1      -2.134  12.568  20.693  0.00  0.00    +0.000 N 
ATOM     30  O   UNL     1      -2.105  11.811  21.667  0.00  0.00    +0.000 OA
ATOM     31  O   UNL     1      -1.673  13.718  20.649  0.00  0.00    +0.000 OA
ENDBRANCH  28  29
BRANCH  25  32
ATOM     32  O   UNL     1      -4.226  10.671  15.857  0.00  0.00    +0.000 OA
ATOM     33  C   UNL     1      -3.288  10.404  14.813  0.00  0.00    +0.000 C 
ENDBRANCH  25  32
BRANCH  26  34
ATOM     34  O   UNL     1      -5.822  12.025  17.538  0.00  0.00    +0.000 OA
ATOM     35  C   UNL     1      -6.844  11.301  18.220  0.00  0.00    +0.000 C 
ENDBRANCH  26  34
ENDBRANCH  21  23
ENDBRANCH  20  21
ENDBRANCH  19  20
ENDBRANCH   2  19
TORSDOF 14
ENDMDL
MODEL 7
REMARK VINA RESULT:      -6.7      1.396      2.459
REMARK  Name = 
REMARK  18 active torsions:
REMARK  status: ('A' for Active; 'I' for Inactive)
REMARK    1  A    between atoms: C_1  and  C_2
REMARK    2  A    between atoms: C_2  and  O_3
REMARK    3  A    between atoms: O_3  and  C_4
REMARK    4  A    between atoms: C_7  and  C_8
REMARK    5  A    between atoms: C_8  and  C_9
REMARK    6  A    between atoms: C_9  and  N_10
REMARK    7  A    between atoms: C_11  and  C_13
REMARK    8  A    between atoms: C_13  and  O_14
REMARK    9  A    between atoms: O_14  and  C_15
REMARK   10  A    between atoms: C_15  and  C_17
REMARK   11  A    between atoms: C_19  and  O_20
REMARK   12  A    between atoms: O_20  and  C_21
REMARK   13  A    between atoms: C_22  and  O_23
REMARK   14  A    between atoms: O_23  and  C_24
REMARK   15  A    between atoms: C_26  and  N_27
REMARK   16  A    between atoms: C_31  and  O_32
REMARK   17  A    between atoms: O_32  and  C_33
REMARK   18  A    between atoms: C_33  and  C_34
REMARK                            x       y       z     vdW  Elec       q    Type
REMARK                         _______ _______ _______ _____ _____    ______ ____
ROOT
ATOM      1  N   UNL     1       1.630   8.439  19.673  0.00  0.00    +0.000 N 
ATOM      2  C   UNL     1       2.043   7.249  19.099  0.00  0.00    +0.000 C 
ATOM      3  O   UNL     1       2.408   7.170  17.927  0.00  0.00    +0.000 OA
ATOM      4  H   UNL     1       1.281   8.453  20.623  0.00  0.00    +0.000 HD
ENDROOT
BRANCH   1   5
ATOM      5  C   UNL     1       1.512   9.619  18.829  0.00  0.00    +0.000 C 
BRANCH   5   6
ATOM      6  C   UNL     1       1.017  10.875  19.553  0.00  0.00    +0.000 C 
BRANCH   6  10
ATOM      7  C   UNL     1      -3.214  11.565  18.771  0.00  0.00    +0.000 A 
ATOM      8  C   UNL     1      -2.446  10.692  17.981  0.00  0.00    +0.000 A 
ATOM      9  C   UNL     1      -1.089  10.472  18.230  0.00  0.00    +0.000 A 
ATOM     10  C   UNL     1      -0.442  11.147  19.262  0.00  0.00    +0.000 A 
ATOM     11  C   UNL     1      -1.187  12.060  20.022  0.00  0.00    +0.000 A 
ATOM     12  C   UNL     1      -2.557  12.304  19.773  0.00  0.00    +0.000 A 
BRANCH   7  13
ATOM     13  O   UNL     1      -4.574  11.703  18.571  0.00  0.00    +0.000 OA
BRANCH  13  15
ATOM     14  C   UNL     1      -6.052  12.764  16.935  0.00  0.00    +0.000 C 
ATOM     15  C   UNL     1      -4.978  11.718  17.191  0.00  0.00    +0.000 C 
ENDBRANCH  13  15
ENDBRANCH   7  13
BRANCH  12  16
ATOM     16  O   UNL     1      -3.078  13.256  20.617  0.00  0.00    +0.000 OA
BRANCH  16  17
ATOM     17  C   UNL     1      -3.917  12.802  21.676  0.00  0.00    +0.000 C 
ATOM     18  C   UNL     1      -3.144  12.824  22.991  0.00  0.00    +0.000 C 
ENDBRANCH  16  17
ENDBRANCH  12  16
ENDBRANCH   6  10
ENDBRANCH   5   6
ENDBRANCH   1   5
BRANCH   2  19
ATOM     19  C   UNL     1       2.046   6.033  20.025  0.00  0.00    +0.000 C 
BRANCH  19  20
ATOM     20  O   UNL     1       3.377   5.580  20.287  0.00  0.00    +0.000 OA
BRANCH  20  21
ATOM     21  C   UNL     1       3.645   4.327  19.843  0.00  0.00    +0.000 C 
ATOM     22  O   UNL     1       3.376   3.289  20.421  0.00  0.00    +0.000 OA
BRANCH  21  23
ATOM     23  C   UNL     1       4.377   4.397  18.565  0.00  0.00    +0.000 A 
ATOM     24  C   UNL     1       5.638   5.006  18.527  0.00  0.00    +0.000 A 
ATOM     25  C   UNL     1       6.403   5.039  17.355  0.00  0.00    +0.000 A 
ATOM     26  C   UNL     1       5.898   4.466  16.166  0.00  0.00    +0.000 A 
ATOM     27  C   UNL     1       4.642   3.848  16.192  0.00  0.00    +0.000 A 
ATOM     28  C   UNL     1       3.903   3.821  17.384  0.00  0.00    +0.000 A 
BRANCH  28  29
ATOM     29  N   UNL     1       2.587   3.223  17.341  0.00  0.00    +0.000 N 
ATOM     30  O   UNL     1       1.637   3.970  17.088  0.00  0.00    +0.000 OA
ATOM     31  O   UNL     1       2.535   1.991  17.464  0.00  0.00    +0.000 OA
ENDBRANCH  28  29
BRANCH  25  32
ATOM     32  O   UNL     1       7.641   5.635  17.312  0.00  0.00    +0.000 OA
ATOM     33  C   UNL     1       7.645   7.059  17.433  0.00  0.00    +0.000 C 
ENDBRANCH  25  32
BRANCH  26  34
ATOM     34  O   UNL     1       6.692   4.547  15.049  0.00  0.00    +0.000 OA
ATOM     35  C   UNL     1       6.237   3.910  13.857  0.00  0.00    +0.000 C 
ENDBRANCH  26  34
ENDBRANCH  21  23
ENDBRANCH  20  21
ENDBRANCH  19  20
ENDBRANCH   2  19
TORSDOF 14
ENDMDL
MODEL 8
REMARK VINA RESULT:      -6.7      1.928      3.430
REMARK  Name = 
REMARK  18 active torsions:
REMARK  status: ('A' for Active; 'I' for Inactive)
REMARK    1  A    between atoms: C_1  and  C_2
REMARK    2  A    between atoms: C_2  and  O_3
REMARK    3  A    between atoms: O_3  and  C_4
REMARK    4  A    between atoms: C_7  and  C_8
REMARK    5  A    between atoms: C_8  and  C_9
REMARK    6  A    between atoms: C_9  and  N_10
REMARK    7  A    between atoms: C_11  and  C_13
REMARK    8  A    between atoms: C_13  and  O_14
REMARK    9  A    between atoms: O_14  and  C_15
REMARK   10  A    between atoms: C_15  and  C_17
REMARK   11  A    between atoms: C_19  and  O_20
REMARK   12  A    between atoms: O_20  and  C_21
REMARK   13  A    between atoms: C_22  and  O_23
REMARK   14  A    between atoms: O_23  and  C_24
REMARK   15  A    between atoms: C_26  and  N_27
REMARK   16  A    between atoms: C_31  and  O_32
REMARK   17  A    between atoms: O_32  and  C_33
REMARK   18  A    between atoms: C_33  and  C_34
REMARK                            x       y       z     vdW  Elec       q    Type
REMARK                         _______ _______ _______ _____ _____    ______ ____
ROOT
ATOM      1  N   UNL     1       2.164   6.367  18.076  0.00  0.00    +0.000 N 
ATOM      2  C   UNL     1       1.742   5.466  19.038  0.00  0.00    +0.000 C 
ATOM      3  O   UNL     1       1.797   5.709  20.243  0.00  0.00    +0.000 OA
ATOM      4  H   UNL     1       2.158   6.110  17.097  0.00  0.00    +0.000 HD
ENDROOT
BRANCH   1   5
ATOM      5  C   UNL     1       2.805   7.602  18.507  0.00  0.00    +0.000 C 
BRANCH   5   6
ATOM      6  C   UNL     1       2.463   8.829  17.657  0.00  0.00    +0.000 C 
BRANCH   6  10
ATOM      7  C   UNL     1       0.191  11.822  19.863  0.00  0.00    +0.000 A 
ATOM      8  C   UNL     1       1.178  12.180  18.929  0.00  0.00    +0.000 A 
ATOM      9  C   UNL     1       1.908  11.220  18.223  0.00  0.00    +0.000 A 
ATOM     10  C   UNL     1       1.699   9.863  18.454  0.00  0.00    +0.000 A 
ATOM     11  C   UNL     1       0.753   9.496  19.422  0.00  0.00    +0.000 A 
ATOM     12  C   UNL     1       0.018  10.456  20.155  0.00  0.00    +0.000 A 
BRANCH   7  13
ATOM     13  O   UNL     1      -0.586  12.779  20.486  0.00  0.00    +0.000 OA
BRANCH  13  15
ATOM     14  C   UNL     1      -1.147  13.132  22.841  0.00  0.00    +0.000 C 
ATOM     15  C   UNL     1      -0.084  13.224  21.758  0.00  0.00    +0.000 C 
ENDBRANCH  13  15
ENDBRANCH   7  13
BRANCH  12  16
ATOM     16  O   UNL     1      -0.829   9.875  21.070  0.00  0.00    +0.000 OA
BRANCH  16  17
ATOM     17  C   UNL     1      -0.275   8.888  21.937  0.00  0.00    +0.000 C 
ATOM     18  C   UNL     1       0.170   9.542  23.241  0.00  0.00    +0.000 C 
ENDBRANCH  16  17
ENDBRANCH  12  16
ENDBRANCH   6  10
ENDBRANCH   5   6
ENDBRANCH   1   5
BRANCH   2  19
ATOM     19  C   UNL     1       1.170   4.152  18.508  0.00  0.00    +0.000 C 
BRANCH  19  20
ATOM     20  O   UNL     1       1.855   3.723  17.327  0.00  0.00    +0.000 OA
BRANCH  20  21
ATOM     21  C   UNL     1       2.862   2.842  17.547  0.00  0.00    +0.000 C 
ATOM     22  O   UNL     1       2.738   1.647  17.747  0.00  0.00    +0.000 OA
BRANCH  21  23
ATOM     23  C   UNL     1       4.152   3.557  17.573  0.00  0.00    +0.000 A 
ATOM     24  C   UNL     1       4.583   4.239  16.429  0.00  0.00    +0.000 A 
ATOM     25  C   UNL     1       5.765   4.990  16.422  0.00  0.00    +0.000 A 
ATOM     26  C   UNL     1       6.567   5.054  17.584  0.00  0.00    +0.000 A 
ATOM     27  C   UNL     1       6.143   4.383  18.737  0.00  0.00    +0.000 A 
ATOM     28  C   UNL     1       4.949   3.648  18.717  0.00  0.00    +0.000 A 
BRANCH  28  29
ATOM     29  N   UNL     1       4.589   2.924  19.916  0.00  0.00    +0.000 N 
ATOM     30  O   UNL     1       3.717   3.422  20.634  0.00  0.00    +0.000 OA
ATOM     31  O   UNL     1       5.117   1.814  20.072  0.00  0.00    +0.000 OA
ENDBRANCH  28  29
BRANCH  25  32
ATOM     32  O   UNL     1       6.193   5.661  15.301  0.00  0.00    +0.000 OA
ATOM     33  C   UNL     1       6.740   4.845  14.263  0.00  0.00    +0.000 C 
ENDBRANCH  25  32
BRANCH  26  34
ATOM     34  O   UNL     1       7.720   5.794  17.504  0.00  0.00    +0.000 OA
ATOM     35  C   UNL     1       7.916   6.832  18.462  0.00  0.00    +0.000 C 
ENDBRANCH  26  34
ENDBRANCH  21  23
ENDBRANCH  20  21
ENDBRANCH  19  20
ENDBRANCH   2  19
TORSDOF 14
ENDMDL
MODEL 9
REMARK VINA RESULT:      -6.6      2.457      9.674
REMARK  Name = 
REMARK  18 active torsions:
REMARK  status: ('A' for Active; 'I' for Inactive)
REMARK    1  A    between atoms: C_1  and  C_2
REMARK    2  A    between atoms: C_2  and  O_3
REMARK    3  A    between atoms: O_3  and  C_4
REMARK    4  A    between atoms: C_7  and  C_8
REMARK    5  A    between atoms: C_8  and  C_9
REMARK    6  A    between atoms: C_9  and  N_10
REMARK    7  A    between atoms: C_11  and  C_13
REMARK    8  A    between atoms: C_13  and  O_14
REMARK    9  A    between atoms: O_14  and  C_15
REMARK   10  A    between atoms: C_15  and  C_17
REMARK   11  A    between atoms: C_19  and  O_20
REMARK   12  A    between atoms: O_20  and  C_21
REMARK   13  A    between atoms: C_22  and  O_23
REMARK   14  A    between atoms: O_23  and  C_24
REMARK   15  A    between atoms: C_26  and  N_27
REMARK   16  A    between atoms: C_31  and  O_32
REMARK   17  A    between atoms: O_32  and  C_33
REMARK   18  A    between atoms: C_33  and  C_34
REMARK                            x       y       z     vdW  Elec       q    Type
REMARK                         _______ _______ _______ _____ _____    ______ ____
ROOT
ATOM      1  N   UNL     1       0.703  10.097  21.568  0.00  0.00    +0.000 N 
ATOM      2  C   UNL     1      -0.021  10.459  22.691  0.00  0.00    +0.000 C 
ATOM      3  O   UNL     1       0.108   9.891  23.774  0.00  0.00    +0.000 OA
ATOM      4  H   UNL     1       0.528  10.549  20.679  0.00  0.00    +0.000 HD
ENDROOT
BRANCH   1   5
ATOM      5  C   UNL     1       1.564   8.925  21.639  0.00  0.00    +0.000 C 
BRANCH   5   6
ATOM      6  C   UNL     1       0.918   7.627  21.144  0.00  0.00    +0.000 C 
BRANCH   6  10
ATOM      7  C   UNL     1       3.396   5.771  18.077  0.00  0.00    +0.000 A 
ATOM      8  C   UNL     1       3.098   7.144  18.058  0.00  0.00    +0.000 A 
ATOM      9  C   UNL     1       2.302   7.739  19.041  0.00  0.00    +0.000 A 
ATOM     10  C   UNL     1       1.746   6.971  20.061  0.00  0.00    +0.000 A 
ATOM     11  C   UNL     1       1.994   5.591  20.057  0.00  0.00    +0.000 A 
ATOM     12  C   UNL     1       2.785   4.972  19.062  0.00  0.00    +0.000 A 
BRANCH   7  13
ATOM     13  O   UNL     1       4.258   5.213  17.153  0.00  0.00    +0.000 OA
BRANCH  13  15
ATOM     14  C   UNL     1       5.577   5.544  15.119  0.00  0.00    +0.000 C 
ATOM     15  C   UNL     1       5.016   6.166  16.387  0.00  0.00    +0.000 C 
ENDBRANCH  13  15
ENDBRANCH   7  13
BRANCH  12  16
ATOM     16  O   UNL     1       2.870   3.611  19.237  0.00  0.00    +0.000 OA
BRANCH  16  17
ATOM     17  C   UNL     1       2.175   2.788  18.305  0.00  0.00    +0.000 C 
ATOM     18  C   UNL     1       0.795   2.440  18.855  0.00  0.00    +0.000 C 
ENDBRANCH  16  17
ENDBRANCH  12  16
ENDBRANCH   6  10
ENDBRANCH   5   6
ENDBRANCH   1   5
BRANCH   2  19
ATOM     19  C   UNL     1      -0.976  11.638  22.510  0.00  0.00    +0.000 C 
BRANCH  19  20
ATOM     20  O   UNL     1      -1.913  11.395  21.456  0.00  0.00    +0.000 OA
BRANCH  20  21
ATOM     21  C   UNL     1      -2.215  12.484  20.706  0.00  0.00    +0.000 C 
ATOM     22  O   UNL     1      -2.275  13.634  21.104  0.00  0.00    +0.000 OA
BRANCH  21  23
ATOM     23  C   UNL     1      -2.528  12.067  19.326  0.00  0.00    +0.000 A 
ATOM     24  C   UNL     1      -3.859  11.828  18.965  0.00  0.00    +0.000 A 
ATOM     25  C   UNL     1      -4.216  11.497  17.652  0.00  0.00    +0.000 A 
ATOM     26  C   UNL     1      -3.218  11.378  16.658  0.00  0.00    +0.000 A 
ATOM     27  C   UNL     1      -1.885  11.621  17.004  0.00  0.00    +0.000 A 
ATOM     28  C   UNL     1      -1.558  11.961  18.325  0.00  0.00    +0.000 A 
BRANCH  28  29
ATOM     29  N   UNL     1      -0.159  12.144  18.643  0.00  0.00    +0.000 N 
ATOM     30  O   UNL     1       0.491  11.133  18.923  0.00  0.00    +0.000 OA
ATOM     31  O   UNL     1       0.294  13.290  18.510  0.00  0.00    +0.000 OA
ENDBRANCH  28  29
BRANCH  25  32
ATOM     32  O   UNL     1      -5.522  11.261  17.291  0.00  0.00    +0.000 OA
ATOM     33  C   UNL     1      -6.423  11.000  18.369  0.00  0.00    +0.000 C 
ENDBRANCH  25  32
BRANCH  26  34
ATOM     34  O   UNL     1      -3.635  11.035  15.395  0.00  0.00    +0.000 OA
ATOM     35  C   UNL     1      -3.219   9.775  14.873  0.00  0.00    +0.000 C 
ENDBRANCH  26  34
ENDBRANCH  21  23
ENDBRANCH  20  21
ENDBRANCH  19  20
ENDBRANCH   2  19
TORSDOF 14
ENDMDL
