MODEL 1
REMARK VINA RESULT:      -7.4      0.000      0.000
REMARK  Name = 
REMARK  7 active torsions:
REMARK  status: ('A' for Active; 'I' for Inactive)
REMARK    1  A    between atoms: C_2  and  C_3
REMARK    2  A    between atoms: C_4  and  N_5
REMARK    3  A    between atoms: C_6  and  C_8
REMARK    4  A    between atoms: C_10  and  O_11
REMARK    5  A    between atoms: O_11  and  C_12
REMARK    6  A    between atoms: C_12  and  C_13
REMARK    7  A    between atoms: C_13  and  N_14
REMARK                            x       y       z     vdW  Elec       q    Type
REMARK                         _______ _______ _______ _____ _____    ______ ____
ROOT
ATOM      1  C   UNL     1       2.780   4.689  20.190  0.00  0.00    +0.000 A 
ATOM      2  C   UNL     1       3.965   4.932  19.467  0.00  0.00    +0.000 A 
ATOM      3  C   UNL     1       4.908   3.922  19.257  0.00  0.00    +0.000 A 
ATOM      4  C   UNL     1       4.705   2.667  19.828  0.00  0.00    +0.000 A 
ATOM      5  C   UNL     1       3.538   2.417  20.559  0.00  0.00    +0.000 A 
ATOM      6  C   UNL     1       2.573   3.416  20.735  0.00  0.00    +0.000 A 
ATOM      7 CL   UNL     1       1.184   2.986  21.668  0.00  0.00    +0.000 Cl
ENDROOT
BRANCH   1   9
ATOM      8  N   UNL     1       2.390   7.095  20.420  0.00  0.00    +0.000 N 
ATOM      9  C   UNL     1       1.828   5.834  20.331  0.00  0.00    +0.000 C 
ATOM     10  O   UNL     1       0.634   5.595  20.476  0.00  0.00    +0.000 OA
ATOM     11  H   UNL     1       3.374   7.173  20.645  0.00  0.00    +0.000 HD
BRANCH   8  13
ATOM     12  C   UNL     1       1.138   9.229  19.821  0.00  0.00    +0.000 A 
ATOM     13  C   UNL     1       1.620   8.219  20.632  0.00  0.00    +0.000 A 
ATOM     14  S   UNL     1       1.185   8.428  22.265  0.00  0.00    +0.000 S 
ATOM     15  C   UNL     1       0.202   9.767  21.894  0.00  0.00    +0.000 A 
ATOM     16  C   UNL     1       0.315  10.147  20.568  0.00  0.00    +0.000 A 
ATOM     17  C   UNL     1      -0.377  11.375  20.040  0.00  0.00    +0.000 C 
ATOM     18  C   UNL     1      -0.892  12.282  21.170  0.00  0.00    +0.000 C 
ATOM     19  C   UNL     1      -1.578  11.475  22.280  0.00  0.00    +0.000 C 
ATOM     20  C   UNL     1      -0.610  10.476  22.936  0.00  0.00    +0.000 C 
BRANCH  12  22
ATOM     21  N   UNL     1       1.713   9.614  17.318  0.00  0.00    +0.000 NA
ATOM     22  C   UNL     1       1.508   9.425  18.446  0.00  0.00    +0.000 C 
ENDBRANCH  12  22
ENDBRANCH   8  13
ENDBRANCH   1   9
BRANCH   3  23
ATOM     23  O   UNL     1       5.985   4.269  18.486  0.00  0.00    +0.000 OA
BRANCH  23  24
ATOM     24  C   UNL     1       6.631   5.507  18.821  0.00  0.00    +0.000 C 
BRANCH  24  25
ATOM     25  C   UNL     1       6.528   6.474  17.635  0.00  0.00    +0.000 C 
BRANCH  25  26
ATOM     26  N   UNL     1       7.311   5.998  16.503  0.00  0.00    +0.000 N 
ATOM     27  C   UNL     1       6.798   5.300  15.469  0.00  0.00    +0.000 C 
ATOM     28  N   UNL     1       5.673   4.691  15.391  0.00  0.00    +0.000 NA
ATOM     29  N   UNL     1       7.640   5.257  14.422  0.00  0.00    +0.000 N 
ATOM     30  H   UNL     1       7.995   6.688  16.205  0.00  0.00    +0.000 HD
ATOM     31  H   UNL     1       5.153   4.799  16.258  0.00  0.00    +0.000 HD
ATOM     32  H   UNL     1       8.604   5.106  14.684  0.00  0.00    +0.000 HD
ATOM     33  H   UNL     1       7.324   4.548  13.765  0.00  0.00    +0.000 HD
ENDBRANCH  25  26
ENDBRANCH  24  25
ENDBRANCH  23  24
ENDBRANCH   3  23
TORSDOF 7
ENDMDL
MODEL 2
REMARK VINA RESULT:      -7.4      1.334      1.814
REMARK  Name = 
REMARK  7 active torsions:
REMARK  status: ('A' for Active; 'I' for Inactive)
REMARK    1  A    between atoms: C_2  and  C_3
REMARK    2  A    between atoms: C_4  and  N_5
REMARK    3  A    between atoms: C_6  and  C_8
REMARK    4  A    between atoms: C_10  and  O_11
REMARK    5  A    between atoms: O_11  and  C_12
REMARK    6  A    between atoms: C_12  and  C_13
REMARK    7  A    between atoms: C_13  and  N_14
REMARK                            x       y       z     vdW  Elec       q    Type
REMARK                         _______ _______ _______ _____ _____    ______ ____
ROOT
ATOM      1  C   UNL     1       2.670   4.658  19.720  0.00  0.00    +0.000 A 
ATOM      2  C   UNL     1       3.369   4.764  18.502  0.00  0.00    +0.000 A 
ATOM      3  C   UNL     1       4.221   3.746  18.060  0.00  0.00    +0.000 A 
ATOM      4  C   UNL     1       4.432   2.633  18.872  0.00  0.00    +0.000 A 
ATOM      5  C   UNL     1       3.753   2.521  20.091  0.00  0.00    +0.000 A 
ATOM      6  C   UNL     1       2.869   3.521  20.514  0.00  0.00    +0.000 A 
ATOM      7 CL   UNL     1       2.103   3.272  22.042  0.00  0.00    +0.000 Cl
ENDROOT
BRANCH   1   9
ATOM      8  N   UNL     1       2.325   7.058  20.053  0.00  0.00    +0.000 N 
ATOM      9  C   UNL     1       1.766   5.794  20.081  0.00  0.00    +0.000 C 
ATOM     10  O   UNL     1       0.636   5.542  20.488  0.00  0.00    +0.000 OA
ATOM     11  H   UNL     1       3.333   7.144  20.052  0.00  0.00    +0.000 HD
BRANCH   8  13
ATOM     12  C   UNL     1       1.166   9.310  19.795  0.00  0.00    +0.000 A 
ATOM     13  C   UNL     1       1.614   8.174  20.442  0.00  0.00    +0.000 A 
ATOM     14  S   UNL     1       1.221   8.167  22.099  0.00  0.00    +0.000 S 
ATOM     15  C   UNL     1       0.296   9.588  21.947  0.00  0.00    +0.000 A 
ATOM     16  C   UNL     1       0.402  10.148  20.685  0.00  0.00    +0.000 A 
ATOM     17  C   UNL     1      -0.240  11.469  20.355  0.00  0.00    +0.000 C 
ATOM     18  C   UNL     1      -0.689  12.227  21.615  0.00  0.00    +0.000 C 
ATOM     19  C   UNL     1      -1.392  11.301  22.617  0.00  0.00    +0.000 C 
ATOM     20  C   UNL     1      -0.461  10.177  23.099  0.00  0.00    +0.000 C 
BRANCH  12  22
ATOM     21  N   UNL     1       1.879   9.918  17.374  0.00  0.00    +0.000 NA
ATOM     22  C   UNL     1       1.519   9.683  18.452  0.00  0.00    +0.000 C 
ENDBRANCH  12  22
ENDBRANCH   8  13
ENDBRANCH   1   9
BRANCH   3  23
ATOM     23  O   UNL     1       4.792   3.942  16.832  0.00  0.00    +0.000 OA
BRANCH  23  24
ATOM     24  C   UNL     1       5.700   5.049  16.726  0.00  0.00    +0.000 C 
BRANCH  24  25
ATOM     25  C   UNL     1       7.144   4.533  16.774  0.00  0.00    +0.000 C 
BRANCH  25  26
ATOM     26  N   UNL     1       7.655   4.537  18.137  0.00  0.00    +0.000 N 
ATOM     27  C   UNL     1       7.877   5.656  18.858  0.00  0.00    +0.000 C 
ATOM     28  N   UNL     1       7.970   6.868  18.452  0.00  0.00    +0.000 NA
ATOM     29  N   UNL     1       8.040   5.390  20.165  0.00  0.00    +0.000 N 
ATOM     30  H   UNL     1       7.244   3.792  18.694  0.00  0.00    +0.000 HD
ATOM     31  H   UNL     1       7.839   6.912  17.444  0.00  0.00    +0.000 HD
ATOM     32  H   UNL     1       8.604   4.571  20.345  0.00  0.00    +0.000 HD
ATOM     33  H   UNL     1       8.424   6.208  20.631  0.00  0.00    +0.000 HD
ENDBRANCH  25  26
ENDBRANCH  24  25
ENDBRANCH  23  24
ENDBRANCH   3  23
TORSDOF 7
ENDMDL
MODEL 3
REMARK VINA RESULT:      -7.3      2.210      3.011
REMARK  Name = 
REMARK  7 active torsions:
REMARK  status: ('A' for Active; 'I' for Inactive)
REMARK    1  A    between atoms: C_2  and  C_3
REMARK    2  A    between atoms: C_4  and  N_5
REMARK    3  A    between atoms: C_6  and  C_8
REMARK    4  A    between atoms: C_10  and  O_11
REMARK    5  A    between atoms: O_11  and  C_12
REMARK    6  A    between atoms: C_12  and  C_13
REMARK    7  A    between atoms: C_13  and  N_14
REMARK                            x       y       z     vdW  Elec       q    Type
REMARK                         _______ _______ _______ _____ _____    ______ ____
ROOT
ATOM      1  C   UNL     1       2.645   7.395  18.539  0.00  0.00    +0.000 A 
ATOM      2  C   UNL     1       3.513   7.330  17.431  0.00  0.00    +0.000 A 
ATOM      3  C   UNL     1       4.187   6.149  17.103  0.00  0.00    +0.000 A 
ATOM      4  C   UNL     1       4.050   5.034  17.927  0.00  0.00    +0.000 A 
ATOM      5  C   UNL     1       3.201   5.089  19.038  0.00  0.00    +0.000 A 
ATOM      6  C   UNL     1       2.494   6.258  19.343  0.00  0.00    +0.000 A 
ATOM      7 CL   UNL     1       1.490   6.204  20.748  0.00  0.00    +0.000 Cl
ENDROOT
BRANCH   1   9
ATOM      8  N   UNL     1       1.005   8.718  19.784  0.00  0.00    +0.000 N 
ATOM      9  C   UNL     1       1.956   8.700  18.780  0.00  0.00    +0.000 C 
ATOM     10  O   UNL     1       2.177   9.635  18.017  0.00  0.00    +0.000 OA
ATOM     11  H   UNL     1       0.637   7.837  20.120  0.00  0.00    +0.000 HD
BRANCH   8  13
ATOM     12  C   UNL     1      -0.798  10.474  19.404  0.00  0.00    +0.000 A 
ATOM     13  C   UNL     1       0.248   9.841  20.047  0.00  0.00    +0.000 A 
ATOM     14  S   UNL     1       0.726  10.646  21.470  0.00  0.00    +0.000 S 
ATOM     15  C   UNL     1      -0.564  11.750  21.349  0.00  0.00    +0.000 A 
ATOM     16  C   UNL     1      -1.266  11.606  20.165  0.00  0.00    +0.000 A 
ATOM     17  C   UNL     1      -2.380  12.548  19.791  0.00  0.00    +0.000 C 
ATOM     18  C   UNL     1      -2.388  13.813  20.667  0.00  0.00    +0.000 C 
ATOM     19  C   UNL     1      -2.177  13.479  22.150  0.00  0.00    +0.000 C 
ATOM     20  C   UNL     1      -0.820  12.797  22.390  0.00  0.00    +0.000 C 
BRANCH  12  22
ATOM     21  N   UNL     1      -1.755   9.857  17.071  0.00  0.00    +0.000 NA
ATOM     22  C   UNL     1      -1.277  10.142  18.091  0.00  0.00    +0.000 C 
ENDBRANCH  12  22
ENDBRANCH   8  13
ENDBRANCH   1   9
BRANCH   3  23
ATOM     23  O   UNL     1       4.950   6.199  15.968  0.00  0.00    +0.000 OA
BRANCH  23  24
ATOM     24  C   UNL     1       5.558   4.964  15.559  0.00  0.00    +0.000 C 
BRANCH  24  25
ATOM     25  C   UNL     1       7.085   5.095  15.639  0.00  0.00    +0.000 C 
BRANCH  25  26
ATOM     26  N   UNL     1       7.564   4.813  16.986  0.00  0.00    +0.000 N 
ATOM     27  C   UNL     1       7.624   5.730  17.973  0.00  0.00    +0.000 C 
ATOM     28  N   UNL     1       7.566   7.007  17.889  0.00  0.00    +0.000 NA
ATOM     29  N   UNL     1       7.793   5.161  19.180  0.00  0.00    +0.000 N 
ATOM     30  H   UNL     1       7.241   3.907  17.315  0.00  0.00    +0.000 HD
ATOM     31  H   UNL     1       7.452   7.291  16.919  0.00  0.00    +0.000 HD
ATOM     32  H   UNL     1       8.454   4.398  19.178  0.00  0.00    +0.000 HD
ATOM     33  H   UNL     1       8.057   5.874  19.855  0.00  0.00    +0.000 HD
ENDBRANCH  25  26
ENDBRANCH  24  25
ENDBRANCH  23  24
ENDBRANCH   3  23
TORSDOF 7
ENDMDL
MODEL 4
REMARK VINA RESULT:      -7.3      1.003      1.085
REMARK  Name = 
REMARK  7 active torsions:
REMARK  status: ('A' for Active; 'I' for Inactive)
REMARK    1  A    between atoms: C_2  and  C_3
REMARK    2  A    between atoms: C_4  and  N_5
REMARK    3  A    between atoms: C_6  and  C_8
REMARK    4  A    between atoms: C_10  and  O_11
REMARK    5  A    between atoms: O_11  and  C_12
REMARK    6  A    between atoms: C_12  and  C_13
REMARK    7  A    between atoms: C_13  and  N_14
REMARK                            x       y       z     vdW  Elec       q    Type
REMARK                         _______ _______ _______ _____ _____    ______ ____
ROOT
ATOM      1  C   UNL     1       2.976   5.255  19.566  0.00  0.00    +0.000 A 
ATOM      2  C   UNL     1       4.357   5.326  19.300  0.00  0.00    +0.000 A 
ATOM      3  C   UNL     1       5.165   4.185  19.339  0.00  0.00    +0.000 A 
ATOM      4  C   UNL     1       4.606   2.965  19.713  0.00  0.00    +0.000 A 
ATOM      5  C   UNL     1       3.237   2.883  19.992  0.00  0.00    +0.000 A 
ATOM      6  C   UNL     1       2.419   4.018  19.913  0.00  0.00    +0.000 A 
ATOM      7 CL   UNL     1       0.750   3.789  20.295  0.00  0.00    +0.000 Cl
ENDROOT
BRANCH   1   9
ATOM      8  N   UNL     1       2.230   7.355  20.581  0.00  0.00    +0.000 N 
ATOM      9  C   UNL     1       2.203   6.532  19.470  0.00  0.00    +0.000 C 
ATOM     10  O   UNL     1       1.505   6.727  18.479  0.00  0.00    +0.000 OA
ATOM     11  H   UNL     1       2.531   6.965  21.466  0.00  0.00    +0.000 HD
BRANCH   8  13
ATOM     12  C   UNL     1       1.178   9.512  19.733  0.00  0.00    +0.000 A 
ATOM     13  C   UNL     1       1.494   8.519  20.641  0.00  0.00    +0.000 A 
ATOM     14  S   UNL     1       0.849   8.819  22.189  0.00  0.00    +0.000 S 
ATOM     15  C   UNL     1      -0.007  10.181  21.634  0.00  0.00    +0.000 A 
ATOM     16  C   UNL     1       0.306  10.497  20.323  0.00  0.00    +0.000 A 
ATOM     17  C   UNL     1      -0.246  11.729  19.657  0.00  0.00    +0.000 C 
ATOM     18  C   UNL     1      -0.867  12.706  20.670  0.00  0.00    +0.000 C 
ATOM     19  C   UNL     1      -1.738  11.979  21.703  0.00  0.00    +0.000 C 
ATOM     20  C   UNL     1      -0.919  10.969  22.524  0.00  0.00    +0.000 C 
BRANCH  12  22
ATOM     21  N   UNL     1       2.288   9.748  17.398  0.00  0.00    +0.000 NA
ATOM     22  C   UNL     1       1.743   9.631  18.417  0.00  0.00    +0.000 C 
ENDBRANCH  12  22
ENDBRANCH   8  13
ENDBRANCH   1   9
BRANCH   3  23
ATOM     23  O   UNL     1       6.477   4.377  19.000  0.00  0.00    +0.000 OA
BRANCH  23  24
ATOM     24  C   UNL     1       6.722   5.242  17.880  0.00  0.00    +0.000 C 
BRANCH  24  25
ATOM     25  C   UNL     1       6.535   4.456  16.576  0.00  0.00    +0.000 C 
BRANCH  25  26
ATOM     26  N   UNL     1       7.388   4.984  15.521  0.00  0.00    +0.000 N 
ATOM     27  C   UNL     1       7.219   4.719  14.209  0.00  0.00    +0.000 C 
ATOM     28  N   UNL     1       6.524   3.794  13.659  0.00  0.00    +0.000 NA
ATOM     29  N   UNL     1       7.920   5.561  13.430  0.00  0.00    +0.000 N 
ATOM     30  H   UNL     1       7.638   5.954  15.692  0.00  0.00    +0.000 HD
ATOM     31  H   UNL     1       6.063   3.230  14.369  0.00  0.00    +0.000 HD
ATOM     32  H   UNL     1       8.850   5.752  13.775  0.00  0.00    +0.000 HD
ATOM     33  H   UNL     1       7.949   5.197  12.481  0.00  0.00    +0.000 HD
ENDBRANCH  25  26
ENDBRANCH  24  25
ENDBRANCH  23  24
ENDBRANCH   3  23
TORSDOF 7
ENDMDL
MODEL 5
REMARK VINA RESULT:      -7.1      1.795      2.155
REMARK  Name = 
REMARK  7 active torsions:
REMARK  status: ('A' for Active; 'I' for Inactive)
REMARK    1  A    between atoms: C_2  and  C_3
REMARK    2  A    between atoms: C_4  and  N_5
REMARK    3  A    between atoms: C_6  and  C_8
REMARK    4  A    between atoms: C_10  and  O_11
REMARK    5  A    between atoms: O_11  and  C_12
REMARK    6  A    between atoms: C_12  and  C_13
REMARK    7  A    between atoms: C_13  and  N_14
REMARK                            x       y       z     vdW  Elec       q    Type
REMARK                         _______ _______ _______ _____ _____    ______ ____
ROOT
ATOM      1  C   UNL     1       2.432   6.550  19.241  0.00  0.00    +0.000 A 
ATOM      2  C   UNL     1       3.392   6.999  18.313  0.00  0.00    +0.000 A 
ATOM      3  C   UNL     1       4.010   6.117  17.421  0.00  0.00    +0.000 A 
ATOM      4  C   UNL     1       3.720   4.756  17.495  0.00  0.00    +0.000 A 
ATOM      5  C   UNL     1       2.778   4.295  18.421  0.00  0.00    +0.000 A 
ATOM      6  C   UNL     1       2.127   5.183  19.287  0.00  0.00    +0.000 A 
ATOM      7 CL   UNL     1       0.996   4.489  20.392  0.00  0.00    +0.000 Cl
ENDROOT
BRANCH   1   9
ATOM      8  N   UNL     1       1.312   8.711  19.504  0.00  0.00    +0.000 N 
ATOM      9  C   UNL     1       1.815   7.584  20.128  0.00  0.00    +0.000 C 
ATOM     10  O   UNL     1       1.890   7.439  21.344  0.00  0.00    +0.000 OA
ATOM     11  H   UNL     1       1.602   8.910  18.554  0.00  0.00    +0.000 HD
BRANCH   8  13
ATOM     12  C   UNL     1       0.819  11.141  20.080  0.00  0.00    +0.000 A 
ATOM     13  C   UNL     1       0.792   9.767  20.222  0.00  0.00    +0.000 A 
ATOM     14  S   UNL     1      -0.054   9.270  21.614  0.00  0.00    +0.000 S 
ATOM     15  C   UNL     1      -0.548  10.863  21.955  0.00  0.00    +0.000 A 
ATOM     16  C   UNL     1       0.042  11.785  21.109  0.00  0.00    +0.000 A 
ATOM     17  C   UNL     1      -0.161  13.265  21.295  0.00  0.00    +0.000 C 
ATOM     18  C   UNL     1      -0.771  13.599  22.667  0.00  0.00    +0.000 C 
ATOM     19  C   UNL     1      -1.924  12.651  23.023  0.00  0.00    +0.000 C 
ATOM     20  C   UNL     1      -1.452  11.191  23.105  0.00  0.00    +0.000 C 
BRANCH  12  22
ATOM     21  N   UNL     1       2.311  12.473  18.424  0.00  0.00    +0.000 NA
ATOM     22  C   UNL     1       1.620  11.851  19.121  0.00  0.00    +0.000 C 
ENDBRANCH  12  22
ENDBRANCH   8  13
ENDBRANCH   1   9
BRANCH   3  23
ATOM     23  O   UNL     1       4.877   6.688  16.529  0.00  0.00    +0.000 OA
BRANCH  23  24
ATOM     24  C   UNL     1       6.177   7.024  17.036  0.00  0.00    +0.000 C 
BRANCH  24  25
ATOM     25  C   UNL     1       7.117   5.822  16.873  0.00  0.00    +0.000 C 
BRANCH  25  26
ATOM     26  N   UNL     1       7.236   5.438  15.474  0.00  0.00    +0.000 N 
ATOM     27  C   UNL     1       6.683   4.327  14.945  0.00  0.00    +0.000 C 
ATOM     28  N   UNL     1       6.223   3.294  15.548  0.00  0.00    +0.000 NA
ATOM     29  N   UNL     1       6.665   4.363  13.601  0.00  0.00    +0.000 N 
ATOM     30  H   UNL     1       7.157   6.243  14.857  0.00  0.00    +0.000 HD
ATOM     31  H   UNL     1       6.315   3.403  16.554  0.00  0.00    +0.000 HD
ATOM     32  H   UNL     1       7.514   4.728  13.195  0.00  0.00    +0.000 HD
ATOM     33  H   UNL     1       6.457   3.434  13.242  0.00  0.00    +0.000 HD
ENDBRANCH  25  26
ENDBRANCH  24  25
ENDBRANCH  23  24
ENDBRANCH   3  23
TORSDOF 7
ENDMDL
MODEL 6
REMARK VINA RESULT:      -7.1      2.276      3.294
REMARK  Name = 
REMARK  7 active torsions:
REMARK  status: ('A' for Active; 'I' for Inactive)
REMARK    1  A    between atoms: C_2  and  C_3
REMARK    2  A    between atoms: C_4  and  N_5
REMARK    3  A    between atoms: C_6  and  C_8
REMARK    4  A    between atoms: C_10  and  O_11
REMARK    5  A    between atoms: O_11  and  C_12
REMARK    6  A    between atoms: C_12  and  C_13
REMARK    7  A    between atoms: C_13  and  N_14
REMARK                            x       y       z     vdW  Elec       q    Type
REMARK                         _______ _______ _______ _____ _____    ______ ____
ROOT
ATOM      1  C   UNL     1       2.779   6.566  18.645  0.00  0.00    +0.000 A 
ATOM      2  C   UNL     1       3.607   6.255  17.548  0.00  0.00    +0.000 A 
ATOM      3  C   UNL     1       4.049   4.948  17.318  0.00  0.00    +0.000 A 
ATOM      4  C   UNL     1       3.719   3.945  18.228  0.00  0.00    +0.000 A 
ATOM      5  C   UNL     1       2.908   4.244  19.329  0.00  0.00    +0.000 A 
ATOM      6  C   UNL     1       2.431   5.544  19.537  0.00  0.00    +0.000 A 
ATOM      7 CL   UNL     1       1.451   5.786  20.939  0.00  0.00    +0.000 Cl
ENDROOT
BRANCH   1   9
ATOM      8  N   UNL     1       1.310   8.238  19.664  0.00  0.00    +0.000 N 
ATOM      9  C   UNL     1       2.343   7.990  18.779  0.00  0.00    +0.000 C 
ATOM     10  O   UNL     1       2.831   8.830  18.029  0.00  0.00    +0.000 OA
ATOM     11  H   UNL     1       0.738   7.462  19.971  0.00  0.00    +0.000 HD
BRANCH   8  13
ATOM     12  C   UNL     1       0.525  10.323  20.895  0.00  0.00    +0.000 A 
ATOM     13  C   UNL     1       0.770   9.498  19.814  0.00  0.00    +0.000 A 
ATOM     14  S   UNL     1       0.265  10.184  18.339  0.00  0.00    +0.000 S 
ATOM     15  C   UNL     1      -0.125  11.660  19.091  0.00  0.00    +0.000 A 
ATOM     16  C   UNL     1      -0.015  11.591  20.469  0.00  0.00    +0.000 A 
ATOM     17  C   UNL     1      -0.417  12.743  21.350  0.00  0.00    +0.000 C 
ATOM     18  C   UNL     1      -1.245  13.793  20.590  0.00  0.00    +0.000 C 
ATOM     19  C   UNL     1      -0.647  14.099  19.210  0.00  0.00    +0.000 C 
ATOM     20  C   UNL     1      -0.612  12.848  18.317  0.00  0.00    +0.000 C 
BRANCH  12  22
ATOM     21  N   UNL     1       0.682   9.570  23.375  0.00  0.00    +0.000 NA
ATOM     22  C   UNL     1       0.660   9.935  22.272  0.00  0.00    +0.000 C 
ENDBRANCH  12  22
ENDBRANCH   8  13
ENDBRANCH   1   9
BRANCH   3  23
ATOM     23  O   UNL     1       4.795   4.766  16.185  0.00  0.00    +0.000 OA
BRANCH  23  24
ATOM     24  C   UNL     1       5.885   3.837  16.286  0.00  0.00    +0.000 C 
BRANCH  24  25
ATOM     25  C   UNL     1       7.191   4.606  16.528  0.00  0.00    +0.000 C 
BRANCH  25  26
ATOM     26  N   UNL     1       7.584   4.541  17.929  0.00  0.00    +0.000 N 
ATOM     27  C   UNL     1       7.758   5.622  18.715  0.00  0.00    +0.000 C 
ATOM     28  N   UNL     1       7.902   6.849  18.374  0.00  0.00    +0.000 NA
ATOM     29  N   UNL     1       7.805   5.296  20.019  0.00  0.00    +0.000 N 
ATOM     30  H   UNL     1       7.115   3.779  18.414  0.00  0.00    +0.000 HD
ATOM     31  H   UNL     1       7.859   6.941  17.362  0.00  0.00    +0.000 HD
ATOM     32  H   UNL     1       8.340   4.461  20.208  0.00  0.00    +0.000 HD
ATOM     33  H   UNL     1       8.158   6.087  20.552  0.00  0.00    +0.000 HD
ENDBRANCH  25  26
ENDBRANCH  24  25
ENDBRANCH  23  24
ENDBRANCH   3  23
TORSDOF 7
ENDMDL
MODEL 7
REMARK VINA RESULT:      -7.0      2.170      2.950
REMARK  Name = 
REMARK  7 active torsions:
REMARK  status: ('A' for Active; 'I' for Inactive)
REMARK    1  A    between atoms: C_2  and  C_3
REMARK    2  A    between atoms: C_4  and  N_5
REMARK    3  A    between atoms: C_6  and  C_8
REMARK    4  A    between atoms: C_10  and  O_11
REMARK    5  A    between atoms: O_11  and  C_12
REMARK    6  A    between atoms: C_12  and  C_13
REMARK    7  A    between atoms: C_13  and  N_14
REMARK                            x       y       z     vdW  Elec       q    Type
REMARK                         _______ _______ _______ _____ _____    ______ ____
ROOT
ATOM      1  C   UNL     1       2.623   5.831  18.870  0.00  0.00    +0.000 A 
ATOM      2  C   UNL     1       3.646   5.920  17.906  0.00  0.00    +0.000 A 
ATOM      3  C   UNL     1       4.101   4.788  17.222  0.00  0.00    +0.000 A 
ATOM      4  C   UNL     1       3.579   3.538  17.548  0.00  0.00    +0.000 A 
ATOM      5  C   UNL     1       2.572   3.434  18.513  0.00  0.00    +0.000 A 
ATOM      6  C   UNL     1       2.086   4.573  19.169  0.00  0.00    +0.000 A 
ATOM      7 CL   UNL     1       0.852   4.311  20.348  0.00  0.00    +0.000 Cl
ENDROOT
BRANCH   1   9
ATOM      8  N   UNL     1       1.694   8.089  18.682  0.00  0.00    +0.000 N 
ATOM      9  C   UNL     1       2.195   7.109  19.520  0.00  0.00    +0.000 C 
ATOM     10  O   UNL     1       2.415   7.265  20.717  0.00  0.00    +0.000 OA
ATOM     11  H   UNL     1       1.873   8.016  17.689  0.00  0.00    +0.000 HD
BRANCH   8  13
ATOM     12  C   UNL     1       0.635   9.791  20.250  0.00  0.00    +0.000 A 
ATOM     13  C   UNL     1       1.341   9.336  19.154  0.00  0.00    +0.000 A 
ATOM     14  S   UNL     1       1.872  10.601  18.145  0.00  0.00    +0.000 S 
ATOM     15  C   UNL     1       1.324  11.783  19.240  0.00  0.00    +0.000 A 
ATOM     16  C   UNL     1       0.613  11.232  20.292  0.00  0.00    +0.000 A 
ATOM     17  C   UNL     1      -0.062  12.096  21.323  0.00  0.00    +0.000 C 
ATOM     18  C   UNL     1      -0.153  13.566  20.879  0.00  0.00    +0.000 C 
ATOM     19  C   UNL     1       1.163  14.056  20.260  0.00  0.00    +0.000 C 
ATOM     20  C   UNL     1       1.535  13.249  19.006  0.00  0.00    +0.000 C 
BRANCH  12  22
ATOM     21  N   UNL     1      -0.762   8.270  21.823  0.00  0.00    +0.000 NA
ATOM     22  C   UNL     1      -0.099   8.955  21.160  0.00  0.00    +0.000 C 
ENDBRANCH  12  22
ENDBRANCH   8  13
ENDBRANCH   1   9
BRANCH   3  23
ATOM     23  O   UNL     1       5.054   5.017  16.266  0.00  0.00    +0.000 OA
BRANCH  23  24
ATOM     24  C   UNL     1       5.462   6.383  16.093  0.00  0.00    +0.000 C 
BRANCH  24  25
ATOM     25  C   UNL     1       6.958   6.513  16.406  0.00  0.00    +0.000 C 
BRANCH  25  26
ATOM     26  N   UNL     1       7.204   6.405  17.837  0.00  0.00    +0.000 N 
ATOM     27  C   UNL     1       7.663   5.290  18.443  0.00  0.00    +0.000 C 
ATOM     28  N   UNL     1       7.699   4.090  17.995  0.00  0.00    +0.000 NA
ATOM     29  N   UNL     1       8.102   5.538  19.689  0.00  0.00    +0.000 N 
ATOM     30  H   UNL     1       7.628   7.251  18.208  0.00  0.00    +0.000 HD
ATOM     31  H   UNL     1       7.324   4.055  17.051  0.00  0.00    +0.000 HD
ATOM     32  H   UNL     1       7.510   6.170  20.209  0.00  0.00    +0.000 HD
ATOM     33  H   UNL     1       8.224   4.658  20.185  0.00  0.00    +0.000 HD
ENDBRANCH  25  26
ENDBRANCH  24  25
ENDBRANCH  23  24
ENDBRANCH   3  23
TORSDOF 7
ENDMDL
MODEL 8
REMARK VINA RESULT:      -7.0      1.779      2.351
REMARK  Name = 
REMARK  7 active torsions:
REMARK  status: ('A' for Active; 'I' for Inactive)
REMARK    1  A    between atoms: C_2  and  C_3
REMARK    2  A    between atoms: C_4  and  N_5
REMARK    3  A    between atoms: C_6  and  C_8
REMARK    4  A    between atoms: C_10  and  O_11
REMARK    5  A    between atoms: O_11  and  C_12
REMARK    6  A    between atoms: C_12  and  C_13
REMARK    7  A    between atoms: C_13  and  N_14
REMARK                            x       y       z     vdW  Elec       q    Type
REMARK                         _______ _______ _______ _____ _____    ______ ____
ROOT
ATOM      1  C   UNL     1       2.478   6.195  19.159  0.00  0.00    +0.000 A 
ATOM      2  C   UNL     1       3.441   6.552  18.194  0.00  0.00    +0.000 A 
ATOM      3  C   UNL     1       3.986   5.602  17.324  0.00  0.00    +0.000 A 
ATOM      4  C   UNL     1       3.619   4.264  17.457  0.00  0.00    +0.000 A 
ATOM      5  C   UNL     1       2.673   3.895  18.420  0.00  0.00    +0.000 A 
ATOM      6  C   UNL     1       2.096   4.852  19.264  0.00  0.00    +0.000 A 
ATOM      7 CL   UNL     1       0.952   4.267  20.419  0.00  0.00    +0.000 Cl
ENDROOT
BRANCH   1   9
ATOM      8  N   UNL     1       1.381   8.374  19.360  0.00  0.00    +0.000 N 
ATOM      9  C   UNL     1       1.943   7.296  20.018  0.00  0.00    +0.000 C 
ATOM     10  O   UNL     1       2.132   7.244  21.230  0.00  0.00    +0.000 OA
ATOM     11  H   UNL     1       1.580   8.499  18.375  0.00  0.00    +0.000 HD
BRANCH   8  13
ATOM     12  C   UNL     1       1.018  10.847  19.840  0.00  0.00    +0.000 A 
ATOM     13  C   UNL     1       0.926   9.484  20.041  0.00  0.00    +0.000 A 
ATOM     14  S   UNL     1       0.083   9.087  21.467  0.00  0.00    +0.000 S 
ATOM     15  C   UNL     1      -0.326  10.715  21.748  0.00  0.00    +0.000 A 
ATOM     16  C   UNL     1       0.292  11.572  20.854  0.00  0.00    +0.000 A 
ATOM     17  C   UNL     1       0.165  13.066  20.980  0.00  0.00    +0.000 C 
ATOM     18  C   UNL     1      -0.402  13.487  22.346  0.00  0.00    +0.000 C 
ATOM     19  C   UNL     1      -1.593  12.613  22.762  0.00  0.00    +0.000 C 
ATOM     20  C   UNL     1      -1.191  11.135  22.898  0.00  0.00    +0.000 C 
BRANCH  12  22
ATOM     21  N   UNL     1       2.439  11.936  17.960  0.00  0.00    +0.000 NA
ATOM     22  C   UNL     1       1.834  11.477  18.838  0.00  0.00    +0.000 C 
ENDBRANCH  12  22
ENDBRANCH   8  13
ENDBRANCH   1   9
BRANCH   3  23
ATOM     23  O   UNL     1       4.863   6.087  16.393  0.00  0.00    +0.000 OA
BRANCH  23  24
ATOM     24  C   UNL     1       5.417   5.125  15.482  0.00  0.00    +0.000 C 
BRANCH  24  25
ATOM     25  C   UNL     1       6.949   5.195  15.534  0.00  0.00    +0.000 C 
BRANCH  25  26
ATOM     26  N   UNL     1       7.448   4.779  16.837  0.00  0.00    +0.000 N 
ATOM     27  C   UNL     1       7.550   5.600  17.903  0.00  0.00    +0.000 C 
ATOM     28  N   UNL     1       7.523   6.880  17.937  0.00  0.00    +0.000 NA
ATOM     29  N   UNL     1       7.729   4.919  19.048  0.00  0.00    +0.000 N 
ATOM     30  H   UNL     1       7.109   3.855  17.090  0.00  0.00    +0.000 HD
ATOM     31  H   UNL     1       7.396   7.255  17.000  0.00  0.00    +0.000 HD
ATOM     32  H   UNL     1       8.372   4.144  18.963  0.00  0.00    +0.000 HD
ATOM     33  H   UNL     1       8.025   5.560  19.780  0.00  0.00    +0.000 HD
ENDBRANCH  25  26
ENDBRANCH  24  25
ENDBRANCH  23  24
ENDBRANCH   3  23
TORSDOF 7
ENDMDL
MODEL 9
REMARK VINA RESULT:      -7.0      1.726      2.494
REMARK  Name = 
REMARK  7 active torsions:
REMARK  status: ('A' for Active; 'I' for Inactive)
REMARK    1  A    between atoms: C_2  and  C_3
REMARK    2  A    between atoms: C_4  and  N_5
REMARK    3  A    between atoms: C_6  and  C_8
REMARK    4  A    between atoms: C_10  and  O_11
REMARK    5  A    between atoms: O_11  and  C_12
REMARK    6  A    between atoms: C_12  and  C_13
REMARK    7  A    between atoms: C_13  and  N_14
REMARK                            x       y       z     vdW  Elec       q    Type
REMARK                         _______ _______ _______ _____ _____    ______ ____
ROOT
ATOM      1  C   UNL     1       3.077   5.744  19.473  0.00  0.00    +0.000 A 
ATOM      2  C   UNL     1       4.456   5.676  19.194  0.00  0.00    +0.000 A 
ATOM      3  C   UNL     1       5.166   4.478  19.325  0.00  0.00    +0.000 A 
ATOM      4  C   UNL     1       4.512   3.345  19.804  0.00  0.00    +0.000 A 
ATOM      5  C   UNL     1       3.145   3.403  20.097  0.00  0.00    +0.000 A 
ATOM      6  C   UNL     1       2.424   4.591  19.926  0.00  0.00    +0.000 A 
ATOM      7 CL   UNL     1       0.746   4.536  20.336  0.00  0.00    +0.000 Cl
ENDROOT
BRANCH   1   9
ATOM      8  N   UNL     1       2.007   7.734  20.416  0.00  0.00    +0.000 N 
ATOM      9  C   UNL     1       2.412   7.069  19.274  0.00  0.00    +0.000 C 
ATOM     10  O   UNL     1       2.159   7.436  18.130  0.00  0.00    +0.000 OA
ATOM     11  H   UNL     1       1.934   7.213  21.281  0.00  0.00    +0.000 HD
BRANCH   8  13
ATOM     12  C   UNL     1       0.766   9.774  21.298  0.00  0.00    +0.000 A 
ATOM     13  C   UNL     1       1.314   8.925  20.356  0.00  0.00    +0.000 A 
ATOM     14  S   UNL     1       1.047   9.458  18.760  0.00  0.00    +0.000 S 
ATOM     15  C   UNL     1       0.354  10.915  19.300  0.00  0.00    +0.000 A 
ATOM     16  C   UNL     1       0.189  10.939  20.674  0.00  0.00    +0.000 A 
ATOM     17  C   UNL     1      -0.507  12.082  21.363  0.00  0.00    +0.000 C 
ATOM     18  C   UNL     1      -1.272  12.977  20.373  0.00  0.00    +0.000 C 
ATOM     19  C   UNL     1      -0.443  13.274  19.117  0.00  0.00    +0.000 C 
ATOM     20  C   UNL     1      -0.091  11.988  18.352  0.00  0.00    +0.000 C 
BRANCH  12  22
ATOM     21  N   UNL     1       0.536   9.343  23.848  0.00  0.00    +0.000 NA
ATOM     22  C   UNL     1       0.659   9.484  22.702  0.00  0.00    +0.000 C 
ENDBRANCH  12  22
ENDBRANCH   8  13
ENDBRANCH   1   9
BRANCH   3  23
ATOM     23  O   UNL     1       6.485   4.530  18.963  0.00  0.00    +0.000 OA
BRANCH  23  24
ATOM     24  C   UNL     1       6.786   5.268  17.768  0.00  0.00    +0.000 C 
BRANCH  24  25
ATOM     25  C   UNL     1       6.719   4.329  16.557  0.00  0.00    +0.000 C 
BRANCH  25  26
ATOM     26  N   UNL     1       7.427   4.895  15.417  0.00  0.00    +0.000 N 
ATOM     27  C   UNL     1       7.120   4.633  14.130  0.00  0.00    +0.000 C 
ATOM     28  N   UNL     1       6.401   3.686  13.653  0.00  0.00    +0.000 NA
ATOM     29  N   UNL     1       7.698   5.505  13.286  0.00  0.00    +0.000 N 
ATOM     30  H   UNL     1       7.660   5.873  15.570  0.00  0.00    +0.000 HD
ATOM     31  H   UNL     1       6.044   3.102  14.404  0.00  0.00    +0.000 HD
ATOM     32  H   UNL     1       8.653   5.728  13.526  0.00  0.00    +0.000 HD
ATOM     33  H   UNL     1       7.633   5.149  12.336  0.00  0.00    +0.000 HD
ENDBRANCH  25  26
ENDBRANCH  24  25
ENDBRANCH  23  24
ENDBRANCH   3  23
TORSDOF 7
ENDMDL
