MODEL 1
REMARK VINA RESULT:      -8.6      0.000      0.000
REMARK  Name = 
REMARK  5 active torsions:
REMARK  status: ('A' for Active; 'I' for Inactive)
REMARK    1  A    between atoms: C_5  and  N_6
REMARK    2  A    between atoms: C_16  and  C_17
REMARK    3  A    between atoms: C_17  and  C_18
REMARK    4  A    between atoms: N_24  and  C_25
REMARK    5  A    between atoms: C_29  and  O_30
REMARK                            x       y       z     vdW  Elec       q    Type
REMARK                         _______ _______ _______ _____ _____    ______ ____
ROOT
ATOM      1  O   UNL     1       1.313   6.776  21.221  0.00  0.00    +0.000 OA
ATOM      2  C   UNL     1       1.691   7.254  20.147  0.00  0.00    +0.000 C 
ATOM      3  C   UNL     1       1.355   8.649  19.846  0.00  0.00    +0.000 A 
ATOM      4  C   UNL     1       0.468   9.339  20.690  0.00  0.00    +0.000 A 
ATOM      5  C   UNL     1       0.025  10.619  20.370  0.00  0.00    +0.000 A 
ATOM      6  C   UNL     1       0.486  11.160  19.159  0.00  0.00    +0.000 A 
ATOM      7  C   UNL     1       1.376  10.471  18.322  0.00  0.00    +0.000 A 
ATOM      8  C   UNL     1       1.822   9.197  18.657  0.00  0.00    +0.000 A 
ATOM      9  N   UNL     1       2.774   8.559  17.884  0.00  0.00    +0.000 N 
ATOM     10  C   UNL     1       3.283   7.237  18.259  0.00  0.00    +0.000 C 
ATOM     11  N   UNL     1       2.356   6.539  19.145  0.00  0.00    +0.000 N 
ATOM     12  H   UNL     1       2.758   8.774  16.891  0.00  0.00    +0.000 HD
ENDROOT
BRANCH   5  13
ATOM     13  N   UNL     1      -0.870  11.333  21.153  0.00  0.00    +0.000 N 
ATOM     14  C   UNL     1      -0.721  11.412  22.609  0.00  0.00    +0.000 C 
ATOM     15  C   UNL     1      -2.119  11.531  23.224  0.00  0.00    +0.000 C 
ATOM     16  C   UNL     1      -2.930  12.673  22.607  0.00  0.00    +0.000 C 
ATOM     17  C   UNL     1      -2.903  12.636  21.077  0.00  0.00    +0.000 C 
ATOM     18  C   UNL     1      -1.474  12.528  20.556  0.00  0.00    +0.000 C 
ENDBRANCH   5  13
BRANCH  11  19
ATOM     19  C   UNL     1       2.432   5.132  19.336  0.00  0.00    +0.000 A 
ATOM     20  C   UNL     1       3.516   4.500  19.949  0.00  0.00    +0.000 A 
ATOM     21  C   UNL     1       3.532   3.106  20.082  0.00  0.00    +0.000 A 
ATOM     22  C   UNL     1       2.472   2.339  19.590  0.00  0.00    +0.000 A 
ATOM     23  C   UNL     1       1.393   2.977  18.989  0.00  0.00    +0.000 A 
ATOM     24  C   UNL     1       1.356   4.360  18.883  0.00  0.00    +0.000 A 
BRANCH  23  25
ATOM     25  O   UNL     1       0.342   2.282  18.469  0.00  0.00    +0.000 OA
ATOM     26  H   UNL     1      -0.074   1.775  19.182  0.00  0.00    +0.000 HD
ENDBRANCH  23  25
ENDBRANCH  11  19
BRANCH  10  27
ATOM     27  C   UNL     1       3.729   6.486  16.963  0.00  0.00    +0.000 C 
BRANCH  27  28
ATOM     28  C   UNL     1       5.039   5.718  16.907  0.00  0.00    +0.000 A 
ATOM     29  C   UNL     1       5.323   4.712  15.979  0.00  0.00    +0.000 A 
ATOM     30  C   UNL     1       6.589   4.118  15.934  0.00  0.00    +0.000 A 
ATOM     31  C   UNL     1       7.582   4.509  16.829  0.00  0.00    +0.000 A 
ATOM     32  C   UNL     1       7.303   5.474  17.790  0.00  0.00    +0.000 A 
ATOM     33  C   UNL     1       6.042   6.070  17.831  0.00  0.00    +0.000 A 
ENDBRANCH  27  28
ENDBRANCH  10  27
TORSDOF 5
ENDMDL
MODEL 2
REMARK VINA RESULT:      -8.5      0.462      1.007
REMARK  Name = 
REMARK  5 active torsions:
REMARK  status: ('A' for Active; 'I' for Inactive)
REMARK    1  A    between atoms: C_5  and  N_6
REMARK    2  A    between atoms: C_16  and  C_17
REMARK    3  A    between atoms: C_17  and  C_18
REMARK    4  A    between atoms: N_24  and  C_25
REMARK    5  A    between atoms: C_29  and  O_30
REMARK                            x       y       z     vdW  Elec       q    Type
REMARK                         _______ _______ _______ _____ _____    ______ ____
ROOT
ATOM      1  O   UNL     1       1.188   6.837  21.214  0.00  0.00    +0.000 OA
ATOM      2  C   UNL     1       1.634   7.245  20.137  0.00  0.00    +0.000 C 
ATOM      3  C   UNL     1       1.379   8.638  19.757  0.00  0.00    +0.000 A 
ATOM      4  C   UNL     1       0.490   9.408  20.527  0.00  0.00    +0.000 A 
ATOM      5  C   UNL     1       0.123  10.689  20.128  0.00  0.00    +0.000 A 
ATOM      6  C   UNL     1       0.662  11.150  18.915  0.00  0.00    +0.000 A 
ATOM      7  C   UNL     1       1.553  10.382  18.153  0.00  0.00    +0.000 A 
ATOM      8  C   UNL     1       1.923   9.106  18.567  0.00  0.00    +0.000 A 
ATOM      9  N   UNL     1       2.876   8.389  17.868  0.00  0.00    +0.000 N 
ATOM     10  C   UNL     1       3.304   7.065  18.327  0.00  0.00    +0.000 C 
ATOM     11  N   UNL     1       2.307   6.453  19.201  0.00  0.00    +0.000 N 
ATOM     12  H   UNL     1       2.914   8.556  16.867  0.00  0.00    +0.000 HD
ENDROOT
BRANCH   5  13
ATOM     13  N   UNL     1      -0.771  11.481  20.835  0.00  0.00    +0.000 N 
ATOM     14  C   UNL     1      -1.932  12.095  20.184  0.00  0.00    +0.000 C 
ATOM     15  C   UNL     1      -2.231  13.418  20.896  0.00  0.00    +0.000 C 
ATOM     16  C   UNL     1      -2.372  13.244  22.410  0.00  0.00    +0.000 C 
ATOM     17  C   UNL     1      -1.213  12.443  23.007  0.00  0.00    +0.000 C 
ATOM     18  C   UNL     1      -0.995  11.141  22.243  0.00  0.00    +0.000 C 
ENDBRANCH   5  13
BRANCH  11  19
ATOM     19  C   UNL     1       2.308   5.054  19.460  0.00  0.00    +0.000 A 
ATOM     20  C   UNL     1       3.274   4.422  20.246  0.00  0.00    +0.000 A 
ATOM     21  C   UNL     1       3.223   3.036  20.438  0.00  0.00    +0.000 A 
ATOM     22  C   UNL     1       2.216   2.277  19.836  0.00  0.00    +0.000 A 
ATOM     23  C   UNL     1       1.254   2.917  19.062  0.00  0.00    +0.000 A 
ATOM     24  C   UNL     1       1.280   4.293  18.894  0.00  0.00    +0.000 A 
BRANCH  23  25
ATOM     25  O   UNL     1       0.262   2.227  18.430  0.00  0.00    +0.000 OA
ATOM     26  H   UNL     1       0.129   2.617  17.553  0.00  0.00    +0.000 HD
ENDBRANCH  23  25
ENDBRANCH  11  19
BRANCH  10  27
ATOM     27  C   UNL     1       3.770   6.232  17.089  0.00  0.00    +0.000 C 
BRANCH  27  28
ATOM     28  C   UNL     1       5.131   5.558  17.058  0.00  0.00    +0.000 A 
ATOM     29  C   UNL     1       5.646   4.872  15.953  0.00  0.00    +0.000 A 
ATOM     30  C   UNL     1       6.948   4.360  15.974  0.00  0.00    +0.000 A 
ATOM     31  C   UNL     1       7.747   4.511  17.104  0.00  0.00    +0.000 A 
ATOM     32  C   UNL     1       7.235   5.148  18.230  0.00  0.00    +0.000 A 
ATOM     33  C   UNL     1       5.938   5.663  18.208  0.00  0.00    +0.000 A 
ENDBRANCH  27  28
ENDBRANCH  10  27
TORSDOF 5
ENDMDL
MODEL 3
REMARK VINA RESULT:      -8.4      0.987      1.008
REMARK  Name = 
REMARK  5 active torsions:
REMARK  status: ('A' for Active; 'I' for Inactive)
REMARK    1  A    between atoms: C_5  and  N_6
REMARK    2  A    between atoms: C_16  and  C_17
REMARK    3  A    between atoms: C_17  and  C_18
REMARK    4  A    between atoms: N_24  and  C_25
REMARK    5  A    between atoms: C_29  and  O_30
REMARK                            x       y       z     vdW  Elec       q    Type
REMARK                         _______ _______ _______ _____ _____    ______ ____
ROOT
ATOM      1  O   UNL     1       1.098   7.124  21.471  0.00  0.00    +0.000 OA
ATOM      2  C   UNL     1       1.565   7.314  20.345  0.00  0.00    +0.000 C 
ATOM      3  C   UNL     1       1.473   8.658  19.767  0.00  0.00    +0.000 A 
ATOM      4  C   UNL     1       0.702   9.635  20.422  0.00  0.00    +0.000 A 
ATOM      5  C   UNL     1       0.484  10.881  19.842  0.00  0.00    +0.000 A 
ATOM      6  C   UNL     1       1.047  11.093  18.573  0.00  0.00    +0.000 A 
ATOM      7  C   UNL     1       1.821  10.118  17.926  0.00  0.00    +0.000 A 
ATOM      8  C   UNL     1       2.042   8.879  18.519  0.00  0.00    +0.000 A 
ATOM      9  N   UNL     1       2.885   7.957  17.928  0.00  0.00    +0.000 N 
ATOM     10  C   UNL     1       3.160   6.670  18.572  0.00  0.00    +0.000 C 
ATOM     11  N   UNL     1       2.116   6.318  19.531  0.00  0.00    +0.000 N 
ATOM     12  H   UNL     1       2.920   7.973  16.912  0.00  0.00    +0.000 HD
ENDROOT
BRANCH   5  13
ATOM     13  N   UNL     1      -0.290  11.871  20.431  0.00  0.00    +0.000 N 
ATOM     14  C   UNL     1       0.275  12.803  21.411  0.00  0.00    +0.000 C 
ATOM     15  C   UNL     1      -0.834  13.187  22.396  0.00  0.00    +0.000 C 
ATOM     16  C   UNL     1      -2.091  13.697  21.685  0.00  0.00    +0.000 C 
ATOM     17  C   UNL     1      -2.531  12.764  20.555  0.00  0.00    +0.000 C 
ATOM     18  C   UNL     1      -1.368  12.446  19.622  0.00  0.00    +0.000 C 
ENDBRANCH   5  13
BRANCH  11  19
ATOM     19  C   UNL     1       1.952   4.983  19.991  0.00  0.00    +0.000 A 
ATOM     20  C   UNL     1       2.497   4.513  21.188  0.00  0.00    +0.000 A 
ATOM     21  C   UNL     1       2.313   3.177  21.565  0.00  0.00    +0.000 A 
ATOM     22  C   UNL     1       1.598   2.304  20.741  0.00  0.00    +0.000 A 
ATOM     23  C   UNL     1       1.052   2.782  19.555  0.00  0.00    +0.000 A 
ATOM     24  C   UNL     1       1.203   4.113  19.191  0.00  0.00    +0.000 A 
BRANCH  23  25
ATOM     25  O   UNL     1       0.367   1.974  18.699  0.00  0.00    +0.000 OA
ATOM     26  H   UNL     1       0.891   1.173  18.546  0.00  0.00    +0.000 HD
ENDBRANCH  23  25
ENDBRANCH  11  19
BRANCH  10  27
ATOM     27  C   UNL     1       3.492   5.616  17.466  0.00  0.00    +0.000 C 
BRANCH  27  28
ATOM     28  C   UNL     1       4.921   5.172  17.204  0.00  0.00    +0.000 A 
ATOM     29  C   UNL     1       5.434   4.874  15.938  0.00  0.00    +0.000 A 
ATOM     30  C   UNL     1       6.787   4.562  15.770  0.00  0.00    +0.000 A 
ATOM     31  C   UNL     1       7.643   4.526  16.869  0.00  0.00    +0.000 A 
ATOM     32  C   UNL     1       7.141   4.772  18.142  0.00  0.00    +0.000 A 
ATOM     33  C   UNL     1       5.792   5.088  18.308  0.00  0.00    +0.000 A 
ENDBRANCH  27  28
ENDBRANCH  10  27
TORSDOF 5
ENDMDL
MODEL 4
REMARK VINA RESULT:      -8.4      0.973      1.577
REMARK  Name = 
REMARK  5 active torsions:
REMARK  status: ('A' for Active; 'I' for Inactive)
REMARK    1  A    between atoms: C_5  and  N_6
REMARK    2  A    between atoms: C_16  and  C_17
REMARK    3  A    between atoms: C_17  and  C_18
REMARK    4  A    between atoms: N_24  and  C_25
REMARK    5  A    between atoms: C_29  and  O_30
REMARK                            x       y       z     vdW  Elec       q    Type
REMARK                         _______ _______ _______ _____ _____    ______ ____
ROOT
ATOM      1  O   UNL     1       1.036   7.202  21.531  0.00  0.00    +0.000 OA
ATOM      2  C   UNL     1       1.517   7.401  20.412  0.00  0.00    +0.000 C 
ATOM      3  C   UNL     1       1.424   8.747  19.840  0.00  0.00    +0.000 A 
ATOM      4  C   UNL     1       0.637   9.716  20.489  0.00  0.00    +0.000 A 
ATOM      5  C   UNL     1       0.419  10.964  19.913  0.00  0.00    +0.000 A 
ATOM      6  C   UNL     1       0.997  11.185  18.652  0.00  0.00    +0.000 A 
ATOM      7  C   UNL     1       1.786  10.219  18.011  0.00  0.00    +0.000 A 
ATOM      8  C   UNL     1       2.008   8.979  18.600  0.00  0.00    +0.000 A 
ATOM      9  N   UNL     1       2.864   8.065  18.016  0.00  0.00    +0.000 N 
ATOM     10  C   UNL     1       3.139   6.777  18.657  0.00  0.00    +0.000 C 
ATOM     11  N   UNL     1       2.085   6.413  19.600  0.00  0.00    +0.000 N 
ATOM     12  H   UNL     1       2.913   8.086  17.001  0.00  0.00    +0.000 HD
ENDROOT
BRANCH   5  13
ATOM     13  N   UNL     1      -0.369  11.945  20.496  0.00  0.00    +0.000 N 
ATOM     14  C   UNL     1      -1.114  12.913  19.685  0.00  0.00    +0.000 C 
ATOM     15  C   UNL     1      -1.205  14.223  20.473  0.00  0.00    +0.000 C 
ATOM     16  C   UNL     1      -1.764  14.014  21.883  0.00  0.00    +0.000 C 
ATOM     17  C   UNL     1      -1.060  12.871  22.618  0.00  0.00    +0.000 C 
ATOM     18  C   UNL     1      -1.026  11.609  21.763  0.00  0.00    +0.000 C 
ENDBRANCH   5  13
BRANCH  11  19
ATOM     19  C   UNL     1       1.925   5.074  20.051  0.00  0.00    +0.000 A 
ATOM     20  C   UNL     1       2.505   4.587  21.225  0.00  0.00    +0.000 A 
ATOM     21  C   UNL     1       2.321   3.249  21.594  0.00  0.00    +0.000 A 
ATOM     22  C   UNL     1       1.571   2.391  20.785  0.00  0.00    +0.000 A 
ATOM     23  C   UNL     1       0.990   2.887  19.623  0.00  0.00    +0.000 A 
ATOM     24  C   UNL     1       1.141   4.220  19.269  0.00  0.00    +0.000 A 
BRANCH  23  25
ATOM     25  O   UNL     1       0.268   2.094  18.783  0.00  0.00    +0.000 OA
ATOM     26  H   UNL     1       0.883   1.533  18.286  0.00  0.00    +0.000 HD
ENDBRANCH  23  25
ENDBRANCH  11  19
BRANCH  10  27
ATOM     27  C   UNL     1       3.493   5.731  17.551  0.00  0.00    +0.000 C 
BRANCH  27  28
ATOM     28  C   UNL     1       4.934   5.344  17.263  0.00  0.00    +0.000 A 
ATOM     29  C   UNL     1       5.972   5.421  18.197  0.00  0.00    +0.000 A 
ATOM     30  C   UNL     1       7.253   4.957  17.881  0.00  0.00    +0.000 A 
ATOM     31  C   UNL     1       7.519   4.425  16.622  0.00  0.00    +0.000 A 
ATOM     32  C   UNL     1       6.511   4.383  15.664  0.00  0.00    +0.000 A 
ATOM     33  C   UNL     1       5.232   4.843  15.981  0.00  0.00    +0.000 A 
ENDBRANCH  27  28
ENDBRANCH  10  27
TORSDOF 5
ENDMDL
MODEL 5
REMARK VINA RESULT:      -8.3      0.920      1.201
REMARK  Name = 
REMARK  5 active torsions:
REMARK  status: ('A' for Active; 'I' for Inactive)
REMARK    1  A    between atoms: C_5  and  N_6
REMARK    2  A    between atoms: C_16  and  C_17
REMARK    3  A    between atoms: C_17  and  C_18
REMARK    4  A    between atoms: N_24  and  C_25
REMARK    5  A    between atoms: C_29  and  O_30
REMARK                            x       y       z     vdW  Elec       q    Type
REMARK                         _______ _______ _______ _____ _____    ______ ____
ROOT
ATOM      1  O   UNL     1       0.924   6.726  21.175  0.00  0.00    +0.000 OA
ATOM      2  C   UNL     1       1.450   7.176  20.152  0.00  0.00    +0.000 C 
ATOM      3  C   UNL     1       1.286   8.602  19.853  0.00  0.00    +0.000 A 
ATOM      4  C   UNL     1       0.394   9.368  20.624  0.00  0.00    +0.000 A 
ATOM      5  C   UNL     1       0.114  10.690  20.292  0.00  0.00    +0.000 A 
ATOM      6  C   UNL     1       0.742  11.197  19.143  0.00  0.00    +0.000 A 
ATOM      7  C   UNL     1       1.636  10.432  18.379  0.00  0.00    +0.000 A 
ATOM      8  C   UNL     1       1.918   9.115  18.726  0.00  0.00    +0.000 A 
ATOM      9  N   UNL     1       2.872   8.394  18.033  0.00  0.00    +0.000 N 
ATOM     10  C   UNL     1       3.208   7.023  18.425  0.00  0.00    +0.000 C 
ATOM     11  N   UNL     1       2.134   6.411  19.203  0.00  0.00    +0.000 N 
ATOM     12  H   UNL     1       2.974   8.622  17.048  0.00  0.00    +0.000 HD
ENDROOT
BRANCH   5  13
ATOM     13  N   UNL     1      -0.777  11.481  21.002  0.00  0.00    +0.000 N 
ATOM     14  C   UNL     1      -0.688  11.616  22.459  0.00  0.00    +0.000 C 
ATOM     15  C   UNL     1      -2.104  11.831  23.004  0.00  0.00    +0.000 C 
ATOM     16  C   UNL     1      -2.828  12.984  22.303  0.00  0.00    +0.000 C 
ATOM     17  C   UNL     1      -2.735  12.878  20.779  0.00  0.00    +0.000 C 
ATOM     18  C   UNL     1      -1.292  12.677  20.329  0.00  0.00    +0.000 C 
ENDBRANCH   5  13
BRANCH  11  19
ATOM     19  C   UNL     1       2.051   5.001  19.368  0.00  0.00    +0.000 A 
ATOM     20  C   UNL     1       1.496   4.149  18.410  0.00  0.00    +0.000 A 
ATOM     21  C   UNL     1       1.428   2.772  18.653  0.00  0.00    +0.000 A 
ATOM     22  C   UNL     1       1.900   2.244  19.858  0.00  0.00    +0.000 A 
ATOM     23  C   UNL     1       2.458   3.098  20.802  0.00  0.00    +0.000 A 
ATOM     24  C   UNL     1       2.558   4.460  20.554  0.00  0.00    +0.000 A 
BRANCH  23  25
ATOM     25  O   UNL     1       2.913   2.646  22.005  0.00  0.00    +0.000 OA
ATOM     26  H   UNL     1       3.861   2.838  22.066  0.00  0.00    +0.000 HD
ENDBRANCH  23  25
ENDBRANCH  11  19
BRANCH  10  27
ATOM     27  C   UNL     1       3.700   6.246  17.160  0.00  0.00    +0.000 C 
BRANCH  27  28
ATOM     28  C   UNL     1       5.062   5.575  17.128  0.00  0.00    +0.000 A 
ATOM     29  C   UNL     1       5.614   4.968  15.995  0.00  0.00    +0.000 A 
ATOM     30  C   UNL     1       6.915   4.454  16.023  0.00  0.00    +0.000 A 
ATOM     31  C   UNL     1       7.675   4.522  17.188  0.00  0.00    +0.000 A 
ATOM     32  C   UNL     1       7.125   5.079  18.338  0.00  0.00    +0.000 A 
ATOM     33  C   UNL     1       5.829   5.596  18.309  0.00  0.00    +0.000 A 
ENDBRANCH  27  28
ENDBRANCH  10  27
TORSDOF 5
ENDMDL
MODEL 6
REMARK VINA RESULT:      -8.3      0.944      1.536
REMARK  Name = 
REMARK  5 active torsions:
REMARK  status: ('A' for Active; 'I' for Inactive)
REMARK    1  A    between atoms: C_5  and  N_6
REMARK    2  A    between atoms: C_16  and  C_17
REMARK    3  A    between atoms: C_17  and  C_18
REMARK    4  A    between atoms: N_24  and  C_25
REMARK    5  A    between atoms: C_29  and  O_30
REMARK                            x       y       z     vdW  Elec       q    Type
REMARK                         _______ _______ _______ _____ _____    ______ ____
ROOT
ATOM      1  O   UNL     1       1.393   6.715  21.055  0.00  0.00    +0.000 OA
ATOM      2  C   UNL     1       1.770   7.252  20.009  0.00  0.00    +0.000 C 
ATOM      3  C   UNL     1       1.436   8.663  19.789  0.00  0.00    +0.000 A 
ATOM      4  C   UNL     1       0.551   9.305  20.672  0.00  0.00    +0.000 A 
ATOM      5  C   UNL     1       0.110  10.602  20.425  0.00  0.00    +0.000 A 
ATOM      6  C   UNL     1       0.571  11.211  19.246  0.00  0.00    +0.000 A 
ATOM      7  C   UNL     1       1.459  10.569  18.371  0.00  0.00    +0.000 A 
ATOM      8  C   UNL     1       1.903   9.277  18.632  0.00  0.00    +0.000 A 
ATOM      9  N   UNL     1       2.853   8.682  17.823  0.00  0.00    +0.000 N 
ATOM     10  C   UNL     1       3.360   7.341  18.122  0.00  0.00    +0.000 C 
ATOM     11  N   UNL     1       2.432   6.595  18.968  0.00  0.00    +0.000 N 
ATOM     12  H   UNL     1       2.837   8.954  16.844  0.00  0.00    +0.000 HD
ENDROOT
BRANCH   5  13
ATOM     13  N   UNL     1      -0.783  11.273  21.248  0.00  0.00    +0.000 N 
ATOM     14  C   UNL     1      -0.698  11.178  22.709  0.00  0.00    +0.000 C 
ATOM     15  C   UNL     1      -2.116  11.304  23.276  0.00  0.00    +0.000 C 
ATOM     16  C   UNL     1      -2.838  12.553  22.763  0.00  0.00    +0.000 C 
ATOM     17  C   UNL     1      -2.742  12.687  21.242  0.00  0.00    +0.000 C 
ATOM     18  C   UNL     1      -1.297  12.559  20.770  0.00  0.00    +0.000 C 
ENDBRANCH   5  13
BRANCH  11  19
ATOM     19  C   UNL     1       2.507   5.179  19.079  0.00  0.00    +0.000 A 
ATOM     20  C   UNL     1       1.414   4.335  18.862  0.00  0.00    +0.000 A 
ATOM     21  C   UNL     1       1.558   2.951  19.012  0.00  0.00    +0.000 A 
ATOM     22  C   UNL     1       2.788   2.406  19.392  0.00  0.00    +0.000 A 
ATOM     23  C   UNL     1       3.871   3.253  19.597  0.00  0.00    +0.000 A 
ATOM     24  C   UNL     1       3.744   4.623  19.419  0.00  0.00    +0.000 A 
BRANCH  23  25
ATOM     25  O   UNL     1       5.088   2.783  19.992  0.00  0.00    +0.000 OA
ATOM     26  H   UNL     1       5.398   2.142  19.335  0.00  0.00    +0.000 HD
ENDBRANCH  23  25
ENDBRANCH  11  19
BRANCH  10  27
ATOM     27  C   UNL     1       3.804   6.663  16.785  0.00  0.00    +0.000 C 
BRANCH  27  28
ATOM     28  C   UNL     1       5.132   5.935  16.672  0.00  0.00    +0.000 A 
ATOM     29  C   UNL     1       6.265   6.241  17.432  0.00  0.00    +0.000 A 
ATOM     30  C   UNL     1       7.423   5.461  17.335  0.00  0.00    +0.000 A 
ATOM     31  C   UNL     1       7.469   4.375  16.465  0.00  0.00    +0.000 A 
ATOM     32  C   UNL     1       6.368   4.084  15.666  0.00  0.00    +0.000 A 
ATOM     33  C   UNL     1       5.212   4.859  15.767  0.00  0.00    +0.000 A 
ENDBRANCH  27  28
ENDBRANCH  10  27
TORSDOF 5
ENDMDL
MODEL 7
REMARK VINA RESULT:      -8.1      1.321      1.780
REMARK  Name = 
REMARK  5 active torsions:
REMARK  status: ('A' for Active; 'I' for Inactive)
REMARK    1  A    between atoms: C_5  and  N_6
REMARK    2  A    between atoms: C_16  and  C_17
REMARK    3  A    between atoms: C_17  and  C_18
REMARK    4  A    between atoms: N_24  and  C_25
REMARK    5  A    between atoms: C_29  and  O_30
REMARK                            x       y       z     vdW  Elec       q    Type
REMARK                         _______ _______ _______ _____ _____    ______ ____
ROOT
ATOM      1  O   UNL     1       1.478   7.058  21.523  0.00  0.00    +0.000 OA
ATOM      2  C   UNL     1       1.789   7.235  20.342  0.00  0.00    +0.000 C 
ATOM      3  C   UNL     1       1.563   8.556  19.749  0.00  0.00    +0.000 A 
ATOM      4  C   UNL     1       0.837   9.518  20.474  0.00  0.00    +0.000 A 
ATOM      5  C   UNL     1       0.490  10.737  19.897  0.00  0.00    +0.000 A 
ATOM      6  C   UNL     1       0.877  10.934  18.562  0.00  0.00    +0.000 A 
ATOM      7  C   UNL     1       1.607   9.975  17.845  0.00  0.00    +0.000 A 
ATOM      8  C   UNL     1       1.958   8.765  18.433  0.00  0.00    +0.000 A 
ATOM      9  N   UNL     1       2.760   7.862  17.761  0.00  0.00    +0.000 N 
ATOM     10  C   UNL     1       3.173   6.607  18.395  0.00  0.00    +0.000 C 
ATOM     11  N   UNL     1       2.277   6.240  19.488  0.00  0.00    +0.000 N 
ATOM     12  H   UNL     1       2.665   7.849  16.749  0.00  0.00    +0.000 HD
ENDROOT
BRANCH   5  13
ATOM     13  N   UNL     1      -0.247  11.709  20.557  0.00  0.00    +0.000 N 
ATOM     14  C   UNL     1      -0.959  12.760  19.823  0.00  0.00    +0.000 C 
ATOM     15  C   UNL     1      -0.983  14.017  20.699  0.00  0.00    +0.000 C 
ATOM     16  C   UNL     1      -1.533  13.739  22.100  0.00  0.00    +0.000 C 
ATOM     17  C   UNL     1      -0.870  12.520  22.746  0.00  0.00    +0.000 C 
ATOM     18  C   UNL     1      -0.901  11.317  21.808  0.00  0.00    +0.000 C 
ENDBRANCH   5  13
BRANCH  11  19
ATOM     19  C   UNL     1       2.234   4.913  19.996  0.00  0.00    +0.000 A 
ATOM     20  C   UNL     1       1.062   4.303  20.450  0.00  0.00    +0.000 A 
ATOM     21  C   UNL     1       1.102   3.000  20.960  0.00  0.00    +0.000 A 
ATOM     22  C   UNL     1       2.314   2.307  21.029  0.00  0.00    +0.000 A 
ATOM     23  C   UNL     1       3.474   2.918  20.567  0.00  0.00    +0.000 A 
ATOM     24  C   UNL     1       3.436   4.197  20.032  0.00  0.00    +0.000 A 
BRANCH  23  25
ATOM     25  O   UNL     1       4.688   2.303  20.632  0.00  0.00    +0.000 OA
ATOM     26  H   UNL     1       5.178   2.668  21.384  0.00  0.00    +0.000 HD
ENDBRANCH  23  25
ENDBRANCH  11  19
BRANCH  10  27
ATOM     27  C   UNL     1       3.411   5.537  17.281  0.00  0.00    +0.000 C 
BRANCH  27  28
ATOM     28  C   UNL     1       4.804   5.244  16.752  0.00  0.00    +0.000 A 
ATOM     29  C   UNL     1       5.090   4.287  15.774  0.00  0.00    +0.000 A 
ATOM     30  C   UNL     1       6.389   4.143  15.273  0.00  0.00    +0.000 A 
ATOM     31  C   UNL     1       7.422   4.943  15.756  0.00  0.00    +0.000 A 
ATOM     32  C   UNL     1       7.166   5.867  16.763  0.00  0.00    +0.000 A 
ATOM     33  C   UNL     1       5.870   6.013  17.259  0.00  0.00    +0.000 A 
ENDBRANCH  27  28
ENDBRANCH  10  27
TORSDOF 5
ENDMDL
MODEL 8
REMARK VINA RESULT:      -8.1      1.096      1.597
REMARK  Name = 
REMARK  5 active torsions:
REMARK  status: ('A' for Active; 'I' for Inactive)
REMARK    1  A    between atoms: C_5  and  N_6
REMARK    2  A    between atoms: C_16  and  C_17
REMARK    3  A    between atoms: C_17  and  C_18
REMARK    4  A    between atoms: N_24  and  C_25
REMARK    5  A    between atoms: C_29  and  O_30
REMARK                            x       y       z     vdW  Elec       q    Type
REMARK                         _______ _______ _______ _____ _____    ______ ____
ROOT
ATOM      1  O   UNL     1       0.928   6.978  21.181  0.00  0.00    +0.000 OA
ATOM      2  C   UNL     1       1.465   7.351  20.134  0.00  0.00    +0.000 C 
ATOM      3  C   UNL     1       1.344   8.761  19.751  0.00  0.00    +0.000 A 
ATOM      4  C   UNL     1       0.478   9.598  20.476  0.00  0.00    +0.000 A 
ATOM      5  C   UNL     1       0.238  10.906  20.067  0.00  0.00    +0.000 A 
ATOM      6  C   UNL     1       0.879  11.326  18.889  0.00  0.00    +0.000 A 
ATOM      7  C   UNL     1       1.747  10.490  18.172  0.00  0.00    +0.000 A 
ATOM      8  C   UNL     1       1.989   9.187  18.596  0.00  0.00    +0.000 A 
ATOM      9  N   UNL     1       2.919   8.398  17.946  0.00  0.00    +0.000 N 
ATOM     10  C   UNL     1       3.214   7.042  18.418  0.00  0.00    +0.000 C 
ATOM     11  N   UNL     1       2.123   6.510  19.231  0.00  0.00    +0.000 N 
ATOM     12  H   UNL     1       3.027   8.564  16.950  0.00  0.00    +0.000 HD
ENDROOT
BRANCH   5  13
ATOM     13  N   UNL     1      -0.627  11.765  20.729  0.00  0.00    +0.000 N 
ATOM     14  C   UNL     1      -1.655  12.523  20.009  0.00  0.00    +0.000 C 
ATOM     15  C   UNL     1      -1.876  13.846  20.750  0.00  0.00    +0.000 C 
ATOM     16  C   UNL     1      -2.168  13.637  22.237  0.00  0.00    +0.000 C 
ATOM     17  C   UNL     1      -1.158  12.694  22.895  0.00  0.00    +0.000 C 
ATOM     18  C   UNL     1      -1.011  11.404  22.096  0.00  0.00    +0.000 C 
ENDBRANCH   5  13
BRANCH  11  19
ATOM     19  C   UNL     1       1.997   5.116  19.479  0.00  0.00    +0.000 A 
ATOM     20  C   UNL     1       1.530   4.207  18.526  0.00  0.00    +0.000 A 
ATOM     21  C   UNL     1       1.411   2.851  18.851  0.00  0.00    +0.000 A 
ATOM     22  C   UNL     1       1.745   2.400  20.131  0.00  0.00    +0.000 A 
ATOM     23  C   UNL     1       2.218   3.310  21.070  0.00  0.00    +0.000 A 
ATOM     24  C   UNL     1       2.368   4.650  20.745  0.00  0.00    +0.000 A 
BRANCH  23  25
ATOM     25  O   UNL     1       2.536   2.935  22.341  0.00  0.00    +0.000 OA
ATOM     26  H   UNL     1       2.013   3.468  22.959  0.00  0.00    +0.000 HD
ENDBRANCH  23  25
ENDBRANCH  11  19
BRANCH  10  27
ATOM     27  C   UNL     1       3.680   6.178  17.202  0.00  0.00    +0.000 C 
BRANCH  27  28
ATOM     28  C   UNL     1       5.055   5.533  17.172  0.00  0.00    +0.000 A 
ATOM     29  C   UNL     1       5.631   4.958  16.035  0.00  0.00    +0.000 A 
ATOM     30  C   UNL     1       6.941   4.469  16.068  0.00  0.00    +0.000 A 
ATOM     31  C   UNL     1       7.687   4.531  17.243  0.00  0.00    +0.000 A 
ATOM     32  C   UNL     1       7.114   5.055  18.396  0.00  0.00    +0.000 A 
ATOM     33  C   UNL     1       5.808   5.548  18.362  0.00  0.00    +0.000 A 
ENDBRANCH  27  28
ENDBRANCH  10  27
TORSDOF 5
ENDMDL
MODEL 9
REMARK VINA RESULT:      -8.1      1.125      1.881
REMARK  Name = 
REMARK  5 active torsions:
REMARK  status: ('A' for Active; 'I' for Inactive)
REMARK    1  A    between atoms: C_5  and  N_6
REMARK    2  A    between atoms: C_16  and  C_17
REMARK    3  A    between atoms: C_17  and  C_18
REMARK    4  A    between atoms: N_24  and  C_25
REMARK    5  A    between atoms: C_29  and  O_30
REMARK                            x       y       z     vdW  Elec       q    Type
REMARK                         _______ _______ _______ _____ _____    ______ ____
ROOT
ATOM      1  O   UNL     1       1.485   6.707  20.622  0.00  0.00    +0.000 OA
ATOM      2  C   UNL     1       1.896   7.321  19.633  0.00  0.00    +0.000 C 
ATOM      3  C   UNL     1       1.543   8.737  19.494  0.00  0.00    +0.000 A 
ATOM      4  C   UNL     1       0.608   9.302  20.379  0.00  0.00    +0.000 A 
ATOM      5  C   UNL     1       0.151  10.605  20.201  0.00  0.00    +0.000 A 
ATOM      6  C   UNL     1       0.650  11.301  19.088  0.00  0.00    +0.000 A 
ATOM      7  C   UNL     1       1.587  10.736  18.211  0.00  0.00    +0.000 A 
ATOM      8  C   UNL     1       2.046   9.437  18.403  0.00  0.00    +0.000 A 
ATOM      9  N   UNL     1       3.042   8.916  17.598  0.00  0.00    +0.000 N 
ATOM     10  C   UNL     1       3.563   7.566  17.828  0.00  0.00    +0.000 C 
ATOM     11  N   UNL     1       2.616   6.748  18.579  0.00  0.00    +0.000 N 
ATOM     12  H   UNL     1       3.062   9.254  16.640  0.00  0.00    +0.000 HD
ENDROOT
BRANCH   5  13
ATOM     13  N   UNL     1      -0.789  11.201  21.028  0.00  0.00    +0.000 N 
ATOM     14  C   UNL     1      -1.964  11.887  20.481  0.00  0.00    +0.000 C 
ATOM     15  C   UNL     1      -2.336  13.027  21.436  0.00  0.00    +0.000 C 
ATOM     16  C   UNL     1      -2.497  12.546  22.880  0.00  0.00    +0.000 C 
ATOM     17  C   UNL     1      -1.315  11.687  23.336  0.00  0.00    +0.000 C 
ATOM     18  C   UNL     1      -1.025  10.576  22.332  0.00  0.00    +0.000 C 
ENDBRANCH   5  13
BRANCH  11  19
ATOM     19  C   UNL     1       2.714   5.329  18.597  0.00  0.00    +0.000 A 
ATOM     20  C   UNL     1       1.720   4.486  18.092  0.00  0.00    +0.000 A 
ATOM     21  C   UNL     1       1.877   3.097  18.165  0.00  0.00    +0.000 A 
ATOM     22  C   UNL     1       3.019   2.546  18.754  0.00  0.00    +0.000 A 
ATOM     23  C   UNL     1       4.007   3.393  19.245  0.00  0.00    +0.000 A 
ATOM     24  C   UNL     1       3.872   4.770  19.147  0.00  0.00    +0.000 A 
BRANCH  23  25
ATOM     25  O   UNL     1       5.130   2.915  19.851  0.00  0.00    +0.000 OA
ATOM     26  H   UNL     1       5.829   3.581  19.771  0.00  0.00    +0.000 HD
ENDBRANCH  23  25
ENDBRANCH  11  19
BRANCH  10  27
ATOM     27  C   UNL     1       4.077   6.990  16.468  0.00  0.00    +0.000 C 
BRANCH  27  28
ATOM     28  C   UNL     1       5.289   6.076  16.407  0.00  0.00    +0.000 A 
ATOM     29  C   UNL     1       6.445   6.248  17.174  0.00  0.00    +0.000 A 
ATOM     30  C   UNL     1       7.480   5.308  17.127  0.00  0.00    +0.000 A 
ATOM     31  C   UNL     1       7.381   4.192  16.300  0.00  0.00    +0.000 A 
ATOM     32  C   UNL     1       6.260   4.029  15.494  0.00  0.00    +0.000 A 
ATOM     33  C   UNL     1       5.225   4.964  15.544  0.00  0.00    +0.000 A 
ENDBRANCH  27  28
ENDBRANCH  10  27
TORSDOF 5
ENDMDL
