MODEL 1
REMARK VINA RESULT:      -7.9      0.000      0.000
REMARK  Name = 
REMARK  5 active torsions:
REMARK  status: ('A' for Active; 'I' for Inactive)
REMARK    1  A    between atoms: C_2  and  C_12
REMARK    2  A    between atoms: N_3  and  C_4
REMARK    3  A    between atoms: C_4  and  C_5
REMARK    4  A    between atoms: N_17  and  C_18
REMARK    5  A    between atoms: C_18  and  C_19
REMARK                            x       y       z     vdW  Elec       q    Type
REMARK                         _______ _______ _______ _____ _____    ______ ____
ROOT
ATOM      1  C   UNL     1       3.153   2.958  18.711  0.00  0.00    +0.000 C 
ATOM      2  C   UNL     1       2.021   2.067  18.213  0.00  0.00    +0.000 C 
ATOM      3  C   UNL     1       0.932   2.239  19.260  0.00  0.00    +0.000 C 
ATOM      4  C   UNL     1       1.150   3.649  19.744  0.00  0.00    +0.000 C 
ATOM      5  O   UNL     1       0.339   4.310  20.372  0.00  0.00    +0.000 OA
ATOM      6  N   UNL     1       2.448   4.018  19.414  0.00  0.00    +0.000 N 
ENDROOT
BRANCH   1   8
ATOM      7  O   UNL     1       3.466   3.905  16.508  0.00  0.00    +0.000 OA
ATOM      8  C   UNL     1       3.994   3.454  17.522  0.00  0.00    +0.000 C 
ATOM      9  N   UNL     1       5.356   3.483  17.735  0.00  0.00    +0.000 N 
ATOM     10  H   UNL     1       5.696   3.312  18.675  0.00  0.00    +0.000 HD
BRANCH   9  11
ATOM     11  C   UNL     1       6.257   4.069  16.768  0.00  0.00    +0.000 C 
BRANCH  11  12
ATOM     12  C   UNL     1       6.779   5.404  17.231  0.00  0.00    +0.000 A 
ATOM     13  C   UNL     1       7.683   5.436  18.310  0.00  0.00    +0.000 A 
ATOM     14  C   UNL     1       8.219   6.643  18.764  0.00  0.00    +0.000 A 
ATOM     15  C   UNL     1       7.857   7.839  18.151  0.00  0.00    +0.000 A 
ATOM     16  C   UNL     1       6.945   7.829  17.097  0.00  0.00    +0.000 A 
ATOM     17  C   UNL     1       6.403   6.622  16.643  0.00  0.00    +0.000 A 
ATOM     18 CL   UNL     1       5.259   6.695  15.350  0.00  0.00    +0.000 Cl
ENDBRANCH  11  12
ENDBRANCH   9  11
ENDBRANCH   1   8
BRANCH   6  19
ATOM     19  C   UNL     1       3.139   5.123  20.065  0.00  0.00    +0.000 C 
BRANCH  19  20
ATOM     20  C   UNL     1       2.727   6.471  19.522  0.00  0.00    +0.000 A 
ATOM     21  C   UNL     1       1.939   7.354  20.275  0.00  0.00    +0.000 A 
ATOM     22  C   UNL     1       1.536   8.578  19.732  0.00  0.00    +0.000 A 
ATOM     23  C   UNL     1       1.920   8.919  18.440  0.00  0.00    +0.000 A 
ATOM     24  F   UNL     1       1.521  10.087  17.918  0.00  0.00    +0.000 F 
ATOM     25  C   UNL     1       2.705   8.065  17.680  0.00  0.00    +0.000 A 
ATOM     26  C   UNL     1       3.108   6.843  18.221  0.00  0.00    +0.000 A 
ENDBRANCH  19  20
ENDBRANCH   6  19
TORSDOF 5
ENDMDL
MODEL 2
REMARK VINA RESULT:      -7.7      2.751      5.613
REMARK  Name = 
REMARK  5 active torsions:
REMARK  status: ('A' for Active; 'I' for Inactive)
REMARK    1  A    between atoms: C_2  and  C_12
REMARK    2  A    between atoms: N_3  and  C_4
REMARK    3  A    between atoms: C_4  and  C_5
REMARK    4  A    between atoms: N_17  and  C_18
REMARK    5  A    between atoms: C_18  and  C_19
REMARK                            x       y       z     vdW  Elec       q    Type
REMARK                         _______ _______ _______ _____ _____    ______ ____
ROOT
ATOM      1  C   UNL     1       2.017   4.028  19.469  0.00  0.00    +0.000 C 
ATOM      2  C   UNL     1       1.577   4.116  20.926  0.00  0.00    +0.000 C 
ATOM      3  C   UNL     1       2.193   2.885  21.570  0.00  0.00    +0.000 C 
ATOM      4  C   UNL     1       3.451   2.679  20.766  0.00  0.00    +0.000 C 
ATOM      5  O   UNL     1       4.397   1.987  21.105  0.00  0.00    +0.000 OA
ATOM      6  N   UNL     1       3.299   3.347  19.558  0.00  0.00    +0.000 N 
ENDROOT
BRANCH   1   8
ATOM      7  O   UNL     1       1.914   5.629  17.659  0.00  0.00    +0.000 OA
ATOM      8  C   UNL     1       2.103   5.438  18.859  0.00  0.00    +0.000 C 
ATOM      9  N   UNL     1       2.265   6.463  19.766  0.00  0.00    +0.000 N 
ATOM     10  H   UNL     1       2.182   6.245  20.753  0.00  0.00    +0.000 HD
BRANCH   9  11
ATOM     11  C   UNL     1       2.207   7.848  19.354  0.00  0.00    +0.000 C 
BRANCH  11  12
ATOM     12  C   UNL     1       1.297   8.655  20.244  0.00  0.00    +0.000 A 
ATOM     13  C   UNL     1       1.360   8.450  21.635  0.00  0.00    +0.000 A 
ATOM     14  C   UNL     1       0.559   9.188  22.509  0.00  0.00    +0.000 A 
ATOM     15  C   UNL     1      -0.323  10.141  22.007  0.00  0.00    +0.000 A 
ATOM     16  C   UNL     1      -0.417  10.340  20.631  0.00  0.00    +0.000 A 
ATOM     17  C   UNL     1       0.381   9.598  19.753  0.00  0.00    +0.000 A 
ATOM     18 CL   UNL     1       0.188   9.885  18.060  0.00  0.00    +0.000 Cl
ENDBRANCH  11  12
ENDBRANCH   9  11
ENDBRANCH   1   8
BRANCH   6  19
ATOM     19  C   UNL     1       4.109   3.043  18.386  0.00  0.00    +0.000 C 
BRANCH  19  20
ATOM     20  C   UNL     1       5.067   4.156  18.031  0.00  0.00    +0.000 A 
ATOM     21  C   UNL     1       5.210   4.604  16.709  0.00  0.00    +0.000 A 
ATOM     22  C   UNL     1       6.134   5.607  16.400  0.00  0.00    +0.000 A 
ATOM     23  C   UNL     1       6.914   6.160  17.410  0.00  0.00    +0.000 A 
ATOM     24  F   UNL     1       7.808   7.112  17.109  0.00  0.00    +0.000 F 
ATOM     25  C   UNL     1       6.784   5.737  18.725  0.00  0.00    +0.000 A 
ATOM     26  C   UNL     1       5.862   4.737  19.034  0.00  0.00    +0.000 A 
ENDBRANCH  19  20
ENDBRANCH   6  19
TORSDOF 5
ENDMDL
MODEL 3
REMARK VINA RESULT:      -7.6      2.712      5.656
REMARK  Name = 
REMARK  5 active torsions:
REMARK  status: ('A' for Active; 'I' for Inactive)
REMARK    1  A    between atoms: C_2  and  C_12
REMARK    2  A    between atoms: N_3  and  C_4
REMARK    3  A    between atoms: C_4  and  C_5
REMARK    4  A    between atoms: N_17  and  C_18
REMARK    5  A    between atoms: C_18  and  C_19
REMARK                            x       y       z     vdW  Elec       q    Type
REMARK                         _______ _______ _______ _____ _____    ______ ____
ROOT
ATOM      1  C   UNL     1       2.014   4.324  18.552  0.00  0.00    +0.000 C 
ATOM      2  C   UNL     1       1.507   3.484  19.718  0.00  0.00    +0.000 C 
ATOM      3  C   UNL     1       1.808   2.054  19.298  0.00  0.00    +0.000 C 
ATOM      4  C   UNL     1       3.045   2.207  18.450  0.00  0.00    +0.000 C 
ATOM      5  O   UNL     1       3.799   1.300  18.139  0.00  0.00    +0.000 OA
ATOM      6  N   UNL     1       3.116   3.530  18.033  0.00  0.00    +0.000 N 
ENDROOT
BRANCH   1   8
ATOM      7  O   UNL     1       3.211   5.854  19.994  0.00  0.00    +0.000 OA
ATOM      8  C   UNL     1       2.433   5.718  19.051  0.00  0.00    +0.000 C 
ATOM      9  N   UNL     1       1.991   6.776  18.286  0.00  0.00    +0.000 N 
ATOM     10  H   UNL     1       1.547   6.570  17.397  0.00  0.00    +0.000 HD
BRANCH   9  11
ATOM     11  C   UNL     1       2.433   8.128  18.544  0.00  0.00    +0.000 C 
BRANCH  11  12
ATOM     12  C   UNL     1       1.286   9.022  18.942  0.00  0.00    +0.000 A 
ATOM     13  C   UNL     1       0.640   9.773  17.942  0.00  0.00    +0.000 A 
ATOM     14  C   UNL     1      -0.445  10.598  18.249  0.00  0.00    +0.000 A 
ATOM     15  C   UNL     1      -0.898  10.689  19.562  0.00  0.00    +0.000 A 
ATOM     16  C   UNL     1      -0.255   9.972  20.569  0.00  0.00    +0.000 A 
ATOM     17  C   UNL     1       0.835   9.149  20.264  0.00  0.00    +0.000 A 
ATOM     18 CL   UNL     1       1.596   8.312  21.571  0.00  0.00    +0.000 Cl
ENDBRANCH  11  12
ENDBRANCH   9  11
ENDBRANCH   1   8
BRANCH   6  19
ATOM     19  C   UNL     1       3.919   3.951  16.893  0.00  0.00    +0.000 C 
BRANCH  19  20
ATOM     20  C   UNL     1       5.095   4.812  17.292  0.00  0.00    +0.000 A 
ATOM     21  C   UNL     1       5.980   4.417  18.307  0.00  0.00    +0.000 A 
ATOM     22  C   UNL     1       7.035   5.251  18.686  0.00  0.00    +0.000 A 
ATOM     23  C   UNL     1       7.206   6.477  18.054  0.00  0.00    +0.000 A 
ATOM     24  F   UNL     1       8.211   7.281  18.430  0.00  0.00    +0.000 F 
ATOM     25  C   UNL     1       6.348   6.886  17.043  0.00  0.00    +0.000 A 
ATOM     26  C   UNL     1       5.295   6.054  16.664  0.00  0.00    +0.000 A 
ENDBRANCH  19  20
ENDBRANCH   6  19
TORSDOF 5
ENDMDL
MODEL 4
REMARK VINA RESULT:      -7.6      2.758      5.754
REMARK  Name = 
REMARK  5 active torsions:
REMARK  status: ('A' for Active; 'I' for Inactive)
REMARK    1  A    between atoms: C_2  and  C_12
REMARK    2  A    between atoms: N_3  and  C_4
REMARK    3  A    between atoms: C_4  and  C_5
REMARK    4  A    between atoms: N_17  and  C_18
REMARK    5  A    between atoms: C_18  and  C_19
REMARK                            x       y       z     vdW  Elec       q    Type
REMARK                         _______ _______ _______ _____ _____    ______ ____
ROOT
ATOM      1  C   UNL     1       2.106   4.525  18.207  0.00  0.00    +0.000 C 
ATOM      2  C   UNL     1       1.482   3.656  19.294  0.00  0.00    +0.000 C 
ATOM      3  C   UNL     1       1.806   2.237  18.859  0.00  0.00    +0.000 C 
ATOM      4  C   UNL     1       3.118   2.398  18.135  0.00  0.00    +0.000 C 
ATOM      5  O   UNL     1       3.889   1.491  17.868  0.00  0.00    +0.000 OA
ATOM      6  N   UNL     1       3.243   3.732  17.769  0.00  0.00    +0.000 N 
ENDROOT
BRANCH   1   8
ATOM      7  O   UNL     1       3.274   5.997  19.730  0.00  0.00    +0.000 OA
ATOM      8  C   UNL     1       2.491   5.897  18.787  0.00  0.00    +0.000 C 
ATOM      9  N   UNL     1       2.012   6.987  18.092  0.00  0.00    +0.000 N 
ATOM     10  H   UNL     1       1.566   6.823  17.196  0.00  0.00    +0.000 HD
BRANCH   9  11
ATOM     11  C   UNL     1       2.419   8.333  18.428  0.00  0.00    +0.000 C 
BRANCH  11  12
ATOM     12  C   UNL     1       1.254   9.166  18.894  0.00  0.00    +0.000 A 
ATOM     13  C   UNL     1       0.562   9.945  17.947  0.00  0.00    +0.000 A 
ATOM     14  C   UNL     1      -0.542  10.717  18.317  0.00  0.00    +0.000 A 
ATOM     15  C   UNL     1      -0.969  10.727  19.642  0.00  0.00    +0.000 A 
ATOM     16  C   UNL     1      -0.282   9.982  20.598  0.00  0.00    +0.000 A 
ATOM     17  C   UNL     1       0.827   9.212  20.230  0.00  0.00    +0.000 A 
ATOM     18 CL   UNL     1       1.642   8.336  21.477  0.00  0.00    +0.000 Cl
ENDBRANCH  11  12
ENDBRANCH   9  11
ENDBRANCH   1   8
BRANCH   6  19
ATOM     19  C   UNL     1       4.154   4.176  16.723  0.00  0.00    +0.000 C 
BRANCH  19  20
ATOM     20  C   UNL     1       5.278   5.036  17.252  0.00  0.00    +0.000 A 
ATOM     21  C   UNL     1       5.510   6.326  16.753  0.00  0.00    +0.000 A 
ATOM     22  C   UNL     1       6.584   7.085  17.230  0.00  0.00    +0.000 A 
ATOM     23  C   UNL     1       7.423   6.554  18.203  0.00  0.00    +0.000 A 
ATOM     24  F   UNL     1       8.459   7.279  18.648  0.00  0.00    +0.000 F 
ATOM     25  C   UNL     1       7.209   5.284  18.716  0.00  0.00    +0.000 A 
ATOM     26  C   UNL     1       6.137   4.527  18.242  0.00  0.00    +0.000 A 
ENDBRANCH  19  20
ENDBRANCH   6  19
TORSDOF 5
ENDMDL
MODEL 5
REMARK VINA RESULT:      -7.5      2.301      5.246
REMARK  Name = 
REMARK  5 active torsions:
REMARK  status: ('A' for Active; 'I' for Inactive)
REMARK    1  A    between atoms: C_2  and  C_12
REMARK    2  A    between atoms: N_3  and  C_4
REMARK    3  A    between atoms: C_4  and  C_5
REMARK    4  A    between atoms: N_17  and  C_18
REMARK    5  A    between atoms: C_18  and  C_19
REMARK                            x       y       z     vdW  Elec       q    Type
REMARK                         _______ _______ _______ _____ _____    ______ ____
ROOT
ATOM      1  C   UNL     1       5.203   4.612  16.093  0.00  0.00    +0.000 C 
ATOM      2  C   UNL     1       6.554   4.030  16.493  0.00  0.00    +0.000 C 
ATOM      3  C   UNL     1       7.477   5.238  16.527  0.00  0.00    +0.000 C 
ATOM      4  C   UNL     1       6.551   6.358  16.924  0.00  0.00    +0.000 C 
ATOM      5  O   UNL     1       6.905   7.445  17.349  0.00  0.00    +0.000 OA
ATOM      6  N   UNL     1       5.251   5.956  16.646  0.00  0.00    +0.000 N 
ENDROOT
BRANCH   1   8
ATOM      7  O   UNL     1       2.911   3.857  16.261  0.00  0.00    +0.000 OA
ATOM      8  C   UNL     1       4.067   3.745  16.664  0.00  0.00    +0.000 C 
ATOM      9  N   UNL     1       4.463   2.759  17.542  0.00  0.00    +0.000 N 
ATOM     10  H   UNL     1       5.457   2.583  17.647  0.00  0.00    +0.000 HD
BRANCH   9  11
ATOM     11  C   UNL     1       3.529   1.772  18.038  0.00  0.00    +0.000 C 
BRANCH  11  12
ATOM     12  C   UNL     1       2.778   2.274  19.244  0.00  0.00    +0.000 A 
ATOM     13  C   UNL     1       1.455   2.725  19.073  0.00  0.00    +0.000 A 
ATOM     14  C   UNL     1       0.703   3.176  20.160  0.00  0.00    +0.000 A 
ATOM     15  C   UNL     1       1.262   3.190  21.435  0.00  0.00    +0.000 A 
ATOM     16  C   UNL     1       2.578   2.771  21.619  0.00  0.00    +0.000 A 
ATOM     17  C   UNL     1       3.336   2.323  20.530  0.00  0.00    +0.000 A 
ATOM     18 CL   UNL     1       4.968   1.845  20.835  0.00  0.00    +0.000 Cl
ENDBRANCH  11  12
ENDBRANCH   9  11
ENDBRANCH   1   8
BRANCH   6  19
ATOM     19  C   UNL     1       4.150   6.900  16.510  0.00  0.00    +0.000 C 
BRANCH  19  20
ATOM     20  C   UNL     1       3.388   7.099  17.800  0.00  0.00    +0.000 A 
ATOM     21  C   UNL     1       3.429   6.146  18.829  0.00  0.00    +0.000 A 
ATOM     22  C   UNL     1       2.681   6.334  19.995  0.00  0.00    +0.000 A 
ATOM     23  C   UNL     1       1.894   7.472  20.133  0.00  0.00    +0.000 A 
ATOM     24  F   UNL     1       1.168   7.643  21.247  0.00  0.00    +0.000 F 
ATOM     25  C   UNL     1       1.844   8.431  19.132  0.00  0.00    +0.000 A 
ATOM     26  C   UNL     1       2.590   8.244  17.968  0.00  0.00    +0.000 A 
ENDBRANCH  19  20
ENDBRANCH   6  19
TORSDOF 5
ENDMDL
MODEL 6
REMARK VINA RESULT:      -7.4      2.216      5.211
REMARK  Name = 
REMARK  5 active torsions:
REMARK  status: ('A' for Active; 'I' for Inactive)
REMARK    1  A    between atoms: C_2  and  C_12
REMARK    2  A    between atoms: N_3  and  C_4
REMARK    3  A    between atoms: C_4  and  C_5
REMARK    4  A    between atoms: N_17  and  C_18
REMARK    5  A    between atoms: C_18  and  C_19
REMARK                            x       y       z     vdW  Elec       q    Type
REMARK                         _______ _______ _______ _____ _____    ______ ____
ROOT
ATOM      1  C   UNL     1       6.263   4.838  17.845  0.00  0.00    +0.000 C 
ATOM      2  C   UNL     1       7.652   5.393  18.140  0.00  0.00    +0.000 C 
ATOM      3  C   UNL     1       7.742   6.635  17.269  0.00  0.00    +0.000 C 
ATOM      4  C   UNL     1       6.312   7.106  17.205  0.00  0.00    +0.000 C 
ATOM      5  O   UNL     1       5.954   8.219  16.856  0.00  0.00    +0.000 OA
ATOM      6  N   UNL     1       5.494   6.033  17.535  0.00  0.00    +0.000 N 
ENDROOT
BRANCH   1   8
ATOM      7  O   UNL     1       5.705   4.569  20.184  0.00  0.00    +0.000 OA
ATOM      8  C   UNL     1       5.737   4.061  19.065  0.00  0.00    +0.000 C 
ATOM      9  N   UNL     1       5.187   2.828  18.785  0.00  0.00    +0.000 N 
ATOM     10  H   UNL     1       5.043   2.578  17.813  0.00  0.00    +0.000 HD
BRANCH   9  11
ATOM     11  C   UNL     1       4.516   2.054  19.806  0.00  0.00    +0.000 C 
BRANCH  11  12
ATOM     12  C   UNL     1       3.081   2.482  19.975  0.00  0.00    +0.000 A 
ATOM     13  C   UNL     1       2.626   2.819  21.264  0.00  0.00    +0.000 A 
ATOM     14  C   UNL     1       1.313   3.247  21.475  0.00  0.00    +0.000 A 
ATOM     15  C   UNL     1       0.432   3.340  20.403  0.00  0.00    +0.000 A 
ATOM     16  C   UNL     1       0.857   2.987  19.123  0.00  0.00    +0.000 A 
ATOM     17  C   UNL     1       2.170   2.554  18.910  0.00  0.00    +0.000 A 
ATOM     18 CL   UNL     1       2.614   2.109  17.299  0.00  0.00    +0.000 Cl
ENDBRANCH  11  12
ENDBRANCH   9  11
ENDBRANCH   1   8
BRANCH   6  19
ATOM     19  C   UNL     1       4.080   5.989  17.188  0.00  0.00    +0.000 C 
BRANCH  19  20
ATOM     20  C   UNL     1       3.215   6.755  18.161  0.00  0.00    +0.000 A 
ATOM     21  C   UNL     1       2.871   6.220  19.412  0.00  0.00    +0.000 A 
ATOM     22  C   UNL     1       2.034   6.932  20.277  0.00  0.00    +0.000 A 
ATOM     23  C   UNL     1       1.542   8.174  19.893  0.00  0.00    +0.000 A 
ATOM     24  F   UNL     1       0.729   8.847  20.719  0.00  0.00    +0.000 F 
ATOM     25  C   UNL     1       1.874   8.725  18.664  0.00  0.00    +0.000 A 
ATOM     26  C   UNL     1       2.710   8.016  17.801  0.00  0.00    +0.000 A 
ENDBRANCH  19  20
ENDBRANCH   6  19
TORSDOF 5
ENDMDL
MODEL 7
REMARK VINA RESULT:      -7.3      2.669      5.597
REMARK  Name = 
REMARK  5 active torsions:
REMARK  status: ('A' for Active; 'I' for Inactive)
REMARK    1  A    between atoms: C_2  and  C_12
REMARK    2  A    between atoms: N_3  and  C_4
REMARK    3  A    between atoms: C_4  and  C_5
REMARK    4  A    between atoms: N_17  and  C_18
REMARK    5  A    between atoms: C_18  and  C_19
REMARK                            x       y       z     vdW  Elec       q    Type
REMARK                         _______ _______ _______ _____ _____    ______ ____
ROOT
ATOM      1  C   UNL     1       1.947   4.342  18.691  0.00  0.00    +0.000 C 
ATOM      2  C   UNL     1       1.490   3.434  19.827  0.00  0.00    +0.000 C 
ATOM      3  C   UNL     1       1.767   2.032  19.309  0.00  0.00    +0.000 C 
ATOM      4  C   UNL     1       2.965   2.234  18.417  0.00  0.00    +0.000 C 
ATOM      5  O   UNL     1       3.702   1.347  18.019  0.00  0.00    +0.000 OA
ATOM      6  N   UNL     1       3.022   3.580  18.077  0.00  0.00    +0.000 N 
ENDROOT
BRANCH   1   8
ATOM      7  O   UNL     1       3.299   5.789  20.080  0.00  0.00    +0.000 OA
ATOM      8  C   UNL     1       2.393   5.703  19.253  0.00  0.00    +0.000 C 
ATOM      9  N   UNL     1       1.807   6.804  18.666  0.00  0.00    +0.000 N 
ATOM     10  H   UNL     1       1.242   6.659  17.836  0.00  0.00    +0.000 HD
BRANCH   9  11
ATOM     11  C   UNL     1       2.240   8.147  18.982  0.00  0.00    +0.000 C 
BRANCH  11  12
ATOM     12  C   UNL     1       1.320   8.808  19.976  0.00  0.00    +0.000 A 
ATOM     13  C   UNL     1       1.499   8.533  21.345  0.00  0.00    +0.000 A 
ATOM     14  C   UNL     1       0.692   9.138  22.312  0.00  0.00    +0.000 A 
ATOM     15  C   UNL     1      -0.309  10.024  21.926  0.00  0.00    +0.000 A 
ATOM     16  C   UNL     1      -0.517  10.289  20.573  0.00  0.00    +0.000 A 
ATOM     17  C   UNL     1       0.287   9.681  19.603  0.00  0.00    +0.000 A 
ATOM     18 CL   UNL     1      -0.049  10.040  17.946  0.00  0.00    +0.000 Cl
ENDBRANCH  11  12
ENDBRANCH   9  11
ENDBRANCH   1   8
BRANCH   6  19
ATOM     19  C   UNL     1       3.775   4.068  16.929  0.00  0.00    +0.000 C 
BRANCH  19  20
ATOM     20  C   UNL     1       4.949   4.932  17.325  0.00  0.00    +0.000 A 
ATOM     21  C   UNL     1       5.112   6.226  16.808  0.00  0.00    +0.000 A 
ATOM     22  C   UNL     1       6.231   6.989  17.157  0.00  0.00    +0.000 A 
ATOM     23  C   UNL     1       7.184   6.460  18.018  0.00  0.00    +0.000 A 
ATOM     24  F   UNL     1       8.262   7.189  18.340  0.00  0.00    +0.000 F 
ATOM     25  C   UNL     1       7.041   5.185  18.547  0.00  0.00    +0.000 A 
ATOM     26  C   UNL     1       5.925   4.424  18.200  0.00  0.00    +0.000 A 
ENDBRANCH  19  20
ENDBRANCH   6  19
TORSDOF 5
ENDMDL
MODEL 8
REMARK VINA RESULT:      -7.2      3.071      6.063
REMARK  Name = 
REMARK  5 active torsions:
REMARK  status: ('A' for Active; 'I' for Inactive)
REMARK    1  A    between atoms: C_2  and  C_12
REMARK    2  A    between atoms: N_3  and  C_4
REMARK    3  A    between atoms: C_4  and  C_5
REMARK    4  A    between atoms: N_17  and  C_18
REMARK    5  A    between atoms: C_18  and  C_19
REMARK                            x       y       z     vdW  Elec       q    Type
REMARK                         _______ _______ _______ _____ _____    ______ ____
ROOT
ATOM      1  C   UNL     1       2.635   5.141  18.569  0.00  0.00    +0.000 C 
ATOM      2  C   UNL     1       1.547   4.409  17.790  0.00  0.00    +0.000 C 
ATOM      3  C   UNL     1       2.293   3.289  17.083  0.00  0.00    +0.000 C 
ATOM      4  C   UNL     1       3.422   2.984  18.034  0.00  0.00    +0.000 C 
ATOM      5  O   UNL     1       4.101   1.971  18.017  0.00  0.00    +0.000 OA
ATOM      6  N   UNL     1       3.589   4.085  18.865  0.00  0.00    +0.000 N 
ENDROOT
BRANCH   1   8
ATOM      7  O   UNL     1       1.675   5.135  20.789  0.00  0.00    +0.000 OA
ATOM      8  C   UNL     1       2.032   5.803  19.820  0.00  0.00    +0.000 C 
ATOM      9  N   UNL     1       2.053   7.181  19.826  0.00  0.00    +0.000 N 
ATOM     10  H   UNL     1       2.570   7.654  19.093  0.00  0.00    +0.000 HD
BRANCH   9  11
ATOM     11  C   UNL     1       1.663   7.935  20.997  0.00  0.00    +0.000 C 
BRANCH  11  12
ATOM     12  C   UNL     1       0.855   9.153  20.630  0.00  0.00    +0.000 A 
ATOM     13  C   UNL     1       0.878   9.599  19.295  0.00  0.00    +0.000 A 
ATOM     14  C   UNL     1       0.128  10.707  18.894  0.00  0.00    +0.000 A 
ATOM     15  C   UNL     1      -0.653  11.391  19.821  0.00  0.00    +0.000 A 
ATOM     16  C   UNL     1      -0.669  10.978  21.152  0.00  0.00    +0.000 A 
ATOM     17  C   UNL     1       0.085   9.871  21.558  0.00  0.00    +0.000 A 
ATOM     18 CL   UNL     1       0.035   9.438  23.230  0.00  0.00    +0.000 Cl
ENDBRANCH  11  12
ENDBRANCH   9  11
ENDBRANCH   1   8
BRANCH   6  19
ATOM     19  C   UNL     1       4.816   4.323  19.614  0.00  0.00    +0.000 C 
BRANCH  19  20
ATOM     20  C   UNL     1       5.749   5.285  18.916  0.00  0.00    +0.000 A 
ATOM     21  C   UNL     1       7.056   5.503  19.380  0.00  0.00    +0.000 A 
ATOM     22  C   UNL     1       7.885   6.430  18.741  0.00  0.00    +0.000 A 
ATOM     23  C   UNL     1       7.410   7.138  17.643  0.00  0.00    +0.000 A 
ATOM     24  F   UNL     1       8.204   8.036  17.042  0.00  0.00    +0.000 F 
ATOM     25  C   UNL     1       6.125   6.934  17.163  0.00  0.00    +0.000 A 
ATOM     26  C   UNL     1       5.297   6.009  17.799  0.00  0.00    +0.000 A 
ENDBRANCH  19  20
ENDBRANCH   6  19
TORSDOF 5
ENDMDL
MODEL 9
REMARK VINA RESULT:      -7.2      3.152      6.132
REMARK  Name = 
REMARK  5 active torsions:
REMARK  status: ('A' for Active; 'I' for Inactive)
REMARK    1  A    between atoms: C_2  and  C_12
REMARK    2  A    between atoms: N_3  and  C_4
REMARK    3  A    between atoms: C_4  and  C_5
REMARK    4  A    between atoms: N_17  and  C_18
REMARK    5  A    between atoms: C_18  and  C_19
REMARK                            x       y       z     vdW  Elec       q    Type
REMARK                         _______ _______ _______ _____ _____    ______ ____
ROOT
ATOM      1  C   UNL     1       2.255   4.428  18.983  0.00  0.00    +0.000 C 
ATOM      2  C   UNL     1       1.102   3.434  18.892  0.00  0.00    +0.000 C 
ATOM      3  C   UNL     1       1.723   2.211  18.238  0.00  0.00    +0.000 C 
ATOM      4  C   UNL     1       3.152   2.264  18.714  0.00  0.00    +0.000 C 
ATOM      5  O   UNL     1       3.941   1.335  18.674  0.00  0.00    +0.000 OA
ATOM      6  N   UNL     1       3.417   3.565  19.124  0.00  0.00    +0.000 N 
ENDROOT
BRANCH   1   8
ATOM      7  O   UNL     1       2.140   4.985  21.334  0.00  0.00    +0.000 OA
ATOM      8  C   UNL     1       2.039   5.378  20.173  0.00  0.00    +0.000 C 
ATOM      9  N   UNL     1       1.866   6.705  19.844  0.00  0.00    +0.000 N 
ATOM     10  H   UNL     1       2.023   6.983  18.881  0.00  0.00    +0.000 HD
BRANCH   9  11
ATOM     11  C   UNL     1       1.806   7.732  20.860  0.00  0.00    +0.000 C 
BRANCH  11  12
ATOM     12  C   UNL     1       1.028   8.934  20.392  0.00  0.00    +0.000 A 
ATOM     13  C   UNL     1       1.171   9.349  19.054  0.00  0.00    +0.000 A 
ATOM     14  C   UNL     1       0.455  10.441  18.558  0.00  0.00    +0.000 A 
ATOM     15  C   UNL     1      -0.413  11.139  19.393  0.00  0.00    +0.000 A 
ATOM     16  C   UNL     1      -0.549  10.758  20.726  0.00  0.00    +0.000 A 
ATOM     17  C   UNL     1       0.171   9.667  21.226  0.00  0.00    +0.000 A 
ATOM     18 CL   UNL     1      -0.032   9.273  22.897  0.00  0.00    +0.000 Cl
ENDBRANCH  11  12
ENDBRANCH   9  11
ENDBRANCH   1   8
BRANCH   6  19
ATOM     19  C   UNL     1       4.771   4.086  19.252  0.00  0.00    +0.000 C 
BRANCH  19  20
ATOM     20  C   UNL     1       5.451   4.283  17.917  0.00  0.00    +0.000 A 
ATOM     21  C   UNL     1       6.823   4.563  17.829  0.00  0.00    +0.000 A 
ATOM     22  C   UNL     1       7.419   4.783  16.583  0.00  0.00    +0.000 A 
ATOM     23  C   UNL     1       6.646   4.723  15.429  0.00  0.00    +0.000 A 
ATOM     24  F   UNL     1       7.218   4.947  14.237  0.00  0.00    +0.000 F 
ATOM     25  C   UNL     1       5.289   4.440  15.492  0.00  0.00    +0.000 A 
ATOM     26  C   UNL     1       4.694   4.221  16.734  0.00  0.00    +0.000 A 
ENDBRANCH  19  20
ENDBRANCH   6  19
TORSDOF 5
ENDMDL
