MODEL 1
REMARK VINA RESULT:      -7.8      0.000      0.000
REMARK  Name = 
REMARK  3 active torsions:
REMARK  status: ('A' for Active; 'I' for Inactive)
REMARK    1  A    between atoms: C_2  and  O_3
REMARK    2  A    between atoms: C_2  and  C_4
REMARK    3  A    between atoms: C_6  and  C_7
REMARK                            x       y       z     vdW  Elec       q    Type
REMARK                         _______ _______ _______ _____ _____    ______ ____
ROOT
ATOM      1  C   UNL     1       1.776   5.371  20.408  0.00  0.00    +0.000 A 
ATOM      2  C   UNL     1       1.149   6.457  21.030  0.00  0.00    +0.000 A 
ATOM      3  C   UNL     1       1.331   7.730  20.517  0.00  0.00    +0.000 A 
ATOM      4  N   UNL     1       2.115   7.942  19.436  0.00  0.00    +0.000 NA
ATOM      5  C   UNL     1       2.748   6.914  18.849  0.00  0.00    +0.000 A 
ATOM      6  C   UNL     1       3.585   7.199  17.778  0.00  0.00    +0.000 A 
ATOM      7  C   UNL     1       4.281   6.200  17.095  0.00  0.00    +0.000 A 
ATOM      8  C   UNL     1       4.123   4.879  17.484  0.00  0.00    +0.000 A 
ATOM      9 CL   UNL     1       4.954   3.633  16.638  0.00  0.00    +0.000 Cl
ATOM     10  C   UNL     1       3.294   4.566  18.559  0.00  0.00    +0.000 A 
ATOM     11  C   UNL     1       2.609   5.579  19.278  0.00  0.00    +0.000 A 
ENDROOT
BRANCH   3  12
ATOM     12  C   UNL     1       0.701   8.930  21.110  0.00  0.00    +0.000 A 
ATOM     13  C   UNL     1       0.181   8.926  22.420  0.00  0.00    +0.000 A 
ATOM     14  C   UNL     1      -0.428  10.060  22.969  0.00  0.00    +0.000 A 
ATOM     15  C   UNL     1      -0.518  11.226  22.221  0.00  0.00    +0.000 A 
ATOM     16 BR   UNL     1      -1.336  12.759  22.962  0.00  0.00    +0.000 Br
ATOM     17  C   UNL     1      -0.006  11.269  20.928  0.00  0.00    +0.000 A 
ATOM     18  C   UNL     1       0.598  10.130  20.381  0.00  0.00    +0.000 A 
ENDBRANCH   3  12
BRANCH   1  20
ATOM     19  O   UNL     1       2.333   3.637  21.948  0.00  0.00    +0.000 OA
ATOM     20  C   UNL     1       1.633   4.029  21.034  0.00  0.00    +0.000 C 
BRANCH  20  21
ATOM     21  O   UNL     1       0.636   3.281  20.511  0.00  0.00    +0.000 OA
ATOM     22  H   UNL     1       0.749   2.980  19.592  0.00  0.00    +0.000 HD
ENDBRANCH  20  21
ENDBRANCH   1  20
TORSDOF 3
ENDMDL
MODEL 2
REMARK VINA RESULT:      -7.7      0.120      1.057
REMARK  Name = 
REMARK  3 active torsions:
REMARK  status: ('A' for Active; 'I' for Inactive)
REMARK    1  A    between atoms: C_2  and  O_3
REMARK    2  A    between atoms: C_2  and  C_4
REMARK    3  A    between atoms: C_6  and  C_7
REMARK                            x       y       z     vdW  Elec       q    Type
REMARK                         _______ _______ _______ _____ _____    ______ ____
ROOT
ATOM      1  C   UNL     1       1.765   5.463  20.327  0.00  0.00    +0.000 A 
ATOM      2  C   UNL     1       1.133   6.542  20.954  0.00  0.00    +0.000 A 
ATOM      3  C   UNL     1       1.315   7.820  20.453  0.00  0.00    +0.000 A 
ATOM      4  N   UNL     1       2.105   8.043  19.378  0.00  0.00    +0.000 NA
ATOM      5  C   UNL     1       2.744   7.021  18.786  0.00  0.00    +0.000 A 
ATOM      6  C   UNL     1       3.586   7.317  17.723  0.00  0.00    +0.000 A 
ATOM      7  C   UNL     1       4.288   6.325  17.036  0.00  0.00    +0.000 A 
ATOM      8  C   UNL     1       4.131   5.000  17.412  0.00  0.00    +0.000 A 
ATOM      9 CL   UNL     1       4.968   3.763  16.560  0.00  0.00    +0.000 Cl
ATOM     10  C   UNL     1       3.296   4.676  18.479  0.00  0.00    +0.000 A 
ATOM     11  C   UNL     1       2.604   5.681  19.203  0.00  0.00    +0.000 A 
ENDROOT
BRANCH   3  12
ATOM     12  C   UNL     1       0.679   9.013  21.053  0.00  0.00    +0.000 A 
ATOM     13  C   UNL     1       0.617  10.245  20.371  0.00  0.00    +0.000 A 
ATOM     14  C   UNL     1       0.028  11.374  20.952  0.00  0.00    +0.000 A 
ATOM     15  C   UNL     1      -0.522  11.289  22.224  0.00  0.00    +0.000 A 
ATOM     16 BR   UNL     1      -1.322  12.811  23.007  0.00  0.00    +0.000 Br
ATOM     17  C   UNL     1      -0.489  10.085  22.921  0.00  0.00    +0.000 A 
ATOM     18  C   UNL     1       0.106   8.960  22.339  0.00  0.00    +0.000 A 
ENDBRANCH   3  12
BRANCH   1  20
ATOM     19  O   UNL     1       2.348   3.698  21.821  0.00  0.00    +0.000 OA
ATOM     20  C   UNL     1       1.621   4.115  20.940  0.00  0.00    +0.000 C 
BRANCH  20  21
ATOM     21  O   UNL     1       0.591   3.392  20.446  0.00  0.00    +0.000 OA
ATOM     22  H   UNL     1      -0.233   3.875  20.259  0.00  0.00    +0.000 HD
ENDBRANCH  20  21
ENDBRANCH   1  20
TORSDOF 3
ENDMDL
MODEL 3
REMARK VINA RESULT:      -7.5      1.426      2.076
REMARK  Name = 
REMARK  3 active torsions:
REMARK  status: ('A' for Active; 'I' for Inactive)
REMARK    1  A    between atoms: C_2  and  O_3
REMARK    2  A    between atoms: C_2  and  C_4
REMARK    3  A    between atoms: C_6  and  C_7
REMARK                            x       y       z     vdW  Elec       q    Type
REMARK                         _______ _______ _______ _____ _____    ______ ____
ROOT
ATOM      1  C   UNL     1       2.893   4.695  18.732  0.00  0.00    +0.000 A 
ATOM      2  C   UNL     1       2.207   5.662  19.475  0.00  0.00    +0.000 A 
ATOM      3  C   UNL     1       2.356   7.000  19.149  0.00  0.00    +0.000 A 
ATOM      4  N   UNL     1       3.164   7.386  18.135  0.00  0.00    +0.000 NA
ATOM      5  C   UNL     1       3.852   6.471  17.435  0.00  0.00    +0.000 A 
ATOM      6  C   UNL     1       4.709   6.929  16.444  0.00  0.00    +0.000 A 
ATOM      7  C   UNL     1       5.463   6.058  15.654  0.00  0.00    +0.000 A 
ATOM      8  C   UNL     1       5.344   4.691  15.852  0.00  0.00    +0.000 A 
ATOM      9 CL   UNL     1       6.245   3.603  14.872  0.00  0.00    +0.000 Cl
ATOM     10  C   UNL     1       4.495   4.204  16.844  0.00  0.00    +0.000 A 
ATOM     11  C   UNL     1       3.751   5.085  17.671  0.00  0.00    +0.000 A 
ENDROOT
BRANCH   3  12
ATOM     12  C   UNL     1       1.664   8.084  19.879  0.00  0.00    +0.000 A 
ATOM     13  C   UNL     1       1.362   7.981  21.252  0.00  0.00    +0.000 A 
ATOM     14  C   UNL     1       0.692   9.004  21.932  0.00  0.00    +0.000 A 
ATOM     15  C   UNL     1       0.321  10.158  21.254  0.00  0.00    +0.000 A 
ATOM     16 BR   UNL     1      -0.578  11.542  22.173  0.00  0.00    +0.000 Br
ATOM     17  C   UNL     1       0.614  10.298  19.901  0.00  0.00    +0.000 A 
ATOM     18  C   UNL     1       1.280   9.270  19.223  0.00  0.00    +0.000 A 
ENDBRANCH   3  12
BRANCH   1  20
ATOM     19  O   UNL     1       1.950   2.504  18.722  0.00  0.00    +0.000 OA
ATOM     20  C   UNL     1       2.782   3.275  19.162  0.00  0.00    +0.000 C 
BRANCH  20  21
ATOM     21  O   UNL     1       3.705   2.902  20.075  0.00  0.00    +0.000 OA
ATOM     22  H   UNL     1       3.705   1.965  20.342  0.00  0.00    +0.000 HD
ENDBRANCH  20  21
ENDBRANCH   1  20
TORSDOF 3
ENDMDL
MODEL 4
REMARK VINA RESULT:      -7.5      1.229      1.888
REMARK  Name = 
REMARK  3 active torsions:
REMARK  status: ('A' for Active; 'I' for Inactive)
REMARK    1  A    between atoms: C_2  and  O_3
REMARK    2  A    between atoms: C_2  and  C_4
REMARK    3  A    between atoms: C_6  and  C_7
REMARK                            x       y       z     vdW  Elec       q    Type
REMARK                         _______ _______ _______ _____ _____    ______ ____
ROOT
ATOM      1  C   UNL     1       2.775   4.813  19.144  0.00  0.00    +0.000 A 
ATOM      2  C   UNL     1       2.077   5.805  19.844  0.00  0.00    +0.000 A 
ATOM      3  C   UNL     1       2.194   7.126  19.445  0.00  0.00    +0.000 A 
ATOM      4  N   UNL     1       2.981   7.474  18.402  0.00  0.00    +0.000 NA
ATOM      5  C   UNL     1       3.681   6.537  17.742  0.00  0.00    +0.000 A 
ATOM      6  C   UNL     1       4.516   6.959  16.717  0.00  0.00    +0.000 A 
ATOM      7  C   UNL     1       5.278   6.063  15.966  0.00  0.00    +0.000 A 
ATOM      8  C   UNL     1       5.190   4.707  16.237  0.00  0.00    +0.000 A 
ATOM      9 CL   UNL     1       6.103   3.587  15.304  0.00  0.00    +0.000 Cl
ATOM     10  C   UNL     1       4.364   4.256  17.264  0.00  0.00    +0.000 A 
ATOM     11  C   UNL     1       3.611   5.164  18.053  0.00  0.00    +0.000 A 
ENDROOT
BRANCH   3  12
ATOM     12  C   UNL     1       1.488   8.233  20.126  0.00  0.00    +0.000 A 
ATOM     13  C   UNL     1       1.095   9.399  19.439  0.00  0.00    +0.000 A 
ATOM     14  C   UNL     1       0.441  10.449  20.094  0.00  0.00    +0.000 A 
ATOM     15  C   UNL     1       0.156  10.347  21.449  0.00  0.00    +0.000 A 
ATOM     16 BR   UNL     1      -0.731  11.762  22.332  0.00  0.00    +0.000 Br
ATOM     17  C   UNL     1       0.519   9.205  22.156  0.00  0.00    +0.000 A 
ATOM     18  C   UNL     1       1.178   8.160  21.498  0.00  0.00    +0.000 A 
ENDBRANCH   3  12
BRANCH   1  20
ATOM     19  O   UNL     1       3.509   2.937  20.421  0.00  0.00    +0.000 OA
ATOM     20  C   UNL     1       2.699   3.416  19.650  0.00  0.00    +0.000 C 
BRANCH  20  21
ATOM     21  O   UNL     1       1.632   2.723  19.195  0.00  0.00    +0.000 OA
ATOM     22  H   UNL     1       0.762   2.970  19.556  0.00  0.00    +0.000 HD
ENDBRANCH  20  21
ENDBRANCH   1  20
TORSDOF 3
ENDMDL
MODEL 5
REMARK VINA RESULT:      -7.3      4.173      6.858
REMARK  Name = 
REMARK  3 active torsions:
REMARK  status: ('A' for Active; 'I' for Inactive)
REMARK    1  A    between atoms: C_2  and  O_3
REMARK    2  A    between atoms: C_2  and  C_4
REMARK    3  A    between atoms: C_6  and  C_7
REMARK                            x       y       z     vdW  Elec       q    Type
REMARK                         _______ _______ _______ _____ _____    ______ ____
ROOT
ATOM      1  C   UNL     1       2.255   5.126  20.116  0.00  0.00    +0.000 A 
ATOM      2  C   UNL     1       3.081   4.741  19.053  0.00  0.00    +0.000 A 
ATOM      3  C   UNL     1       3.496   5.693  18.138  0.00  0.00    +0.000 A 
ATOM      4  N   UNL     1       3.106   6.983  18.245  0.00  0.00    +0.000 NA
ATOM      5  C   UNL     1       2.289   7.360  19.241  0.00  0.00    +0.000 A 
ATOM      6  C   UNL     1       1.876   8.685  19.268  0.00  0.00    +0.000 A 
ATOM      7  C   UNL     1       1.033   9.178  20.267  0.00  0.00    +0.000 A 
ATOM      8  C   UNL     1       0.606   8.326  21.273  0.00  0.00    +0.000 A 
ATOM      9 CL   UNL     1      -0.412   8.923  22.524  0.00  0.00    +0.000 Cl
ATOM     10  C   UNL     1       1.001   6.990  21.266  0.00  0.00    +0.000 A 
ATOM     11  C   UNL     1       1.831   6.475  20.238  0.00  0.00    +0.000 A 
ENDROOT
BRANCH   3  12
ATOM     12  C   UNL     1       4.373   5.370  16.990  0.00  0.00    +0.000 A 
ATOM     13  C   UNL     1       4.711   4.042  16.663  0.00  0.00    +0.000 A 
ATOM     14  C   UNL     1       5.554   3.746  15.586  0.00  0.00    +0.000 A 
ATOM     15  C   UNL     1       6.065   4.774  14.805  0.00  0.00    +0.000 A 
ATOM     16 BR   UNL     1       7.199   4.375  13.348  0.00  0.00    +0.000 Br
ATOM     17  C   UNL     1       5.743   6.097  15.093  0.00  0.00    +0.000 A 
ATOM     18  C   UNL     1       4.904   6.389  16.175  0.00  0.00    +0.000 A 
ENDBRANCH   3  12
BRANCH   1  20
ATOM     19  O   UNL     1       2.319   3.746  22.060  0.00  0.00    +0.000 OA
ATOM     20  C   UNL     1       1.754   4.066  21.032  0.00  0.00    +0.000 C 
BRANCH  20  21
ATOM     21  O   UNL     1       0.594   3.497  20.634  0.00  0.00    +0.000 OA
ATOM     22  H   UNL     1      -0.009   3.195  21.335  0.00  0.00    +0.000 HD
ENDBRANCH  20  21
ENDBRANCH   1  20
TORSDOF 3
ENDMDL
MODEL 6
REMARK VINA RESULT:      -7.3      4.174      6.916
REMARK  Name = 
REMARK  3 active torsions:
REMARK  status: ('A' for Active; 'I' for Inactive)
REMARK    1  A    between atoms: C_2  and  O_3
REMARK    2  A    between atoms: C_2  and  C_4
REMARK    3  A    between atoms: C_6  and  C_7
REMARK                            x       y       z     vdW  Elec       q    Type
REMARK                         _______ _______ _______ _____ _____    ______ ____
ROOT
ATOM      1  C   UNL     1       2.244   5.104  20.130  0.00  0.00    +0.000 A 
ATOM      2  C   UNL     1       3.071   4.719  19.069  0.00  0.00    +0.000 A 
ATOM      3  C   UNL     1       3.491   5.672  18.156  0.00  0.00    +0.000 A 
ATOM      4  N   UNL     1       3.103   6.963  18.265  0.00  0.00    +0.000 NA
ATOM      5  C   UNL     1       2.283   7.340  19.260  0.00  0.00    +0.000 A 
ATOM      6  C   UNL     1       1.873   8.665  19.289  0.00  0.00    +0.000 A 
ATOM      7  C   UNL     1       1.029   9.158  20.286  0.00  0.00    +0.000 A 
ATOM      8  C   UNL     1       0.597   8.305  21.290  0.00  0.00    +0.000 A 
ATOM      9 CL   UNL     1      -0.423   8.901  22.539  0.00  0.00    +0.000 Cl
ATOM     10  C   UNL     1       0.989   6.968  21.281  0.00  0.00    +0.000 A 
ATOM     11  C   UNL     1       1.821   6.453  20.253  0.00  0.00    +0.000 A 
ENDROOT
BRANCH   3  12
ATOM     12  C   UNL     1       4.369   5.350  17.010  0.00  0.00    +0.000 A 
ATOM     13  C   UNL     1       4.878   6.352  16.159  0.00  0.00    +0.000 A 
ATOM     14  C   UNL     1       5.695   6.038  15.067  0.00  0.00    +0.000 A 
ATOM     15  C   UNL     1       6.031   4.715  14.812  0.00  0.00    +0.000 A 
ATOM     16 BR   UNL     1       7.138   4.291  13.342  0.00  0.00    +0.000 Br
ATOM     17  C   UNL     1       5.555   3.702  15.639  0.00  0.00    +0.000 A 
ATOM     18  C   UNL     1       4.733   4.020  16.727  0.00  0.00    +0.000 A 
ENDBRANCH   3  12
BRANCH   1  20
ATOM     19  O   UNL     1       2.293   3.728  22.077  0.00  0.00    +0.000 OA
ATOM     20  C   UNL     1       1.738   4.043  21.042  0.00  0.00    +0.000 C 
BRANCH  20  21
ATOM     21  O   UNL     1       0.586   3.467  20.633  0.00  0.00    +0.000 OA
ATOM     22  H   UNL     1       0.401   2.571  20.966  0.00  0.00    +0.000 HD
ENDBRANCH  20  21
ENDBRANCH   1  20
TORSDOF 3
ENDMDL
MODEL 7
REMARK VINA RESULT:      -7.2      4.944      7.445
REMARK  Name = 
REMARK  3 active torsions:
REMARK  status: ('A' for Active; 'I' for Inactive)
REMARK    1  A    between atoms: C_2  and  O_3
REMARK    2  A    between atoms: C_2  and  C_4
REMARK    3  A    between atoms: C_6  and  C_7
REMARK                            x       y       z     vdW  Elec       q    Type
REMARK                         _______ _______ _______ _____ _____    ______ ____
ROOT
ATOM      1  C   UNL     1       0.260   9.918  18.774  0.00  0.00    +0.000 A 
ATOM      2  C   UNL     1       1.110   9.050  18.080  0.00  0.00    +0.000 A 
ATOM      3  C   UNL     1       1.848   8.115  18.785  0.00  0.00    +0.000 A 
ATOM      4  N   UNL     1       1.770   8.036  20.133  0.00  0.00    +0.000 NA
ATOM      5  C   UNL     1       0.983   8.884  20.814  0.00  0.00    +0.000 A 
ATOM      6  C   UNL     1       0.987   8.794  22.200  0.00  0.00    +0.000 A 
ATOM      7  C   UNL     1       0.198   9.624  22.998  0.00  0.00    +0.000 A 
ATOM      8  C   UNL     1      -0.630  10.557  22.393  0.00  0.00    +0.000 A 
ATOM      9 CL   UNL     1      -1.627  11.570  23.361  0.00  0.00    +0.000 Cl
ATOM     10  C   UNL     1      -0.649  10.672  21.005  0.00  0.00    +0.000 A 
ATOM     11  C   UNL     1       0.174   9.854  20.189  0.00  0.00    +0.000 A 
ENDROOT
BRANCH   3  12
ATOM     12  C   UNL     1       2.765   7.157  18.128  0.00  0.00    +0.000 A 
ATOM     13  C   UNL     1       2.563   5.764  18.202  0.00  0.00    +0.000 A 
ATOM     14  C   UNL     1       3.444   4.865  17.591  0.00  0.00    +0.000 A 
ATOM     15  C   UNL     1       4.540   5.342  16.883  0.00  0.00    +0.000 A 
ATOM     16 BR   UNL     1       5.727   4.129  16.055  0.00  0.00    +0.000 Br
ATOM     17  C   UNL     1       4.762   6.712  16.781  0.00  0.00    +0.000 A 
ATOM     18  C   UNL     1       3.881   7.608  17.398  0.00  0.00    +0.000 A 
ENDBRANCH   3  12
BRANCH   1  20
ATOM     19  O   UNL     1      -1.516  10.787  17.441  0.00  0.00    +0.000 OA
ATOM     20  C   UNL     1      -0.451  10.970  17.998  0.00  0.00    +0.000 C 
BRANCH  20  21
ATOM     21  O   UNL     1       0.181  12.164  17.981  0.00  0.00    +0.000 OA
ATOM     22  H   UNL     1      -0.300  12.909  17.578  0.00  0.00    +0.000 HD
ENDBRANCH  20  21
ENDBRANCH   1  20
TORSDOF 3
ENDMDL
MODEL 8
REMARK VINA RESULT:      -7.2      4.977      7.537
REMARK  Name = 
REMARK  3 active torsions:
REMARK  status: ('A' for Active; 'I' for Inactive)
REMARK    1  A    between atoms: C_2  and  O_3
REMARK    2  A    between atoms: C_2  and  C_4
REMARK    3  A    between atoms: C_6  and  C_7
REMARK                            x       y       z     vdW  Elec       q    Type
REMARK                         _______ _______ _______ _____ _____    ______ ____
ROOT
ATOM      1  C   UNL     1       0.291  10.117  18.869  0.00  0.00    +0.000 A 
ATOM      2  C   UNL     1       1.129   9.234  18.180  0.00  0.00    +0.000 A 
ATOM      3  C   UNL     1       1.788   8.238  18.880  0.00  0.00    +0.000 A 
ATOM      4  N   UNL     1       1.646   8.115  20.220  0.00  0.00    +0.000 NA
ATOM      5  C   UNL     1       0.870   8.975  20.898  0.00  0.00    +0.000 A 
ATOM      6  C   UNL     1       0.808   8.835  22.278  0.00  0.00    +0.000 A 
ATOM      7  C   UNL     1       0.023   9.674  23.072  0.00  0.00    +0.000 A 
ATOM      8  C   UNL     1      -0.731  10.668  22.468  0.00  0.00    +0.000 A 
ATOM      9 CL   UNL     1      -1.722  11.693  23.430  0.00  0.00    +0.000 Cl
ATOM     10  C   UNL     1      -0.681  10.834  21.086  0.00  0.00    +0.000 A 
ATOM     11  C   UNL     1       0.138  10.006  20.276  0.00  0.00    +0.000 A 
ENDROOT
BRANCH   3  12
ATOM     12  C   UNL     1       2.688   7.261  18.228  0.00  0.00    +0.000 A 
ATOM     13  C   UNL     1       3.814   7.668  17.485  0.00  0.00    +0.000 A 
ATOM     14  C   UNL     1       4.651   6.739  16.857  0.00  0.00    +0.000 A 
ATOM     15  C   UNL     1       4.384   5.381  16.971  0.00  0.00    +0.000 A 
ATOM     16 BR   UNL     1       5.516   4.126  16.127  0.00  0.00    +0.000 Br
ATOM     17  C   UNL     1       3.286   4.944  17.706  0.00  0.00    +0.000 A 
ATOM     18  C   UNL     1       2.449   5.877  18.328  0.00  0.00    +0.000 A 
ENDBRANCH   3  12
BRANCH   1  20
ATOM     19  O   UNL     1      -1.451  11.173  17.628  0.00  0.00    +0.000 OA
ATOM     20  C   UNL     1      -0.334  11.230  18.104  0.00  0.00    +0.000 C 
BRANCH  20  21
ATOM     21  O   UNL     1       0.444  12.330  17.998  0.00  0.00    +0.000 OA
ATOM     22  H   UNL     1       0.420  12.958  18.742  0.00  0.00    +0.000 HD
ENDBRANCH  20  21
ENDBRANCH   1  20
TORSDOF 3
ENDMDL
MODEL 9
REMARK VINA RESULT:      -7.1      4.548      7.040
REMARK  Name = 
REMARK  3 active torsions:
REMARK  status: ('A' for Active; 'I' for Inactive)
REMARK    1  A    between atoms: C_2  and  O_3
REMARK    2  A    between atoms: C_2  and  C_4
REMARK    3  A    between atoms: C_6  and  C_7
REMARK                            x       y       z     vdW  Elec       q    Type
REMARK                         _______ _______ _______ _____ _____    ______ ____
ROOT
ATOM      1  C   UNL     1       0.487   9.338  21.319  0.00  0.00    +0.000 A 
ATOM      2  C   UNL     1       1.326   8.365  20.765  0.00  0.00    +0.000 A 
ATOM      3  C   UNL     1       1.590   8.391  19.406  0.00  0.00    +0.000 A 
ATOM      4  N   UNL     1       1.039   9.331  18.605  0.00  0.00    +0.000 NA
ATOM      5  C   UNL     1       0.207  10.251  19.118  0.00  0.00    +0.000 A 
ATOM      6  C   UNL     1      -0.373  11.156  18.239  0.00  0.00    +0.000 A 
ATOM      7  C   UNL     1      -1.246  12.156  18.674  0.00  0.00    +0.000 A 
ATOM      8  C   UNL     1      -1.532  12.263  20.026  0.00  0.00    +0.000 A 
ATOM      9 CL   UNL     1      -2.585  13.504  20.582  0.00  0.00    +0.000 Cl
ATOM     10  C   UNL     1      -0.968  11.364  20.929  0.00  0.00    +0.000 A 
ATOM     11  C   UNL     1      -0.106  10.326  20.490  0.00  0.00    +0.000 A 
ENDROOT
BRANCH   3  12
ATOM     12  C   UNL     1       2.470   7.404  18.742  0.00  0.00    +0.000 A 
ATOM     13  C   UNL     1       3.398   7.782  17.751  0.00  0.00    +0.000 A 
ATOM     14  C   UNL     1       4.215   6.840  17.116  0.00  0.00    +0.000 A 
ATOM     15  C   UNL     1       4.129   5.500  17.471  0.00  0.00    +0.000 A 
ATOM     16 BR   UNL     1       5.235   4.228  16.618  0.00  0.00    +0.000 Br
ATOM     17  C   UNL     1       3.232   5.093  18.453  0.00  0.00    +0.000 A 
ATOM     18  C   UNL     1       2.412   6.038  19.082  0.00  0.00    +0.000 A 
ENDBRANCH   3  12
BRANCH   1  20
ATOM     19  O   UNL     1       0.825   9.729  23.647  0.00  0.00    +0.000 OA
ATOM     20  C   UNL     1       0.152   9.232  22.765  0.00  0.00    +0.000 C 
BRANCH  20  21
ATOM     21  O   UNL     1      -0.986   8.547  23.018  0.00  0.00    +0.000 OA
ATOM     22  H   UNL     1      -1.733   8.700  22.412  0.00  0.00    +0.000 HD
ENDBRANCH  20  21
ENDBRANCH   1  20
TORSDOF 3
ENDMDL
