MODEL 1
REMARK VINA RESULT:      -7.3      0.000      0.000
REMARK  Name = 
REMARK  9 active torsions:
REMARK  status: ('A' for Active; 'I' for Inactive)
REMARK    1  A    between atoms: C_1  and  O_2
REMARK    2  A    between atoms: O_2  and  C_3
REMARK    3  A    between atoms: C_7  and  C_8
REMARK    4  A    between atoms: C_10  and  N_11
REMARK    5  A    between atoms: C_12  and  C_14
REMARK    6  A    between atoms: C_14  and  C_15
REMARK    7  A    between atoms: C_15  and  N_16
REMARK    8  A    between atoms: N_16  and  C_17
REMARK    9  A    between atoms: C_22  and  C_23
REMARK                            x       y       z     vdW  Elec       q    Type
REMARK                         _______ _______ _______ _____ _____    ______ ____
ROOT
ATOM      1  N   UNL     1       2.964   5.134  18.154  0.00  0.00    +0.000 N 
ATOM      2  C   UNL     1       2.191   4.196  17.482  0.00  0.00    +0.000 C 
ATOM      3  O   UNL     1       0.969   4.238  17.381  0.00  0.00    +0.000 OA
ATOM      4  H   UNL     1       3.969   5.007  18.206  0.00  0.00    +0.000 HD
ENDROOT
BRANCH   1  12
ATOM      5  C   UNL     1       2.119   6.232  20.186  0.00  0.00    +0.000 A 
ATOM      6  C   UNL     1       1.673   7.388  20.851  0.00  0.00    +0.000 A 
ATOM      7  C   UNL     1       1.468   8.583  20.159  0.00  0.00    +0.000 A 
ATOM      8 CL   UNL     1       0.824   9.919  21.042  0.00  0.00    +0.000 Cl
ATOM      9  C   UNL     1       1.755   8.656  18.800  0.00  0.00    +0.000 A 
ATOM     10  C   UNL     1       1.522   9.865  17.940  0.00  0.00    +0.000 C 
ATOM     11  C   UNL     1       2.282   7.518  18.163  0.00  0.00    +0.000 A 
ATOM     12  C   UNL     1       2.470   6.295  18.826  0.00  0.00    +0.000 A 
BRANCH   5  14
ATOM     13  C   UNL     1       1.023   4.227  20.755  0.00  0.00    +0.000 C 
ATOM     14  O   UNL     1       2.219   5.013  20.823  0.00  0.00    +0.000 OA
ENDBRANCH   5  14
ENDBRANCH   1  12
BRANCH   2  15
ATOM     15  C   UNL     1       2.959   3.042  16.850  0.00  0.00    +0.000 C 
BRANCH  15  16
ATOM     16  C   UNL     1       4.303   2.912  17.582  0.00  0.00    +0.000 C 
BRANCH  16  17
ATOM     17  N   UNL     1       5.457   3.324  16.765  0.00  0.00    +0.000 N 
ATOM     18  H   UNL     1       5.174   3.616  15.831  0.00  0.00    +0.000 HD
BRANCH  17  19
ATOM     19  C   UNL     1       6.188   4.383  17.370  0.00  0.00    +0.000 A 
ATOM     20  N   UNL     1       6.155   4.497  18.723  0.00  0.00    +0.000 NA
ATOM     21  C   UNL     1       6.829   5.501  19.321  0.00  0.00    +0.000 A 
ATOM     22  C   UNL     1       7.579   6.431  18.638  0.00  0.00    +0.000 A 
ATOM     23  C   UNL     1       7.639   6.315  17.251  0.00  0.00    +0.000 A 
ATOM     24  C   UNL     1       6.937   5.285  16.605  0.00  0.00    +0.000 A 
BRANCH  24  25
ATOM     25  C   UNL     1       7.006   5.193  15.174  0.00  0.00    +0.000 C 
ATOM     26  N   UNL     1       7.037   5.060  14.020  0.00  0.00    +0.000 NA
ENDBRANCH  24  25
ENDBRANCH  17  19
ENDBRANCH  16  17
ENDBRANCH  15  16
ENDBRANCH   2  15
TORSDOF 7
ENDMDL
MODEL 2
REMARK VINA RESULT:      -7.1      2.722      5.899
REMARK  Name = 
REMARK  9 active torsions:
REMARK  status: ('A' for Active; 'I' for Inactive)
REMARK    1  A    between atoms: C_1  and  O_2
REMARK    2  A    between atoms: O_2  and  C_3
REMARK    3  A    between atoms: C_7  and  C_8
REMARK    4  A    between atoms: C_10  and  N_11
REMARK    5  A    between atoms: C_12  and  C_14
REMARK    6  A    between atoms: C_14  and  C_15
REMARK    7  A    between atoms: C_15  and  N_16
REMARK    8  A    between atoms: N_16  and  C_17
REMARK    9  A    between atoms: C_22  and  C_23
REMARK                            x       y       z     vdW  Elec       q    Type
REMARK                         _______ _______ _______ _____ _____    ______ ____
ROOT
ATOM      1  N   UNL     1       4.722   3.378  17.741  0.00  0.00    +0.000 N 
ATOM      2  C   UNL     1       4.454   2.538  18.813  0.00  0.00    +0.000 C 
ATOM      3  O   UNL     1       4.924   2.666  19.939  0.00  0.00    +0.000 OA
ATOM      4  H   UNL     1       4.305   3.182  16.837  0.00  0.00    +0.000 HD
ENDROOT
BRANCH   1  12
ATOM      5  C   UNL     1       5.587   5.431  16.698  0.00  0.00    +0.000 A 
ATOM      6  C   UNL     1       6.399   6.577  16.754  0.00  0.00    +0.000 A 
ATOM      7  C   UNL     1       7.281   6.783  17.816  0.00  0.00    +0.000 A 
ATOM      8 CL   UNL     1       8.307   8.169  17.747  0.00  0.00    +0.000 Cl
ATOM      9  C   UNL     1       7.329   5.872  18.866  0.00  0.00    +0.000 A 
ATOM     10  C   UNL     1       8.274   5.956  20.030  0.00  0.00    +0.000 C 
ATOM     11  C   UNL     1       6.451   4.773  18.841  0.00  0.00    +0.000 A 
ATOM     12  C   UNL     1       5.576   4.524  17.772  0.00  0.00    +0.000 A 
BRANCH   5  14
ATOM     13  C   UNL     1       5.503   4.539  14.519  0.00  0.00    +0.000 C 
ATOM     14  O   UNL     1       4.794   5.147  15.606  0.00  0.00    +0.000 OA
ENDBRANCH   5  14
ENDBRANCH   1  12
BRANCH   2  15
ATOM     15  C   UNL     1       3.509   1.378  18.521  0.00  0.00    +0.000 C 
BRANCH  15  16
ATOM     16  C   UNL     1       2.334   1.923  17.694  0.00  0.00    +0.000 C 
BRANCH  16  17
ATOM     17  N   UNL     1       1.292   2.566  18.512  0.00  0.00    +0.000 N 
ATOM     18  H   UNL     1       1.085   2.029  19.352  0.00  0.00    +0.000 HD
BRANCH  17  19
ATOM     19  C   UNL     1       1.655   3.887  18.896  0.00  0.00    +0.000 A 
ATOM     20  N   UNL     1       1.848   4.810  17.919  0.00  0.00    +0.000 NA
ATOM     21  C   UNL     1       2.205   6.068  18.256  0.00  0.00    +0.000 A 
ATOM     22  C   UNL     1       2.376   6.491  19.554  0.00  0.00    +0.000 A 
ATOM     23  C   UNL     1       2.163   5.560  20.567  0.00  0.00    +0.000 A 
ATOM     24  C   UNL     1       1.800   4.243  20.241  0.00  0.00    +0.000 A 
BRANCH  24  25
ATOM     25  C   UNL     1       1.596   3.299  21.303  0.00  0.00    +0.000 C 
ATOM     26  N   UNL     1       1.423   2.490  22.119  0.00  0.00    +0.000 NA
ENDBRANCH  24  25
ENDBRANCH  17  19
ENDBRANCH  16  17
ENDBRANCH  15  16
ENDBRANCH   2  15
TORSDOF 7
ENDMDL
MODEL 3
REMARK VINA RESULT:      -7.1      1.623      2.433
REMARK  Name = 
REMARK  9 active torsions:
REMARK  status: ('A' for Active; 'I' for Inactive)
REMARK    1  A    between atoms: C_1  and  O_2
REMARK    2  A    between atoms: O_2  and  C_3
REMARK    3  A    between atoms: C_7  and  C_8
REMARK    4  A    between atoms: C_10  and  N_11
REMARK    5  A    between atoms: C_12  and  C_14
REMARK    6  A    between atoms: C_14  and  C_15
REMARK    7  A    between atoms: C_15  and  N_16
REMARK    8  A    between atoms: N_16  and  C_17
REMARK    9  A    between atoms: C_22  and  C_23
REMARK                            x       y       z     vdW  Elec       q    Type
REMARK                         _______ _______ _______ _____ _____    ______ ____
ROOT
ATOM      1  N   UNL     1       2.806   5.546  20.329  0.00  0.00    +0.000 N 
ATOM      2  C   UNL     1       2.335   4.308  19.913  0.00  0.00    +0.000 C 
ATOM      3  O   UNL     1       1.378   4.137  19.164  0.00  0.00    +0.000 OA
ATOM      4  H   UNL     1       3.592   5.591  20.969  0.00  0.00    +0.000 HD
ENDROOT
BRANCH   1  12
ATOM      5  C   UNL     1       2.490   7.330  18.666  0.00  0.00    +0.000 A 
ATOM      6  C   UNL     1       1.919   8.558  18.290  0.00  0.00    +0.000 A 
ATOM      7  C   UNL     1       1.211   9.334  19.209  0.00  0.00    +0.000 A 
ATOM      8 CL   UNL     1       0.632  10.872  18.680  0.00  0.00    +0.000 Cl
ATOM      9  C   UNL     1       1.019   8.871  20.506  0.00  0.00    +0.000 A 
ATOM     10  C   UNL     1       0.327   9.640  21.595  0.00  0.00    +0.000 C 
ATOM     11  C   UNL     1       1.522   7.602  20.847  0.00  0.00    +0.000 A 
ATOM     12  C   UNL     1       2.263   6.814  19.954  0.00  0.00    +0.000 A 
BRANCH   5  14
ATOM     13  C   UNL     1       4.263   7.391  17.117  0.00  0.00    +0.000 C 
ATOM     14  O   UNL     1       3.290   6.601  17.811  0.00  0.00    +0.000 OA
ENDBRANCH   5  14
ENDBRANCH   1  12
BRANCH   2  15
ATOM     15  C   UNL     1       3.086   3.100  20.460  0.00  0.00    +0.000 C 
BRANCH  15  16
ATOM     16  C   UNL     1       4.144   2.693  19.421  0.00  0.00    +0.000 C 
BRANCH  16  17
ATOM     17  N   UNL     1       4.291   3.665  18.324  0.00  0.00    +0.000 N 
ATOM     18  H   UNL     1       3.530   4.342  18.314  0.00  0.00    +0.000 HD
BRANCH  17  19
ATOM     19  C   UNL     1       5.524   4.369  18.396  0.00  0.00    +0.000 A 
ATOM     20  N   UNL     1       5.911   4.868  19.599  0.00  0.00    +0.000 NA
ATOM     21  C   UNL     1       7.071   5.551  19.693  0.00  0.00    +0.000 A 
ATOM     22  C   UNL     1       7.916   5.768  18.630  0.00  0.00    +0.000 A 
ATOM     23  C   UNL     1       7.543   5.246  17.393  0.00  0.00    +0.000 A 
ATOM     24  C   UNL     1       6.336   4.541  17.269  0.00  0.00    +0.000 A 
BRANCH  24  25
ATOM     25  C   UNL     1       5.968   4.021  15.983  0.00  0.00    +0.000 C 
ATOM     26  N   UNL     1       5.729   3.609  14.922  0.00  0.00    +0.000 NA
ENDBRANCH  24  25
ENDBRANCH  17  19
ENDBRANCH  16  17
ENDBRANCH  15  16
ENDBRANCH   2  15
TORSDOF 7
ENDMDL
MODEL 4
REMARK VINA RESULT:      -6.9      1.782      3.204
REMARK  Name = 
REMARK  9 active torsions:
REMARK  status: ('A' for Active; 'I' for Inactive)
REMARK    1  A    between atoms: C_1  and  O_2
REMARK    2  A    between atoms: O_2  and  C_3
REMARK    3  A    between atoms: C_7  and  C_8
REMARK    4  A    between atoms: C_10  and  N_11
REMARK    5  A    between atoms: C_12  and  C_14
REMARK    6  A    between atoms: C_14  and  C_15
REMARK    7  A    between atoms: C_15  and  N_16
REMARK    8  A    between atoms: N_16  and  C_17
REMARK    9  A    between atoms: C_22  and  C_23
REMARK                            x       y       z     vdW  Elec       q    Type
REMARK                         _______ _______ _______ _____ _____    ______ ____
ROOT
ATOM      1  N   UNL     1       2.489   5.693  20.732  0.00  0.00    +0.000 N 
ATOM      2  C   UNL     1       1.974   4.460  20.352  0.00  0.00    +0.000 C 
ATOM      3  O   UNL     1       1.000   4.302  19.622  0.00  0.00    +0.000 OA
ATOM      4  H   UNL     1       3.286   5.729  21.359  0.00  0.00    +0.000 HD
ENDROOT
BRANCH   1  12
ATOM      5  C   UNL     1       2.297   7.496  19.071  0.00  0.00    +0.000 A 
ATOM      6  C   UNL     1       1.759   8.732  18.670  0.00  0.00    +0.000 A 
ATOM      7  C   UNL     1       0.994   9.502  19.548  0.00  0.00    +0.000 A 
ATOM      8 CL   UNL     1       0.460  11.049  18.998  0.00  0.00    +0.000 Cl
ATOM      9  C   UNL     1       0.711   9.027  20.824  0.00  0.00    +0.000 A 
ATOM     10  C   UNL     1      -0.049   9.788  21.872  0.00  0.00    +0.000 C 
ATOM     11  C   UNL     1       1.183   7.751  21.184  0.00  0.00    +0.000 A 
ATOM     12  C   UNL     1       1.979   6.968  20.334  0.00  0.00    +0.000 A 
BRANCH   5  14
ATOM     13  C   UNL     1       3.851   7.570  17.302  0.00  0.00    +0.000 C 
ATOM     14  O   UNL     1       3.148   6.772  18.264  0.00  0.00    +0.000 OA
ENDBRANCH   5  14
ENDBRANCH   1  12
BRANCH   2  15
ATOM     15  C   UNL     1       2.696   3.243  20.916  0.00  0.00    +0.000 C 
BRANCH  15  16
ATOM     16  C   UNL     1       3.635   2.704  19.825  0.00  0.00    +0.000 C 
BRANCH  16  17
ATOM     17  N   UNL     1       4.925   3.413  19.762  0.00  0.00    +0.000 N 
ATOM     18  H   UNL     1       5.696   2.821  20.067  0.00  0.00    +0.000 HD
BRANCH  17  19
ATOM     19  C   UNL     1       5.209   3.890  18.453  0.00  0.00    +0.000 A 
ATOM     20  N   UNL     1       4.391   3.508  17.438  0.00  0.00    +0.000 NA
ATOM     21  C   UNL     1       4.644   3.937  16.184  0.00  0.00    +0.000 A 
ATOM     22  C   UNL     1       5.693   4.766  15.858  0.00  0.00    +0.000 A 
ATOM     23  C   UNL     1       6.529   5.181  16.891  0.00  0.00    +0.000 A 
ATOM     24  C   UNL     1       6.291   4.741  18.203  0.00  0.00    +0.000 A 
BRANCH  24  25
ATOM     25  C   UNL     1       7.173   5.175  19.249  0.00  0.00    +0.000 C 
ATOM     26  N   UNL     1       7.855   5.581  20.098  0.00  0.00    +0.000 NA
ENDBRANCH  24  25
ENDBRANCH  17  19
ENDBRANCH  16  17
ENDBRANCH  15  16
ENDBRANCH   2  15
TORSDOF 7
ENDMDL
MODEL 5
REMARK VINA RESULT:      -6.7      3.315      6.743
REMARK  Name = 
REMARK  9 active torsions:
REMARK  status: ('A' for Active; 'I' for Inactive)
REMARK    1  A    between atoms: C_1  and  O_2
REMARK    2  A    between atoms: O_2  and  C_3
REMARK    3  A    between atoms: C_7  and  C_8
REMARK    4  A    between atoms: C_10  and  N_11
REMARK    5  A    between atoms: C_12  and  C_14
REMARK    6  A    between atoms: C_14  and  C_15
REMARK    7  A    between atoms: C_15  and  N_16
REMARK    8  A    between atoms: N_16  and  C_17
REMARK    9  A    between atoms: C_22  and  C_23
REMARK                            x       y       z     vdW  Elec       q    Type
REMARK                         _______ _______ _______ _____ _____    ______ ____
ROOT
ATOM      1  N   UNL     1       4.185   4.883  18.201  0.00  0.00    +0.000 N 
ATOM      2  C   UNL     1       4.280   4.029  19.291  0.00  0.00    +0.000 C 
ATOM      3  O   UNL     1       5.145   3.170  19.436  0.00  0.00    +0.000 OA
ATOM      4  H   UNL     1       3.422   5.550  18.155  0.00  0.00    +0.000 HD
ENDROOT
BRANCH   1  12
ATOM      5  C   UNL     1       6.310   5.568  17.169  0.00  0.00    +0.000 A 
ATOM      6  C   UNL     1       7.195   5.552  16.077  0.00  0.00    +0.000 A 
ATOM      7  C   UNL     1       6.825   4.979  14.859  0.00  0.00    +0.000 A 
ATOM      8 CL   UNL     1       7.942   5.096  13.547  0.00  0.00    +0.000 Cl
ATOM      9  C   UNL     1       5.583   4.366  14.728  0.00  0.00    +0.000 A 
ATOM     10  C   UNL     1       5.054   3.769  13.456  0.00  0.00    +0.000 C 
ATOM     11  C   UNL     1       4.741   4.313  15.853  0.00  0.00    +0.000 A 
ATOM     12  C   UNL     1       5.073   4.907  17.080  0.00  0.00    +0.000 A 
BRANCH   5  14
ATOM     13  C   UNL     1       7.811   7.001  18.282  0.00  0.00    +0.000 C 
ATOM     14  O   UNL     1       6.607   6.227  18.343  0.00  0.00    +0.000 OA
ENDBRANCH   5  14
ENDBRANCH   1  12
BRANCH   2  15
ATOM     15  C   UNL     1       3.205   4.200  20.358  0.00  0.00    +0.000 C 
BRANCH  15  16
ATOM     16  C   UNL     1       2.175   5.211  19.831  0.00  0.00    +0.000 C 
BRANCH  16  17
ATOM     17  N   UNL     1       2.174   6.485  20.572  0.00  0.00    +0.000 N 
ATOM     18  H   UNL     1       3.031   6.612  21.106  0.00  0.00    +0.000 HD
BRANCH  17  19
ATOM     19  C   UNL     1       2.005   7.603  19.710  0.00  0.00    +0.000 A 
ATOM     20  N   UNL     1       2.567   7.553  18.474  0.00  0.00    +0.000 NA
ATOM     21  C   UNL     1       2.433   8.606  17.641  0.00  0.00    +0.000 A 
ATOM     22  C   UNL     1       1.737   9.749  17.961  0.00  0.00    +0.000 A 
ATOM     23  C   UNL     1       1.140   9.807  19.218  0.00  0.00    +0.000 A 
ATOM     24  C   UNL     1       1.274   8.728  20.105  0.00  0.00    +0.000 A 
BRANCH  24  25
ATOM     25  C   UNL     1       0.657   8.816  21.399  0.00  0.00    +0.000 C 
ATOM     26  N   UNL     1       0.146   8.826  22.443  0.00  0.00    +0.000 NA
ENDBRANCH  24  25
ENDBRANCH  17  19
ENDBRANCH  16  17
ENDBRANCH  15  16
ENDBRANCH   2  15
TORSDOF 7
ENDMDL
MODEL 6
REMARK VINA RESULT:      -6.7      3.108      4.906
REMARK  Name = 
REMARK  9 active torsions:
REMARK  status: ('A' for Active; 'I' for Inactive)
REMARK    1  A    between atoms: C_1  and  O_2
REMARK    2  A    between atoms: O_2  and  C_3
REMARK    3  A    between atoms: C_7  and  C_8
REMARK    4  A    between atoms: C_10  and  N_11
REMARK    5  A    between atoms: C_12  and  C_14
REMARK    6  A    between atoms: C_14  and  C_15
REMARK    7  A    between atoms: C_15  and  N_16
REMARK    8  A    between atoms: N_16  and  C_17
REMARK    9  A    between atoms: C_22  and  C_23
REMARK                            x       y       z     vdW  Elec       q    Type
REMARK                         _______ _______ _______ _____ _____    ______ ____
ROOT
ATOM      1  N   UNL     1       0.958   8.939  19.478  0.00  0.00    +0.000 N 
ATOM      2  C   UNL     1       1.849   8.840  18.418  0.00  0.00    +0.000 C 
ATOM      3  O   UNL     1       1.950   9.657  17.508  0.00  0.00    +0.000 OA
ATOM      4  H   UNL     1       0.928   8.202  20.175  0.00  0.00    +0.000 HD
ENDROOT
BRANCH   1  12
ATOM      5  C   UNL     1       0.013  10.706  20.904  0.00  0.00    +0.000 A 
ATOM      6  C   UNL     1      -0.880  11.777  21.087  0.00  0.00    +0.000 A 
ATOM      7  C   UNL     1      -1.835  12.092  20.118  0.00  0.00    +0.000 A 
ATOM      8 CL   UNL     1      -2.950  13.359  20.476  0.00  0.00    +0.000 Cl
ATOM      9  C   UNL     1      -1.880  11.373  18.928  0.00  0.00    +0.000 A 
ATOM     10  C   UNL     1      -2.895  11.582  17.841  0.00  0.00    +0.000 C 
ATOM     11  C   UNL     1      -0.926  10.360  18.720  0.00  0.00    +0.000 A 
ATOM     12  C   UNL     1       0.025  10.001  19.687  0.00  0.00    +0.000 A 
BRANCH   5  14
ATOM     13  C   UNL     1       0.259   9.579  22.957  0.00  0.00    +0.000 C 
ATOM     14  O   UNL     1       0.886  10.303  21.891  0.00  0.00    +0.000 OA
ENDBRANCH   5  14
ENDBRANCH   1  12
BRANCH   2  15
ATOM     15  C   UNL     1       2.739   7.604  18.419  0.00  0.00    +0.000 C 
BRANCH  15  16
ATOM     16  C   UNL     1       2.426   6.797  19.689  0.00  0.00    +0.000 C 
BRANCH  16  17
ATOM     17  N   UNL     1       3.391   5.714  19.947  0.00  0.00    +0.000 N 
ATOM     18  H   UNL     1       3.423   5.464  20.934  0.00  0.00    +0.000 HD
BRANCH  17  19
ATOM     19  C   UNL     1       3.096   4.546  19.192  0.00  0.00    +0.000 A 
ATOM     20  N   UNL     1       1.804   4.130  19.128  0.00  0.00    +0.000 NA
ATOM     21  C   UNL     1       1.499   3.017  18.429  0.00  0.00    +0.000 A 
ATOM     22  C   UNL     1       2.428   2.265  17.746  0.00  0.00    +0.000 A 
ATOM     23  C   UNL     1       3.754   2.690  17.786  0.00  0.00    +0.000 A 
ATOM     24  C   UNL     1       4.097   3.840  18.516  0.00  0.00    +0.000 A 
BRANCH  24  25
ATOM     25  C   UNL     1       5.472   4.252  18.550  0.00  0.00    +0.000 C 
ATOM     26  N   UNL     1       6.601   4.526  18.569  0.00  0.00    +0.000 NA
ENDBRANCH  24  25
ENDBRANCH  17  19
ENDBRANCH  16  17
ENDBRANCH  15  16
ENDBRANCH   2  15
TORSDOF 7
ENDMDL
MODEL 7
REMARK VINA RESULT:      -6.7      4.171      8.152
REMARK  Name = 
REMARK  9 active torsions:
REMARK  status: ('A' for Active; 'I' for Inactive)
REMARK    1  A    between atoms: C_1  and  O_2
REMARK    2  A    between atoms: O_2  and  C_3
REMARK    3  A    between atoms: C_7  and  C_8
REMARK    4  A    between atoms: C_10  and  N_11
REMARK    5  A    between atoms: C_12  and  C_14
REMARK    6  A    between atoms: C_14  and  C_15
REMARK    7  A    between atoms: C_15  and  N_16
REMARK    8  A    between atoms: N_16  and  C_17
REMARK    9  A    between atoms: C_22  and  C_23
REMARK                            x       y       z     vdW  Elec       q    Type
REMARK                         _______ _______ _______ _____ _____    ______ ____
ROOT
ATOM      1  N   UNL     1       2.679   7.020  17.648  0.00  0.00    +0.000 N 
ATOM      2  C   UNL     1       2.275   7.927  18.618  0.00  0.00    +0.000 C 
ATOM      3  O   UNL     1       2.062   7.648  19.794  0.00  0.00    +0.000 OA
ATOM      4  H   UNL     1       2.809   7.336  16.693  0.00  0.00    +0.000 HD
ENDROOT
BRANCH   1  12
ATOM      5  C   UNL     1       4.193   5.082  17.626  0.00  0.00    +0.000 A 
ATOM      6  C   UNL     1       4.431   3.719  17.873  0.00  0.00    +0.000 A 
ATOM      7  C   UNL     1       3.393   2.863  18.247  0.00  0.00    +0.000 A 
ATOM      8 CL   UNL     1       3.764   1.187  18.431  0.00  0.00    +0.000 Cl
ATOM      9  C   UNL     1       2.109   3.366  18.428  0.00  0.00    +0.000 A 
ATOM     10  C   UNL     1       0.905   2.536  18.772  0.00  0.00    +0.000 C 
ATOM     11  C   UNL     1       1.901   4.747  18.261  0.00  0.00    +0.000 A 
ATOM     12  C   UNL     1       2.917   5.626  17.857  0.00  0.00    +0.000 A 
BRANCH   5  14
ATOM     13  C   UNL     1       5.505   5.697  15.770  0.00  0.00    +0.000 C 
ATOM     14  O   UNL     1       5.175   5.921  17.146  0.00  0.00    +0.000 OA
ENDBRANCH   5  14
ENDBRANCH   1  12
BRANCH   2  15
ATOM     15  C   UNL     1       2.084   9.361  18.140  0.00  0.00    +0.000 C 
BRANCH  15  16
ATOM     16  C   UNL     1       0.701   9.836  18.614  0.00  0.00    +0.000 C 
BRANCH  16  17
ATOM     17  N   UNL     1       0.621  10.039  20.071  0.00  0.00    +0.000 N 
ATOM     18  H   UNL     1       1.511  10.343  20.460  0.00  0.00    +0.000 HD
BRANCH  17  19
ATOM     19  C   UNL     1      -0.377  10.991  20.423  0.00  0.00    +0.000 A 
ATOM     20  N   UNL     1      -0.900  11.767  19.439  0.00  0.00    +0.000 NA
ATOM     21  C   UNL     1      -1.839  12.686  19.747  0.00  0.00    +0.000 A 
ATOM     22  C   UNL     1      -2.324  12.885  21.019  0.00  0.00    +0.000 A 
ATOM     23  C   UNL     1      -1.810  12.083  22.036  0.00  0.00    +0.000 A 
ATOM     24  C   UNL     1      -0.826  11.126  21.741  0.00  0.00    +0.000 A 
BRANCH  24  25
ATOM     25  C   UNL     1      -0.305  10.318  22.807  0.00  0.00    +0.000 C 
ATOM     26  N   UNL     1       0.175   9.676  23.649  0.00  0.00    +0.000 NA
ENDBRANCH  24  25
ENDBRANCH  17  19
ENDBRANCH  16  17
ENDBRANCH  15  16
ENDBRANCH   2  15
TORSDOF 7
ENDMDL
MODEL 8
REMARK VINA RESULT:      -6.6      5.564      7.388
REMARK  Name = 
REMARK  9 active torsions:
REMARK  status: ('A' for Active; 'I' for Inactive)
REMARK    1  A    between atoms: C_1  and  O_2
REMARK    2  A    between atoms: O_2  and  C_3
REMARK    3  A    between atoms: C_7  and  C_8
REMARK    4  A    between atoms: C_10  and  N_11
REMARK    5  A    between atoms: C_12  and  C_14
REMARK    6  A    between atoms: C_14  and  C_15
REMARK    7  A    between atoms: C_15  and  N_16
REMARK    8  A    between atoms: N_16  and  C_17
REMARK    9  A    between atoms: C_22  and  C_23
REMARK                            x       y       z     vdW  Elec       q    Type
REMARK                         _______ _______ _______ _____ _____    ______ ____
ROOT
ATOM      1  N   UNL     1       6.382   7.469  17.127  0.00  0.00    +0.000 N 
ATOM      2  C   UNL     1       7.561   7.737  17.809  0.00  0.00    +0.000 C 
ATOM      3  O   UNL     1       8.100   6.974  18.604  0.00  0.00    +0.000 OA
ATOM      4  H   UNL     1       5.995   8.170  16.504  0.00  0.00    +0.000 HD
ENDROOT
BRANCH   1  12
ATOM      5  C   UNL     1       5.516   5.390  16.137  0.00  0.00    +0.000 A 
ATOM      6  C   UNL     1       4.792   4.192  16.260  0.00  0.00    +0.000 A 
ATOM      7  C   UNL     1       4.073   3.901  17.421  0.00  0.00    +0.000 A 
ATOM      8 CL   UNL     1       3.135   2.451  17.439  0.00  0.00    +0.000 Cl
ATOM      9  C   UNL     1       4.108   4.780  18.498  0.00  0.00    +0.000 A 
ATOM     10  C   UNL     1       3.333   4.603  19.772  0.00  0.00    +0.000 C 
ATOM     11  C   UNL     1       4.905   5.935  18.395  0.00  0.00    +0.000 A 
ATOM     12  C   UNL     1       5.613   6.268  17.231  0.00  0.00    +0.000 A 
BRANCH   5  14
ATOM     13  C   UNL     1       6.932   4.710  14.382  0.00  0.00    +0.000 C 
ATOM     14  O   UNL     1       6.138   5.753  14.961  0.00  0.00    +0.000 OA
ENDBRANCH   5  14
ENDBRANCH   1  12
BRANCH   2  15
ATOM     15  C   UNL     1       8.190   9.096  17.528  0.00  0.00    +0.000 C 
BRANCH  15  16
ATOM     16  C   UNL     1       8.874   9.575  18.818  0.00  0.00    +0.000 C 
BRANCH  16  17
ATOM     17  N   UNL     1       9.791  10.710  18.608  0.00  0.00    +0.000 N 
ATOM     18  H   UNL     1       9.584  11.207  17.743  0.00  0.00    +0.000 HD
BRANCH  17  19
ATOM     19  C   UNL     1       9.749  11.636  19.686  0.00  0.00    +0.000 A 
ATOM     20  N   UNL     1       9.116  11.265  20.829  0.00  0.00    +0.000 NA
ATOM     21  C   UNL     1       9.052  12.130  21.863  0.00  0.00    +0.000 A 
ATOM     22  C   UNL     1       9.610  13.387  21.842  0.00  0.00    +0.000 A 
ATOM     23  C   UNL     1      10.280  13.774  20.684  0.00  0.00    +0.000 A 
ATOM     24  C   UNL     1      10.352  12.895  19.592  0.00  0.00    +0.000 A 
BRANCH  24  25
ATOM     25  C   UNL     1      11.039  13.321  18.405  0.00  0.00    +0.000 C 
ATOM     26  N   UNL     1      11.540  13.688  17.423  0.00  0.00    +0.000 NA
ENDBRANCH  24  25
ENDBRANCH  17  19
ENDBRANCH  16  17
ENDBRANCH  15  16
ENDBRANCH   2  15
TORSDOF 7
ENDMDL
MODEL 9
REMARK VINA RESULT:      -6.6      1.977      4.014
REMARK  Name = 
REMARK  9 active torsions:
REMARK  status: ('A' for Active; 'I' for Inactive)
REMARK    1  A    between atoms: C_1  and  O_2
REMARK    2  A    between atoms: O_2  and  C_3
REMARK    3  A    between atoms: C_7  and  C_8
REMARK    4  A    between atoms: C_10  and  N_11
REMARK    5  A    between atoms: C_12  and  C_14
REMARK    6  A    between atoms: C_14  and  C_15
REMARK    7  A    between atoms: C_15  and  N_16
REMARK    8  A    between atoms: N_16  and  C_17
REMARK    9  A    between atoms: C_22  and  C_23
REMARK                            x       y       z     vdW  Elec       q    Type
REMARK                         _______ _______ _______ _____ _____    ______ ____
ROOT
ATOM      1  N   UNL     1       3.758   6.151  17.591  0.00  0.00    +0.000 N 
ATOM      2  C   UNL     1       5.077   6.366  17.214  0.00  0.00    +0.000 C 
ATOM      3  O   UNL     1       5.725   7.375  17.475  0.00  0.00    +0.000 OA
ATOM      4  H   UNL     1       3.293   5.294  17.310  0.00  0.00    +0.000 HD
ENDROOT
BRANCH   1  12
ATOM      5  C   UNL     1       2.556   6.735  19.655  0.00  0.00    +0.000 A 
ATOM      6  C   UNL     1       1.793   7.649  20.404  0.00  0.00    +0.000 A 
ATOM      7  C   UNL     1       1.323   8.832  19.833  0.00  0.00    +0.000 A 
ATOM      8 CL   UNL     1       0.312   9.842  20.802  0.00  0.00    +0.000 Cl
ATOM      9  C   UNL     1       1.650   9.147  18.518  0.00  0.00    +0.000 A 
ATOM     10  C   UNL     1       1.157  10.359  17.780  0.00  0.00    +0.000 C 
ATOM     11  C   UNL     1       2.485   8.267  17.806  0.00  0.00    +0.000 A 
ATOM     12  C   UNL     1       2.947   7.056  18.344  0.00  0.00    +0.000 A 
BRANCH   5  14
ATOM     13  C   UNL     1       2.075   5.023  21.199  0.00  0.00    +0.000 C 
ATOM     14  O   UNL     1       2.934   5.510  20.160  0.00  0.00    +0.000 OA
ENDBRANCH   5  14
ENDBRANCH   1  12
BRANCH   2  15
ATOM     15  C   UNL     1       5.723   5.246  16.408  0.00  0.00    +0.000 C 
BRANCH  15  16
ATOM     16  C   UNL     1       4.707   4.097  16.298  0.00  0.00    +0.000 C 
BRANCH  16  17
ATOM     17  N   UNL     1       4.739   3.176  17.447  0.00  0.00    +0.000 N 
ATOM     18  H   UNL     1       5.335   3.526  18.196  0.00  0.00    +0.000 HD
BRANCH  17  19
ATOM     19  C   UNL     1       3.440   2.936  17.975  0.00  0.00    +0.000 A 
ATOM     20  N   UNL     1       2.368   3.386  17.273  0.00  0.00    +0.000 NA
ATOM     21  C   UNL     1       1.125   3.183  17.757  0.00  0.00    +0.000 A 
ATOM     22  C   UNL     1       0.864   2.521  18.935  0.00  0.00    +0.000 A 
ATOM     23  C   UNL     1       1.953   2.036  19.656  0.00  0.00    +0.000 A 
ATOM     24  C   UNL     1       3.256   2.245  19.177  0.00  0.00    +0.000 A 
BRANCH  24  25
ATOM     25  C   UNL     1       4.362   1.744  19.943  0.00  0.00    +0.000 C 
ATOM     26  N   UNL     1       5.295   1.380  20.533  0.00  0.00    +0.000 NA
ENDBRANCH  24  25
ENDBRANCH  17  19
ENDBRANCH  16  17
ENDBRANCH  15  16
ENDBRANCH   2  15
TORSDOF 7
ENDMDL
