MODEL 1
REMARK VINA RESULT:      -6.9      0.000      0.000
REMARK  Name = 
REMARK  10 active torsions:
REMARK  status: ('A' for Active; 'I' for Inactive)
REMARK    1  A    between atoms: C_1  and  C_2
REMARK    2  A    between atoms: C_2  and  C_3
REMARK    3  A    between atoms: C_3  and  C_4
REMARK    4  A    between atoms: C_4  and  C_5
REMARK    5  A    between atoms: C_5  and  O_6
REMARK    6  A    between atoms: C_5  and  C_10
REMARK    7  A    between atoms: O_6  and  C_7
REMARK    8  A    between atoms: C_7  and  C_8
REMARK    9  A    between atoms: C_15  and  C_16
REMARK   10  A    between atoms: C_16  and  O_18
REMARK                            x       y       z     vdW  Elec       q    Type
REMARK                         _______ _______ _______ _____ _____    ______ ____
ROOT
ATOM      1  C   UNL     1       3.827   4.068  18.304  0.00  0.00    +0.000 A 
ATOM      2  C   UNL     1       2.823   5.056  18.105  0.00  0.00    +0.000 A 
ATOM      3  C   UNL     1       1.580   4.995  18.731  0.00  0.00    +0.000 A 
ATOM      4  C   UNL     1       1.296   3.938  19.579  0.00  0.00    +0.000 A 
ATOM      5  C   UNL     1       2.247   2.935  19.769  0.00  0.00    +0.000 A 
ATOM      6  C   UNL     1       3.517   2.969  19.142  0.00  0.00    +0.000 A 
ENDROOT
BRANCH   6   7
ATOM      7  C   UNL     1       4.359   1.772  19.486  0.00  0.00    +0.000 C 
ATOM      8  O   UNL     1       5.087   1.765  20.468  0.00  0.00    +0.000 OA
BRANCH   7   9
ATOM      9  O   UNL     1       4.389   0.761  18.602  0.00  0.00    +0.000 OA
ATOM     10  H   UNL     1       3.948  -0.044  18.918  0.00  0.00    +0.000 HD
ENDBRANCH   7   9
ENDBRANCH   6   7
BRANCH   1  11
ATOM     11  C   UNL     1       5.171   4.395  17.651  0.00  0.00    +0.000 C 
BRANCH  11  12
ATOM     12  C   UNL     1       5.039   5.797  17.016  0.00  0.00    +0.000 C 
BRANCH  12  13
ATOM     13  C   UNL     1       5.219   5.846  15.499  0.00  0.00    +0.000 C 
BRANCH  13  15
ATOM     14  C   UNL     1       6.738   4.431  14.061  0.00  0.00    +0.000 C 
ATOM     15  C   UNL     1       5.516   4.441  14.969  0.00  0.00    +0.000 C 
ENDBRANCH  13  15
ENDBRANCH  12  13
ENDBRANCH  11  12
BRANCH  11  16
ATOM     16  O   UNL     1       6.231   4.356  18.622  0.00  0.00    +0.000 OA
BRANCH  16  17
ATOM     17  C   UNL     1       7.458   4.777  18.199  0.00  0.00    +0.000 C 
ATOM     18  C   UNL     1       7.900   5.998  18.948  0.00  0.00    +0.000 C 
ATOM     19  O   UNL     1       8.122   4.243  17.323  0.00  0.00    +0.000 OA
ENDBRANCH  16  17
ENDBRANCH  11  16
ENDBRANCH   1  11
TORSDOF 8
ENDMDL
MODEL 2
REMARK VINA RESULT:      -6.8      1.465      1.720
REMARK  Name = 
REMARK  10 active torsions:
REMARK  status: ('A' for Active; 'I' for Inactive)
REMARK    1  A    between atoms: C_1  and  C_2
REMARK    2  A    between atoms: C_2  and  C_3
REMARK    3  A    between atoms: C_3  and  C_4
REMARK    4  A    between atoms: C_4  and  C_5
REMARK    5  A    between atoms: C_5  and  O_6
REMARK    6  A    between atoms: C_5  and  C_10
REMARK    7  A    between atoms: O_6  and  C_7
REMARK    8  A    between atoms: C_7  and  C_8
REMARK    9  A    between atoms: C_15  and  C_16
REMARK   10  A    between atoms: C_16  and  O_18
REMARK                            x       y       z     vdW  Elec       q    Type
REMARK                         _______ _______ _______ _____ _____    ______ ____
ROOT
ATOM      1  C   UNL     1       4.021   4.938  18.708  0.00  0.00    +0.000 A 
ATOM      2  C   UNL     1       3.348   6.160  18.983  0.00  0.00    +0.000 A 
ATOM      3  C   UNL     1       2.313   6.252  19.911  0.00  0.00    +0.000 A 
ATOM      4  C   UNL     1       1.911   5.118  20.596  0.00  0.00    +0.000 A 
ATOM      5  C   UNL     1       2.528   3.897  20.325  0.00  0.00    +0.000 A 
ATOM      6  C   UNL     1       3.580   3.774  19.384  0.00  0.00    +0.000 A 
ENDROOT
BRANCH   6   7
ATOM      7  C   UNL     1       4.071   2.359  19.253  0.00  0.00    +0.000 C 
ATOM      8  O   UNL     1       3.477   1.539  18.568  0.00  0.00    +0.000 OA
BRANCH   7   9
ATOM      9  O   UNL     1       5.108   1.989  20.023  0.00  0.00    +0.000 OA
ATOM     10  H   UNL     1       5.386   2.673  20.653  0.00  0.00    +0.000 HD
ENDBRANCH   7   9
ENDBRANCH   6   7
BRANCH   1  11
ATOM     11  C   UNL     1       5.225   5.077  17.775  0.00  0.00    +0.000 C 
BRANCH  11  12
ATOM     12  C   UNL     1       4.806   4.505  16.402  0.00  0.00    +0.000 C 
BRANCH  12  13
ATOM     13  C   UNL     1       5.891   3.726  15.662  0.00  0.00    +0.000 C 
BRANCH  13  15
ATOM     14  C   UNL     1       6.128   3.729  13.147  0.00  0.00    +0.000 C 
ATOM     15  C   UNL     1       6.347   4.515  14.432  0.00  0.00    +0.000 C 
ENDBRANCH  13  15
ENDBRANCH  12  13
ENDBRANCH  11  12
BRANCH  11  16
ATOM     16  O   UNL     1       5.630   6.452  17.670  0.00  0.00    +0.000 OA
BRANCH  16  17
ATOM     17  C   UNL     1       6.973   6.686  17.591  0.00  0.00    +0.000 C 
ATOM     18  C   UNL     1       7.714   5.952  18.669  0.00  0.00    +0.000 C 
ATOM     19  O   UNL     1       7.516   7.399  16.761  0.00  0.00    +0.000 OA
ENDBRANCH  16  17
ENDBRANCH  11  16
ENDBRANCH   1  11
TORSDOF 8
ENDMDL
MODEL 3
REMARK VINA RESULT:      -6.7      1.105      1.273
REMARK  Name = 
REMARK  10 active torsions:
REMARK  status: ('A' for Active; 'I' for Inactive)
REMARK    1  A    between atoms: C_1  and  C_2
REMARK    2  A    between atoms: C_2  and  C_3
REMARK    3  A    between atoms: C_3  and  C_4
REMARK    4  A    between atoms: C_4  and  C_5
REMARK    5  A    between atoms: C_5  and  O_6
REMARK    6  A    between atoms: C_5  and  C_10
REMARK    7  A    between atoms: O_6  and  C_7
REMARK    8  A    between atoms: C_7  and  C_8
REMARK    9  A    between atoms: C_15  and  C_16
REMARK   10  A    between atoms: C_16  and  O_18
REMARK                            x       y       z     vdW  Elec       q    Type
REMARK                         _______ _______ _______ _____ _____    ______ ____
ROOT
ATOM      1  C   UNL     1       4.164   4.180  18.041  0.00  0.00    +0.000 A 
ATOM      2  C   UNL     1       3.250   5.191  17.636  0.00  0.00    +0.000 A 
ATOM      3  C   UNL     1       1.903   5.167  17.991  0.00  0.00    +0.000 A 
ATOM      4  C   UNL     1       1.421   4.124  18.763  0.00  0.00    +0.000 A 
ATOM      5  C   UNL     1       2.285   3.098  19.148  0.00  0.00    +0.000 A 
ATOM      6  C   UNL     1       3.658   3.096  18.798  0.00  0.00    +0.000 A 
ENDROOT
BRANCH   6   7
ATOM      7  C   UNL     1       4.378   1.880  19.311  0.00  0.00    +0.000 C 
ATOM      8  O   UNL     1       5.060   1.922  20.325  0.00  0.00    +0.000 OA
BRANCH   7   9
ATOM      9  O   UNL     1       4.359   0.777  18.543  0.00  0.00    +0.000 OA
ATOM     10  H   UNL     1       4.656   0.934  17.632  0.00  0.00    +0.000 HD
ENDBRANCH   7   9
ENDBRANCH   6   7
BRANCH   1  11
ATOM     11  C   UNL     1       5.623   4.467  17.681  0.00  0.00    +0.000 C 
BRANCH  11  12
ATOM     12  C   UNL     1       5.914   3.741  16.348  0.00  0.00    +0.000 C 
BRANCH  12  13
ATOM     13  C   UNL     1       5.468   4.484  15.090  0.00  0.00    +0.000 C 
BRANCH  13  15
ATOM     14  C   UNL     1       5.956   3.551  12.794  0.00  0.00    +0.000 C 
ATOM     15  C   UNL     1       6.517   4.312  13.988  0.00  0.00    +0.000 C 
ENDBRANCH  13  15
ENDBRANCH  12  13
ENDBRANCH  11  12
BRANCH  11  16
ATOM     16  O   UNL     1       5.849   5.882  17.568  0.00  0.00    +0.000 OA
BRANCH  16  17
ATOM     17  C   UNL     1       7.149   6.295  17.617  0.00  0.00    +0.000 C 
ATOM     18  C   UNL     1       7.778   5.946  18.933  0.00  0.00    +0.000 C 
ATOM     19  O   UNL     1       7.737   6.878  16.718  0.00  0.00    +0.000 OA
ENDBRANCH  16  17
ENDBRANCH  11  16
ENDBRANCH   1  11
TORSDOF 8
ENDMDL
MODEL 4
REMARK VINA RESULT:      -6.6      1.408      2.376
REMARK  Name = 
REMARK  10 active torsions:
REMARK  status: ('A' for Active; 'I' for Inactive)
REMARK    1  A    between atoms: C_1  and  C_2
REMARK    2  A    between atoms: C_2  and  C_3
REMARK    3  A    between atoms: C_3  and  C_4
REMARK    4  A    between atoms: C_4  and  C_5
REMARK    5  A    between atoms: C_5  and  O_6
REMARK    6  A    between atoms: C_5  and  C_10
REMARK    7  A    between atoms: O_6  and  C_7
REMARK    8  A    between atoms: C_7  and  C_8
REMARK    9  A    between atoms: C_15  and  C_16
REMARK   10  A    between atoms: C_16  and  O_18
REMARK                            x       y       z     vdW  Elec       q    Type
REMARK                         _______ _______ _______ _____ _____    ______ ____
ROOT
ATOM      1  C   UNL     1       4.823   5.203  17.089  0.00  0.00    +0.000 A 
ATOM      2  C   UNL     1       4.539   6.534  16.677  0.00  0.00    +0.000 A 
ATOM      3  C   UNL     1       3.589   7.328  17.318  0.00  0.00    +0.000 A 
ATOM      4  C   UNL     1       2.887   6.813  18.394  0.00  0.00    +0.000 A 
ATOM      5  C   UNL     1       3.118   5.499  18.801  0.00  0.00    +0.000 A 
ATOM      6  C   UNL     1       4.074   4.669  18.166  0.00  0.00    +0.000 A 
ENDROOT
BRANCH   6   7
ATOM      7  C   UNL     1       4.131   3.293  18.770  0.00  0.00    +0.000 C 
ATOM      8  O   UNL     1       3.153   2.561  18.781  0.00  0.00    +0.000 OA
BRANCH   7   9
ATOM      9  O   UNL     1       5.256   2.947  19.419  0.00  0.00    +0.000 OA
ATOM     10  H   UNL     1       5.424   1.991  19.420  0.00  0.00    +0.000 HD
ENDBRANCH   7   9
ENDBRANCH   6   7
BRANCH   1  11
ATOM     11  C   UNL     1       6.001   4.555  16.358  0.00  0.00    +0.000 C 
BRANCH  11  12
ATOM     12  C   UNL     1       5.636   4.509  14.858  0.00  0.00    +0.000 C 
BRANCH  12  13
ATOM     13  C   UNL     1       6.820   4.591  13.895  0.00  0.00    +0.000 C 
BRANCH  13  15
ATOM     14  C   UNL     1       5.016   3.549  12.467  0.00  0.00    +0.000 C 
ATOM     15  C   UNL     1       6.510   3.795  12.625  0.00  0.00    +0.000 C 
ENDBRANCH  13  15
ENDBRANCH  12  13
ENDBRANCH  11  12
BRANCH  11  16
ATOM     16  O   UNL     1       7.209   5.301  16.581  0.00  0.00    +0.000 OA
BRANCH  16  17
ATOM     17  C   UNL     1       7.642   5.386  17.873  0.00  0.00    +0.000 C 
ATOM     18  C   UNL     1       7.804   6.815  18.297  0.00  0.00    +0.000 C 
ATOM     19  O   UNL     1       7.874   4.433  18.602  0.00  0.00    +0.000 OA
ENDBRANCH  16  17
ENDBRANCH  11  16
ENDBRANCH   1  11
TORSDOF 8
ENDMDL
MODEL 5
REMARK VINA RESULT:      -6.6      1.823      3.455
REMARK  Name = 
REMARK  10 active torsions:
REMARK  status: ('A' for Active; 'I' for Inactive)
REMARK    1  A    between atoms: C_1  and  C_2
REMARK    2  A    between atoms: C_2  and  C_3
REMARK    3  A    between atoms: C_3  and  C_4
REMARK    4  A    between atoms: C_4  and  C_5
REMARK    5  A    between atoms: C_5  and  O_6
REMARK    6  A    between atoms: C_5  and  C_10
REMARK    7  A    between atoms: O_6  and  C_7
REMARK    8  A    between atoms: C_7  and  C_8
REMARK    9  A    between atoms: C_15  and  C_16
REMARK   10  A    between atoms: C_16  and  O_18
REMARK                            x       y       z     vdW  Elec       q    Type
REMARK                         _______ _______ _______ _____ _____    ______ ____
ROOT
ATOM      1  C   UNL     1       4.641   5.865  17.415  0.00  0.00    +0.000 A 
ATOM      2  C   UNL     1       4.077   7.170  17.402  0.00  0.00    +0.000 A 
ATOM      3  C   UNL     1       2.977   7.517  18.184  0.00  0.00    +0.000 A 
ATOM      4  C   UNL     1       2.400   6.564  19.007  0.00  0.00    +0.000 A 
ATOM      5  C   UNL     1       2.909   5.266  19.017  0.00  0.00    +0.000 A 
ATOM      6  C   UNL     1       4.024   4.885  18.230  0.00  0.00    +0.000 A 
ENDROOT
BRANCH   6   7
ATOM      7  C   UNL     1       4.375   3.433  18.397  0.00  0.00    +0.000 C 
ATOM      8  O   UNL     1       3.864   2.568  17.700  0.00  0.00    +0.000 OA
BRANCH   7   9
ATOM      9  O   UNL     1       5.168   3.102  19.430  0.00  0.00    +0.000 OA
ATOM     10  H   UNL     1       4.749   2.495  20.061  0.00  0.00    +0.000 HD
ENDBRANCH   7   9
ENDBRANCH   6   7
BRANCH   1  11
ATOM     11  C   UNL     1       5.933   5.729  16.606  0.00  0.00    +0.000 C 
BRANCH  11  12
ATOM     12  C   UNL     1       7.064   5.404  17.608  0.00  0.00    +0.000 C 
BRANCH  12  13
ATOM     13  C   UNL     1       7.642   6.607  18.351  0.00  0.00    +0.000 C 
BRANCH  13  15
ATOM     14  C   UNL     1       8.308   9.031  18.100  0.00  0.00    +0.000 C 
ATOM     15  C   UNL     1       7.685   7.820  17.419  0.00  0.00    +0.000 C 
ENDBRANCH  13  15
ENDBRANCH  12  13
ENDBRANCH  11  12
BRANCH  11  16
ATOM     16  O   UNL     1       5.803   4.702  15.610  0.00  0.00    +0.000 OA
BRANCH  16  17
ATOM     17  C   UNL     1       6.681   4.753  14.566  0.00  0.00    +0.000 C 
ATOM     18  C   UNL     1       6.252   3.845  13.453  0.00  0.00    +0.000 C 
ATOM     19  O   UNL     1       7.690   5.441  14.528  0.00  0.00    +0.000 OA
ENDBRANCH  16  17
ENDBRANCH  11  16
ENDBRANCH   1  11
TORSDOF 8
ENDMDL
MODEL 6
REMARK VINA RESULT:      -6.6      1.873      2.642
REMARK  Name = 
REMARK  10 active torsions:
REMARK  status: ('A' for Active; 'I' for Inactive)
REMARK    1  A    between atoms: C_1  and  C_2
REMARK    2  A    between atoms: C_2  and  C_3
REMARK    3  A    between atoms: C_3  and  C_4
REMARK    4  A    between atoms: C_4  and  C_5
REMARK    5  A    between atoms: C_5  and  O_6
REMARK    6  A    between atoms: C_5  and  C_10
REMARK    7  A    between atoms: O_6  and  C_7
REMARK    8  A    between atoms: C_7  and  C_8
REMARK    9  A    between atoms: C_15  and  C_16
REMARK   10  A    between atoms: C_16  and  O_18
REMARK                            x       y       z     vdW  Elec       q    Type
REMARK                         _______ _______ _______ _____ _____    ______ ____
ROOT
ATOM      1  C   UNL     1       4.695   6.180  17.483  0.00  0.00    +0.000 A 
ATOM      2  C   UNL     1       4.003   7.377  17.151  0.00  0.00    +0.000 A 
ATOM      3  C   UNL     1       2.909   7.836  17.883  0.00  0.00    +0.000 A 
ATOM      4  C   UNL     1       2.466   7.107  18.973  0.00  0.00    +0.000 A 
ATOM      5  C   UNL     1       3.102   5.911  19.304  0.00  0.00    +0.000 A 
ATOM      6  C   UNL     1       4.213   5.419  18.576  0.00  0.00    +0.000 A 
ENDROOT
BRANCH   6   7
ATOM      7  C   UNL     1       4.715   4.106  19.111  0.00  0.00    +0.000 C 
ATOM      8  O   UNL     1       3.967   3.318  19.671  0.00  0.00    +0.000 OA
BRANCH   7   9
ATOM      9  O   UNL     1       6.040   3.888  19.074  0.00  0.00    +0.000 OA
ATOM     10  H   UNL     1       6.508   4.450  18.436  0.00  0.00    +0.000 HD
ENDBRANCH   7   9
ENDBRANCH   6   7
BRANCH   1  11
ATOM     11  C   UNL     1       5.957   5.932  16.655  0.00  0.00    +0.000 C 
BRANCH  11  12
ATOM     12  C   UNL     1       5.499   5.587  15.220  0.00  0.00    +0.000 C 
BRANCH  12  13
ATOM     13  C   UNL     1       6.515   4.815  14.379  0.00  0.00    +0.000 C 
BRANCH  13  15
ATOM     14  C   UNL     1       6.451   3.513  12.216  0.00  0.00    +0.000 C 
ATOM     15  C   UNL     1       5.801   3.725  13.576  0.00  0.00    +0.000 C 
ENDBRANCH  13  15
ENDBRANCH  12  13
ENDBRANCH  11  12
BRANCH  11  16
ATOM     16  O   UNL     1       6.810   7.088  16.670  0.00  0.00    +0.000 OA
BRANCH  16  17
ATOM     17  C   UNL     1       7.606   7.241  17.768  0.00  0.00    +0.000 C 
ATOM     18  C   UNL     1       8.076   8.659  17.902  0.00  0.00    +0.000 C 
ATOM     19  O   UNL     1       7.909   6.351  18.548  0.00  0.00    +0.000 OA
ENDBRANCH  16  17
ENDBRANCH  11  16
ENDBRANCH   1  11
TORSDOF 8
ENDMDL
MODEL 7
REMARK VINA RESULT:      -6.6      1.609      2.379
REMARK  Name = 
REMARK  10 active torsions:
REMARK  status: ('A' for Active; 'I' for Inactive)
REMARK    1  A    between atoms: C_1  and  C_2
REMARK    2  A    between atoms: C_2  and  C_3
REMARK    3  A    between atoms: C_3  and  C_4
REMARK    4  A    between atoms: C_4  and  C_5
REMARK    5  A    between atoms: C_5  and  O_6
REMARK    6  A    between atoms: C_5  and  C_10
REMARK    7  A    between atoms: O_6  and  C_7
REMARK    8  A    between atoms: C_7  and  C_8
REMARK    9  A    between atoms: C_15  and  C_16
REMARK   10  A    between atoms: C_16  and  O_18
REMARK                            x       y       z     vdW  Elec       q    Type
REMARK                         _______ _______ _______ _____ _____    ______ ____
ROOT
ATOM      1  C   UNL     1       4.386   5.456  17.118  0.00  0.00    +0.000 A 
ATOM      2  C   UNL     1       4.357   6.878  17.100  0.00  0.00    +0.000 A 
ATOM      3  C   UNL     1       3.372   7.614  17.755  0.00  0.00    +0.000 A 
ATOM      4  C   UNL     1       2.375   6.949  18.449  0.00  0.00    +0.000 A 
ATOM      5  C   UNL     1       2.356   5.555  18.457  0.00  0.00    +0.000 A 
ATOM      6  C   UNL     1       3.343   4.782  17.797  0.00  0.00    +0.000 A 
ENDROOT
BRANCH   6   7
ATOM      7  C   UNL     1       3.100   3.304  17.933  0.00  0.00    +0.000 C 
ATOM      8  O   UNL     1       3.837   2.596  18.603  0.00  0.00    +0.000 OA
BRANCH   7   9
ATOM      9  O   UNL     1       2.125   2.765  17.183  0.00  0.00    +0.000 OA
ATOM     10  H   UNL     1       2.446   2.108  16.544  0.00  0.00    +0.000 HD
ENDBRANCH   7   9
ENDBRANCH   6   7
BRANCH   1  11
ATOM     11  C   UNL     1       5.630   4.843  16.472  0.00  0.00    +0.000 C 
BRANCH  11  12
ATOM     12  C   UNL     1       5.385   4.818  14.946  0.00  0.00    +0.000 C 
BRANCH  12  13
ATOM     13  C   UNL     1       6.347   3.941  14.146  0.00  0.00    +0.000 C 
BRANCH  13  15
ATOM     14  C   UNL     1       6.769   3.087  11.807  0.00  0.00    +0.000 C 
ATOM     15  C   UNL     1       5.724   3.591  12.793  0.00  0.00    +0.000 C 
ENDBRANCH  13  15
ENDBRANCH  12  13
ENDBRANCH  11  12
BRANCH  11  16
ATOM     16  O   UNL     1       6.803   5.606  16.803  0.00  0.00    +0.000 OA
BRANCH  16  17
ATOM     17  C   UNL     1       7.614   5.085  17.769  0.00  0.00    +0.000 C 
ATOM     18  C   UNL     1       7.594   5.930  19.007  0.00  0.00    +0.000 C 
ATOM     19  O   UNL     1       8.279   4.066  17.655  0.00  0.00    +0.000 OA
ENDBRANCH  16  17
ENDBRANCH  11  16
ENDBRANCH   1  11
TORSDOF 8
ENDMDL
MODEL 8
REMARK VINA RESULT:      -6.5      1.524      2.716
REMARK  Name = 
REMARK  10 active torsions:
REMARK  status: ('A' for Active; 'I' for Inactive)
REMARK    1  A    between atoms: C_1  and  C_2
REMARK    2  A    between atoms: C_2  and  C_3
REMARK    3  A    between atoms: C_3  and  C_4
REMARK    4  A    between atoms: C_4  and  C_5
REMARK    5  A    between atoms: C_5  and  O_6
REMARK    6  A    between atoms: C_5  and  C_10
REMARK    7  A    between atoms: O_6  and  C_7
REMARK    8  A    between atoms: C_7  and  C_8
REMARK    9  A    between atoms: C_15  and  C_16
REMARK   10  A    between atoms: C_16  and  O_18
REMARK                            x       y       z     vdW  Elec       q    Type
REMARK                         _______ _______ _______ _____ _____    ______ ____
ROOT
ATOM      1  C   UNL     1       4.266   4.968  18.614  0.00  0.00    +0.000 A 
ATOM      2  C   UNL     1       3.574   6.207  18.713  0.00  0.00    +0.000 A 
ATOM      3  C   UNL     1       2.503   6.397  19.583  0.00  0.00    +0.000 A 
ATOM      4  C   UNL     1       2.084   5.349  20.386  0.00  0.00    +0.000 A 
ATOM      5  C   UNL     1       2.720   4.112  20.288  0.00  0.00    +0.000 A 
ATOM      6  C   UNL     1       3.809   3.890  19.409  0.00  0.00    +0.000 A 
ENDROOT
BRANCH   6   7
ATOM      7  C   UNL     1       4.315   2.475  19.469  0.00  0.00    +0.000 C 
ATOM      8  O   UNL     1       4.935   2.060  20.437  0.00  0.00    +0.000 OA
BRANCH   7   9
ATOM      9  O   UNL     1       4.183   1.722  18.364  0.00  0.00    +0.000 OA
ATOM     10  H   UNL     1       4.589   0.843  18.443  0.00  0.00    +0.000 HD
ENDBRANCH   7   9
ENDBRANCH   6   7
BRANCH   1  11
ATOM     11  C   UNL     1       5.505   5.009  17.717  0.00  0.00    +0.000 C 
BRANCH  11  12
ATOM     12  C   UNL     1       6.738   4.864  18.637  0.00  0.00    +0.000 C 
BRANCH  12  13
ATOM     13  C   UNL     1       7.637   6.097  18.721  0.00  0.00    +0.000 C 
BRANCH  13  15
ATOM     14  C   UNL     1       7.946   8.423  17.786  0.00  0.00    +0.000 C 
ATOM     15  C   UNL     1       7.304   7.058  17.577  0.00  0.00    +0.000 C 
ENDBRANCH  13  15
ENDBRANCH  12  13
ENDBRANCH  11  12
BRANCH  11  16
ATOM     16  O   UNL     1       5.457   3.959  16.736  0.00  0.00    +0.000 OA
BRANCH  16  17
ATOM     17  C   UNL     1       5.776   4.309  15.456  0.00  0.00    +0.000 C 
ATOM     18  C   UNL     1       5.294   5.692  15.135  0.00  0.00    +0.000 C 
ATOM     19  O   UNL     1       6.374   3.598  14.660  0.00  0.00    +0.000 OA
ENDBRANCH  16  17
ENDBRANCH  11  16
ENDBRANCH   1  11
TORSDOF 8
ENDMDL
MODEL 9
REMARK VINA RESULT:      -6.5      2.045      3.295
REMARK  Name = 
REMARK  10 active torsions:
REMARK  status: ('A' for Active; 'I' for Inactive)
REMARK    1  A    between atoms: C_1  and  C_2
REMARK    2  A    between atoms: C_2  and  C_3
REMARK    3  A    between atoms: C_3  and  C_4
REMARK    4  A    between atoms: C_4  and  C_5
REMARK    5  A    between atoms: C_5  and  O_6
REMARK    6  A    between atoms: C_5  and  C_10
REMARK    7  A    between atoms: O_6  and  C_7
REMARK    8  A    between atoms: C_7  and  C_8
REMARK    9  A    between atoms: C_15  and  C_16
REMARK   10  A    between atoms: C_16  and  O_18
REMARK                            x       y       z     vdW  Elec       q    Type
REMARK                         _______ _______ _______ _____ _____    ______ ____
ROOT
ATOM      1  C   UNL     1       2.730   5.214  19.072  0.00  0.00    +0.000 A 
ATOM      2  C   UNL     1       2.898   6.512  18.516  0.00  0.00    +0.000 A 
ATOM      3  C   UNL     1       2.379   7.656  19.118  0.00  0.00    +0.000 A 
ATOM      4  C   UNL     1       1.668   7.539  20.300  0.00  0.00    +0.000 A 
ATOM      5  C   UNL     1       1.456   6.277  20.853  0.00  0.00    +0.000 A 
ATOM      6  C   UNL     1       1.969   5.097  20.260  0.00  0.00    +0.000 A 
ENDROOT
BRANCH   6   7
ATOM      7  C   UNL     1       1.597   3.859  21.029  0.00  0.00    +0.000 C 
ATOM      8  O   UNL     1       2.230   3.504  22.013  0.00  0.00    +0.000 OA
BRANCH   7   9
ATOM      9  O   UNL     1       0.628   3.080  20.518  0.00  0.00    +0.000 OA
ATOM     10  H   UNL     1       0.965   2.342  19.985  0.00  0.00    +0.000 HD
ENDBRANCH   7   9
ENDBRANCH   6   7
BRANCH   1  11
ATOM     11  C   UNL     1       3.504   4.112  18.345  0.00  0.00    +0.000 C 
BRANCH  11  12
ATOM     12  C   UNL     1       4.066   4.732  17.046  0.00  0.00    +0.000 C 
BRANCH  12  13
ATOM     13  C   UNL     1       5.573   4.578  16.849  0.00  0.00    +0.000 C 
BRANCH  13  15
ATOM     14  C   UNL     1       6.346   4.589  14.445  0.00  0.00    +0.000 C 
ATOM     15  C   UNL     1       5.848   3.734  15.602  0.00  0.00    +0.000 C 
ENDBRANCH  13  15
ENDBRANCH  12  13
ENDBRANCH  11  12
BRANCH  11  16
ATOM     16  O   UNL     1       4.555   3.595  19.177  0.00  0.00    +0.000 OA
BRANCH  16  17
ATOM     17  C   UNL     1       4.442   2.290  19.559  0.00  0.00    +0.000 C 
ATOM     18  C   UNL     1       3.511   1.539  18.655  0.00  0.00    +0.000 C 
ATOM     19  O   UNL     1       5.014   1.783  20.513  0.00  0.00    +0.000 OA
ENDBRANCH  16  17
ENDBRANCH  11  16
ENDBRANCH   1  11
TORSDOF 8
ENDMDL
