MODEL 1
REMARK VINA RESULT:      -7.8      0.000      0.000
REMARK  Name = 
REMARK  3 active torsions:
REMARK  status: ('A' for Active; 'I' for Inactive)
REMARK    1  A    between atoms: C_1  and  N_2
REMARK    2  A    between atoms: C_4  and  O_5
REMARK    3  A    between atoms: C_4  and  C_6
REMARK                            x       y       z     vdW  Elec       q    Type
REMARK                         _______ _______ _______ _____ _____    ______ ____
ROOT
ATOM      1  C   UNL     1       7.604   5.879  19.178  0.00  0.00    +0.000 C 
ATOM      2  N   UNL     1       6.428   5.312  18.552  0.00  0.00    +0.000 N 
ATOM      3  C   UNL     1       5.173   5.173  19.301  0.00  0.00    +0.000 C 
ATOM      4  C   UNL     1       4.542   3.800  18.938  0.00  0.00    +0.000 C 
ATOM      5  O   UNL     1       4.234   3.743  17.530  0.00  0.00    +0.000 OA
ATOM      6  C   UNL     1       5.237   4.236  16.720  0.00  0.00    +0.000 A 
ATOM      7  C   UNL     1       5.111   3.911  15.367  0.00  0.00    +0.000 A 
ATOM      8  C   UNL     1       6.088   4.324  14.460  0.00  0.00    +0.000 A 
ATOM      9  C   UNL     1       7.185   5.055  14.915  0.00  0.00    +0.000 A 
ATOM     10  C   UNL     1       7.306   5.379  16.267  0.00  0.00    +0.000 A 
ATOM     11  C   UNL     1       6.336   4.992  17.203  0.00  0.00    +0.000 A 
ENDROOT
BRANCH   4  12
ATOM     12  C   UNL     1       3.276   3.593  19.767  0.00  0.00    +0.000 A 
ATOM     13  C   UNL     1       3.293   2.838  20.954  0.00  0.00    +0.000 A 
ATOM     14  C   UNL     1       2.112   2.584  21.655  0.00  0.00    +0.000 A 
ATOM     15  C   UNL     1       0.897   3.079  21.185  0.00  0.00    +0.000 A 
ATOM     16  C   UNL     1       0.860   3.836  20.019  0.00  0.00    +0.000 A 
ATOM     17  C   UNL     1       2.039   4.090  19.317  0.00  0.00    +0.000 A 
ENDBRANCH   4  12
BRANCH   4  18
ATOM     18  O   UNL     1       5.470   2.751  19.267  0.00  0.00    +0.000 OA
ATOM     19  H   UNL     1       6.230   2.941  18.684  0.00  0.00    +0.000 HD
ENDBRANCH   4  18
TORSDOF 2
ENDMDL
MODEL 2
REMARK VINA RESULT:      -7.7      0.256      1.150
REMARK  Name = 
REMARK  3 active torsions:
REMARK  status: ('A' for Active; 'I' for Inactive)
REMARK    1  A    between atoms: C_1  and  N_2
REMARK    2  A    between atoms: C_4  and  O_5
REMARK    3  A    between atoms: C_4  and  C_6
REMARK                            x       y       z     vdW  Elec       q    Type
REMARK                         _______ _______ _______ _____ _____    ______ ____
ROOT
ATOM      1  C   UNL     1       7.427   6.122  18.912  0.00  0.00    +0.000 C 
ATOM      2  N   UNL     1       6.301   5.430  18.322  0.00  0.00    +0.000 N 
ATOM      3  C   UNL     1       5.048   5.263  19.068  0.00  0.00    +0.000 C 
ATOM      4  C   UNL     1       4.516   3.826  18.806  0.00  0.00    +0.000 C 
ATOM      5  O   UNL     1       4.233   3.642  17.404  0.00  0.00    +0.000 OA
ATOM      6  C   UNL     1       5.211   4.138  16.568  0.00  0.00    +0.000 A 
ATOM      7  C   UNL     1       5.126   3.703  15.242  0.00  0.00    +0.000 A 
ATOM      8  C   UNL     1       6.085   4.112  14.315  0.00  0.00    +0.000 A 
ATOM      9  C   UNL     1       7.124   4.949  14.722  0.00  0.00    +0.000 A 
ATOM     10  C   UNL     1       7.204   5.383  16.046  0.00  0.00    +0.000 A 
ATOM     11  C   UNL     1       6.249   5.002  17.000  0.00  0.00    +0.000 A 
ENDROOT
BRANCH   4  12
ATOM     12  C   UNL     1       3.256   3.596  19.638  0.00  0.00    +0.000 A 
ATOM     13  C   UNL     1       2.089   4.352  19.424  0.00  0.00    +0.000 A 
ATOM     14  C   UNL     1       0.973   4.191  20.249  0.00  0.00    +0.000 A 
ATOM     15  C   UNL     1       1.004   3.276  21.299  0.00  0.00    +0.000 A 
ATOM     16  C   UNL     1       2.145   2.511  21.521  0.00  0.00    +0.000 A 
ATOM     17  C   UNL     1       3.259   2.671  20.698  0.00  0.00    +0.000 A 
ENDBRANCH   4  12
BRANCH   4  18
ATOM     18  O   UNL     1       5.509   2.871  19.223  0.00  0.00    +0.000 OA
ATOM     19  H   UNL     1       5.874   3.275  20.032  0.00  0.00    +0.000 HD
ENDBRANCH   4  18
TORSDOF 2
ENDMDL
MODEL 3
REMARK VINA RESULT:      -7.6      0.993      1.127
REMARK  Name = 
REMARK  3 active torsions:
REMARK  status: ('A' for Active; 'I' for Inactive)
REMARK    1  A    between atoms: C_1  and  N_2
REMARK    2  A    between atoms: C_4  and  O_5
REMARK    3  A    between atoms: C_4  and  C_6
REMARK                            x       y       z     vdW  Elec       q    Type
REMARK                         _______ _______ _______ _____ _____    ______ ____
ROOT
ATOM      1  C   UNL     1       7.474   6.233  18.552  0.00  0.00    +0.000 C 
ATOM      2  N   UNL     1       6.348   5.578  17.920  0.00  0.00    +0.000 N 
ATOM      3  C   UNL     1       5.049   5.500  18.599  0.00  0.00    +0.000 C 
ATOM      4  C   UNL     1       4.458   4.084  18.351  0.00  0.00    +0.000 C 
ATOM      5  O   UNL     1       4.244   3.867  16.942  0.00  0.00    +0.000 OA
ATOM      6  C   UNL     1       5.292   4.285  16.148  0.00  0.00    +0.000 A 
ATOM      7  C   UNL     1       5.257   3.811  14.833  0.00  0.00    +0.000 A 
ATOM      8  C   UNL     1       6.286   4.139  13.950  0.00  0.00    +0.000 A 
ATOM      9  C   UNL     1       7.343   4.935  14.389  0.00  0.00    +0.000 A 
ATOM     10  C   UNL     1       7.372   5.409  15.702  0.00  0.00    +0.000 A 
ATOM     11  C   UNL     1       6.348   5.110  16.611  0.00  0.00    +0.000 A 
ENDROOT
BRANCH   4  12
ATOM     12  C   UNL     1       3.144   3.946  19.117  0.00  0.00    +0.000 A 
ATOM     13  C   UNL     1       2.190   2.975  18.765  0.00  0.00    +0.000 A 
ATOM     14  C   UNL     1       0.955   2.918  19.418  0.00  0.00    +0.000 A 
ATOM     15  C   UNL     1       0.655   3.827  20.430  0.00  0.00    +0.000 A 
ATOM     16  C   UNL     1       1.589   4.789  20.800  0.00  0.00    +0.000 A 
ATOM     17  C   UNL     1       2.821   4.847  20.149  0.00  0.00    +0.000 A 
ENDBRANCH   4  12
BRANCH   4  18
ATOM     18  O   UNL     1       5.375   3.095  18.853  0.00  0.00    +0.000 OA
ATOM     19  H   UNL     1       4.976   2.256  18.555  0.00  0.00    +0.000 HD
ENDBRANCH   4  18
TORSDOF 2
ENDMDL
MODEL 4
REMARK VINA RESULT:      -7.4      1.732      6.014
REMARK  Name = 
REMARK  3 active torsions:
REMARK  status: ('A' for Active; 'I' for Inactive)
REMARK    1  A    between atoms: C_1  and  N_2
REMARK    2  A    between atoms: C_4  and  O_5
REMARK    3  A    between atoms: C_4  and  C_6
REMARK                            x       y       z     vdW  Elec       q    Type
REMARK                         _______ _______ _______ _____ _____    ______ ____
ROOT
ATOM      1  C   UNL     1       7.087   5.575  19.216  0.00  0.00    +0.000 C 
ATOM      2  N   UNL     1       6.165   5.066  18.222  0.00  0.00    +0.000 N 
ATOM      3  C   UNL     1       6.656   4.568  16.931  0.00  0.00    +0.000 C 
ATOM      4  C   UNL     1       5.684   5.059  15.821  0.00  0.00    +0.000 C 
ATOM      5  O   UNL     1       4.362   4.525  16.037  0.00  0.00    +0.000 OA
ATOM      6  C   UNL     1       3.942   4.591  17.350  0.00  0.00    +0.000 A 
ATOM      7  C   UNL     1       2.573   4.380  17.539  0.00  0.00    +0.000 A 
ATOM      8  C   UNL     1       2.029   4.461  18.821  0.00  0.00    +0.000 A 
ATOM      9  C   UNL     1       2.857   4.755  19.903  0.00  0.00    +0.000 A 
ATOM     10  C   UNL     1       4.224   4.962  19.711  0.00  0.00    +0.000 A 
ATOM     11  C   UNL     1       4.806   4.875  18.438  0.00  0.00    +0.000 A 
ENDROOT
BRANCH   4  12
ATOM     12  C   UNL     1       6.217   4.625  14.458  0.00  0.00    +0.000 A 
ATOM     13  C   UNL     1       7.385   5.188  13.915  0.00  0.00    +0.000 A 
ATOM     14  C   UNL     1       7.813   4.846  12.629  0.00  0.00    +0.000 A 
ATOM     15  C   UNL     1       7.082   3.936  11.867  0.00  0.00    +0.000 A 
ATOM     16  C   UNL     1       5.929   3.360  12.390  0.00  0.00    +0.000 A 
ATOM     17  C   UNL     1       5.501   3.702  13.672  0.00  0.00    +0.000 A 
ENDBRANCH   4  12
BRANCH   4  18
ATOM     18  O   UNL     1       5.628   6.497  15.844  0.00  0.00    +0.000 OA
ATOM     19  H   UNL     1       6.509   6.745  16.182  0.00  0.00    +0.000 HD
ENDBRANCH   4  18
TORSDOF 2
ENDMDL
MODEL 5
REMARK VINA RESULT:      -7.2      1.607      6.020
REMARK  Name = 
REMARK  3 active torsions:
REMARK  status: ('A' for Active; 'I' for Inactive)
REMARK    1  A    between atoms: C_1  and  N_2
REMARK    2  A    between atoms: C_4  and  O_5
REMARK    3  A    between atoms: C_4  and  C_6
REMARK                            x       y       z     vdW  Elec       q    Type
REMARK                         _______ _______ _______ _____ _____    ______ ____
ROOT
ATOM      1  C   UNL     1       6.987   5.553  19.155  0.00  0.00    +0.000 C 
ATOM      2  N   UNL     1       6.075   4.992  18.181  0.00  0.00    +0.000 N 
ATOM      3  C   UNL     1       6.555   4.577  16.857  0.00  0.00    +0.000 C 
ATOM      4  C   UNL     1       5.498   5.010  15.801  0.00  0.00    +0.000 C 
ATOM      5  O   UNL     1       4.239   4.353  16.051  0.00  0.00    +0.000 OA
ATOM      6  C   UNL     1       3.869   4.343  17.380  0.00  0.00    +0.000 A 
ATOM      7  C   UNL     1       2.533   4.005  17.614  0.00  0.00    +0.000 A 
ATOM      8  C   UNL     1       2.037   3.999  18.918  0.00  0.00    +0.000 A 
ATOM      9  C   UNL     1       2.879   4.336  19.977  0.00  0.00    +0.000 A 
ATOM     10  C   UNL     1       4.213   4.671  19.739  0.00  0.00    +0.000 A 
ATOM     11  C   UNL     1       4.748   4.673  18.442  0.00  0.00    +0.000 A 
ENDROOT
BRANCH   4  12
ATOM     12  C   UNL     1       6.011   4.665  14.405  0.00  0.00    +0.000 A 
ATOM     13  C   UNL     1       5.341   3.738  13.587  0.00  0.00    +0.000 A 
ATOM     14  C   UNL     1       5.869   3.367  12.348  0.00  0.00    +0.000 A 
ATOM     15  C   UNL     1       7.072   3.915  11.906  0.00  0.00    +0.000 A 
ATOM     16  C   UNL     1       7.745   4.842  12.696  0.00  0.00    +0.000 A 
ATOM     17  C   UNL     1       7.219   5.212  13.933  0.00  0.00    +0.000 A 
ENDBRANCH   4  12
BRANCH   4  18
ATOM     18  O   UNL     1       5.316   6.435  15.873  0.00  0.00    +0.000 OA
ATOM     19  H   UNL     1       6.085   6.728  16.397  0.00  0.00    +0.000 HD
ENDBRANCH   4  18
TORSDOF 2
ENDMDL
MODEL 6
REMARK VINA RESULT:      -6.9      2.308      6.049
REMARK  Name = 
REMARK  3 active torsions:
REMARK  status: ('A' for Active; 'I' for Inactive)
REMARK    1  A    between atoms: C_1  and  N_2
REMARK    2  A    between atoms: C_4  and  O_5
REMARK    3  A    between atoms: C_4  and  C_6
REMARK                            x       y       z     vdW  Elec       q    Type
REMARK                         _______ _______ _______ _____ _____    ______ ____
ROOT
ATOM      1  C   UNL     1       4.677   3.188  19.336  0.00  0.00    +0.000 C 
ATOM      2  N   UNL     1       4.523   4.142  18.258  0.00  0.00    +0.000 N 
ATOM      3  C   UNL     1       4.943   3.805  16.893  0.00  0.00    +0.000 C 
ATOM      4  C   UNL     1       5.634   5.054  16.277  0.00  0.00    +0.000 C 
ATOM      5  O   UNL     1       4.707   6.157  16.203  0.00  0.00    +0.000 OA
ATOM      6  C   UNL     1       3.950   6.326  17.345  0.00  0.00    +0.000 A 
ATOM      7  C   UNL     1       3.284   7.552  17.430  0.00  0.00    +0.000 A 
ATOM      8  C   UNL     1       2.518   7.847  18.558  0.00  0.00    +0.000 A 
ATOM      9  C   UNL     1       2.428   6.917  19.593  0.00  0.00    +0.000 A 
ATOM     10  C   UNL     1       3.094   5.694  19.503  0.00  0.00    +0.000 A 
ATOM     11  C   UNL     1       3.860   5.359  18.377  0.00  0.00    +0.000 A 
ENDROOT
BRANCH   4  12
ATOM     12  C   UNL     1       6.156   4.705  14.885  0.00  0.00    +0.000 A 
ATOM     13  C   UNL     1       7.349   5.259  14.390  0.00  0.00    +0.000 A 
ATOM     14  C   UNL     1       7.769   4.999  13.083  0.00  0.00    +0.000 A 
ATOM     15  C   UNL     1       7.006   4.182  12.250  0.00  0.00    +0.000 A 
ATOM     16  C   UNL     1       5.827   3.615  12.725  0.00  0.00    +0.000 A 
ATOM     17  C   UNL     1       5.407   3.875  14.029  0.00  0.00    +0.000 A 
ENDBRANCH   4  12
BRANCH   4  18
ATOM     18  O   UNL     1       6.756   5.426  17.097  0.00  0.00    +0.000 OA
ATOM     19  H   UNL     1       7.144   6.177  16.609  0.00  0.00    +0.000 HD
ENDBRANCH   4  18
TORSDOF 2
ENDMDL
MODEL 7
REMARK VINA RESULT:      -6.9      3.168      3.815
REMARK  Name = 
REMARK  3 active torsions:
REMARK  status: ('A' for Active; 'I' for Inactive)
REMARK    1  A    between atoms: C_1  and  N_2
REMARK    2  A    between atoms: C_4  and  O_5
REMARK    3  A    between atoms: C_4  and  C_6
REMARK                            x       y       z     vdW  Elec       q    Type
REMARK                         _______ _______ _______ _____ _____    ______ ____
ROOT
ATOM      1  C   UNL     1       4.666   3.261  19.413  0.00  0.00    +0.000 C 
ATOM      2  N   UNL     1       4.530   4.510  18.693  0.00  0.00    +0.000 N 
ATOM      3  C   UNL     1       3.923   5.683  19.335  0.00  0.00    +0.000 C 
ATOM      4  C   UNL     1       3.005   6.383  18.294  0.00  0.00    +0.000 C 
ATOM      5  O   UNL     1       3.780   6.838  17.165  0.00  0.00    +0.000 OA
ATOM      6  C   UNL     1       4.697   5.913  16.710  0.00  0.00    +0.000 A 
ATOM      7  C   UNL     1       5.230   6.189  15.447  0.00  0.00    +0.000 A 
ATOM      8  C   UNL     1       6.139   5.302  14.870  0.00  0.00    +0.000 A 
ATOM      9  C   UNL     1       6.505   4.146  15.557  0.00  0.00    +0.000 A 
ATOM     10  C   UNL     1       5.972   3.875  16.818  0.00  0.00    +0.000 A 
ATOM     11  C   UNL     1       5.067   4.751  17.433  0.00  0.00    +0.000 A 
ENDROOT
BRANCH   4  12
ATOM     12  C   UNL     1       2.296   7.560  18.960  0.00  0.00    +0.000 A 
ATOM     13  C   UNL     1       1.894   7.505  20.307  0.00  0.00    +0.000 A 
ATOM     14  C   UNL     1       1.169   8.554  20.878  0.00  0.00    +0.000 A 
ATOM     15  C   UNL     1       0.834   9.672  20.116  0.00  0.00    +0.000 A 
ATOM     16  C   UNL     1       1.231   9.750  18.786  0.00  0.00    +0.000 A 
ATOM     17  C   UNL     1       1.955   8.703  18.214  0.00  0.00    +0.000 A 
ENDBRANCH   4  12
BRANCH   4  18
ATOM     18  O   UNL     1       2.005   5.452  17.843  0.00  0.00    +0.000 OA
ATOM     19  H   UNL     1       1.227   5.691  18.381  0.00  0.00    +0.000 HD
ENDBRANCH   4  18
TORSDOF 2
ENDMDL
MODEL 8
REMARK VINA RESULT:      -6.9      2.332      6.095
REMARK  Name = 
REMARK  3 active torsions:
REMARK  status: ('A' for Active; 'I' for Inactive)
REMARK    1  A    between atoms: C_1  and  N_2
REMARK    2  A    between atoms: C_4  and  O_5
REMARK    3  A    between atoms: C_4  and  C_6
REMARK                            x       y       z     vdW  Elec       q    Type
REMARK                         _______ _______ _______ _____ _____    ______ ____
ROOT
ATOM      1  C   UNL     1       4.612   3.143  19.227  0.00  0.00    +0.000 C 
ATOM      2  N   UNL     1       4.452   4.133  18.182  0.00  0.00    +0.000 N 
ATOM      3  C   UNL     1       4.839   3.831  16.799  0.00  0.00    +0.000 C 
ATOM      4  C   UNL     1       5.539   5.087  16.207  0.00  0.00    +0.000 C 
ATOM      5  O   UNL     1       4.630   6.207  16.187  0.00  0.00    +0.000 OA
ATOM      6  C   UNL     1       3.899   6.353  17.348  0.00  0.00    +0.000 A 
ATOM      7  C   UNL     1       3.256   7.586  17.486  0.00  0.00    +0.000 A 
ATOM      8  C   UNL     1       2.518   7.859  18.638  0.00  0.00    +0.000 A 
ATOM      9  C   UNL     1       2.433   6.899  19.645  0.00  0.00    +0.000 A 
ATOM     10  C   UNL     1       3.075   5.668  19.503  0.00  0.00    +0.000 A 
ATOM     11  C   UNL     1       3.813   5.355  18.353  0.00  0.00    +0.000 A 
ENDROOT
BRANCH   4  12
ATOM     12  C   UNL     1       6.026   4.773  14.795  0.00  0.00    +0.000 A 
ATOM     13  C   UNL     1       5.338   3.869  13.966  0.00  0.00    +0.000 A 
ATOM     14  C   UNL     1       5.844   3.525  12.710  0.00  0.00    +0.000 A 
ATOM     15  C   UNL     1       7.042   4.077  12.261  0.00  0.00    +0.000 A 
ATOM     16  C   UNL     1       7.732   4.982  13.061  0.00  0.00    +0.000 A 
ATOM     17  C   UNL     1       7.229   5.326  14.315  0.00  0.00    +0.000 A 
ENDBRANCH   4  12
BRANCH   4  18
ATOM     18  O   UNL     1       6.683   5.415  17.015  0.00  0.00    +0.000 OA
ATOM     19  H   UNL     1       6.633   6.387  17.081  0.00  0.00    +0.000 HD
ENDBRANCH   4  18
TORSDOF 2
ENDMDL
MODEL 9
REMARK VINA RESULT:      -6.8      1.817      5.950
REMARK  Name = 
REMARK  3 active torsions:
REMARK  status: ('A' for Active; 'I' for Inactive)
REMARK    1  A    between atoms: C_1  and  N_2
REMARK    2  A    between atoms: C_4  and  O_5
REMARK    3  A    between atoms: C_4  and  C_6
REMARK                            x       y       z     vdW  Elec       q    Type
REMARK                         _______ _______ _______ _____ _____    ______ ____
ROOT
ATOM      1  C   UNL     1       2.358   1.823  18.950  0.00  0.00    +0.000 C 
ATOM      2  N   UNL     1       2.843   3.119  18.524  0.00  0.00    +0.000 N 
ATOM      3  C   UNL     1       3.601   3.263  17.275  0.00  0.00    +0.000 C 
ATOM      4  C   UNL     1       4.767   4.259  17.528  0.00  0.00    +0.000 C 
ATOM      5  O   UNL     1       4.252   5.556  17.895  0.00  0.00    +0.000 OA
ATOM      6  C   UNL     1       3.224   5.507  18.813  0.00  0.00    +0.000 A 
ATOM      7  C   UNL     1       2.921   6.730  19.419  0.00  0.00    +0.000 A 
ATOM      8  C   UNL     1       1.923   6.793  20.392  0.00  0.00    +0.000 A 
ATOM      9  C   UNL     1       1.239   5.634  20.754  0.00  0.00    +0.000 A 
ATOM     10  C   UNL     1       1.543   4.415  20.145  0.00  0.00    +0.000 A 
ATOM     11  C   UNL     1       2.530   4.319  19.154  0.00  0.00    +0.000 A 
ENDROOT
BRANCH   4  12
ATOM     12  C   UNL     1       5.622   4.364  16.268  0.00  0.00    +0.000 A 
ATOM     13  C   UNL     1       6.879   4.993  16.285  0.00  0.00    +0.000 A 
ATOM     14  C   UNL     1       7.612   5.159  15.106  0.00  0.00    +0.000 A 
ATOM     15  C   UNL     1       7.102   4.698  13.894  0.00  0.00    +0.000 A 
ATOM     16  C   UNL     1       5.865   4.063  13.857  0.00  0.00    +0.000 A 
ATOM     17  C   UNL     1       5.133   3.898  15.033  0.00  0.00    +0.000 A 
ENDBRANCH   4  12
BRANCH   4  18
ATOM     18  O   UNL     1       5.596   3.756  18.592  0.00  0.00    +0.000 OA
ATOM     19  H   UNL     1       5.537   4.459  19.266  0.00  0.00    +0.000 HD
ENDBRANCH   4  18
TORSDOF 2
ENDMDL
