MODEL 1
REMARK VINA RESULT:      -8.0      0.000      0.000
REMARK  Name = 
REMARK  8 active torsions:
REMARK  status: ('A' for Active; 'I' for Inactive)
REMARK    1  A    between atoms: C_1  and  C_2
REMARK    2  A    between atoms: C_6  and  C_7
REMARK    3  A    between atoms: C_8  and  O_9
REMARK    4  A    between atoms: O_9  and  C_10
REMARK    5  A    between atoms: C_10  and  C_11
REMARK    6  A    between atoms: N_13  and  C_14
REMARK    7  A    between atoms: C_18  and  N_19
REMARK    8  A    between atoms: C_20  and  C_22
REMARK                            x       y       z     vdW  Elec       q    Type
REMARK                         _______ _______ _______ _____ _____    ______ ____
ROOT
ATOM      1  C   UNL     1       4.989   4.403  19.012  0.00  0.00    +0.000 A 
ATOM      2  C   UNL     1       5.965   5.338  19.363  0.00  0.00    +0.000 A 
ATOM      3  C   UNL     1       6.763   5.913  18.381  0.00  0.00    +0.000 A 
ATOM      4  C   UNL     1       6.613   5.525  17.051  0.00  0.00    +0.000 A 
ATOM      5  C   UNL     1       5.689   4.537  16.694  0.00  0.00    +0.000 A 
ATOM      6  C   UNL     1       4.878   3.973  17.688  0.00  0.00    +0.000 A 
ENDROOT
BRANCH   1   9
ATOM      7  C   UNL     1       2.845   4.239  20.252  0.00  0.00    +0.000 C 
ATOM      8  O   UNL     1       2.209   3.617  21.107  0.00  0.00    +0.000 OA
ATOM      9  N   UNL     1       4.137   3.848  19.976  0.00  0.00    +0.000 N 
ATOM     10  H   UNL     1       4.314   2.899  20.285  0.00  0.00    +0.000 HD
BRANCH   7  11
ATOM     11  C   UNL     1       2.206   5.373  19.448  0.00  0.00    +0.000 C 
BRANCH  11  12
ATOM     12  O   UNL     1       2.664   6.624  19.931  0.00  0.00    +0.000 OA
BRANCH  12  20
ATOM     13  C   UNL     1       0.624   8.280  21.684  0.00  0.00    +0.000 C 
ATOM     14  C   UNL     1       1.142   8.581  20.305  0.00  0.00    +0.000 A 
ATOM     15  C   UNL     1       0.672   9.788  19.741  0.00  0.00    +0.000 A 
ATOM     16  C   UNL     1       1.081  10.222  18.486  0.00  0.00    +0.000 A 
ATOM     17  C   UNL     1       1.980   9.458  17.760  0.00  0.00    +0.000 A 
ATOM     18  C   UNL     1       2.476   8.256  18.288  0.00  0.00    +0.000 A 
ATOM     19  C   UNL     1       3.464   7.469  17.461  0.00  0.00    +0.000 C 
ATOM     20  C   UNL     1       2.058   7.800  19.568  0.00  0.00    +0.000 A 
ENDBRANCH  12  20
ENDBRANCH  11  12
ENDBRANCH   7  11
ENDBRANCH   1   9
BRANCH   5  21
ATOM     21  N   UNL     1       5.516   4.084  15.368  0.00  0.00    +0.000 N 
ATOM     22  C   UNL     1       6.406   4.237  14.320  0.00  0.00    +0.000 C 
ATOM     23  O   UNL     1       7.503   4.779  14.398  0.00  0.00    +0.000 OA
ATOM     24  H   UNL     1       4.691   3.536  15.161  0.00  0.00    +0.000 HD
BRANCH  22  25
ATOM     25  C   UNL     1       5.947   3.645  13.082  0.00  0.00    +0.000 A 
ATOM     26  C   UNL     1       6.639   2.915  12.133  0.00  0.00    +0.000 A 
ATOM     27  C   UNL     1       5.706   2.565  11.132  0.00  0.00    +0.000 A 
ATOM     28  C   UNL     1       4.504   3.103  11.522  0.00  0.00    +0.000 A 
ATOM     29  O   UNL     1       4.633   3.757  12.707  0.00  0.00    +0.000 OA
ENDBRANCH  22  25
ENDBRANCH   5  21
TORSDOF 6
ENDMDL
MODEL 2
REMARK VINA RESULT:      -7.9      2.044      4.010
REMARK  Name = 
REMARK  8 active torsions:
REMARK  status: ('A' for Active; 'I' for Inactive)
REMARK    1  A    between atoms: C_1  and  C_2
REMARK    2  A    between atoms: C_6  and  C_7
REMARK    3  A    between atoms: C_8  and  O_9
REMARK    4  A    between atoms: O_9  and  C_10
REMARK    5  A    between atoms: C_10  and  C_11
REMARK    6  A    between atoms: N_13  and  C_14
REMARK    7  A    between atoms: C_18  and  N_19
REMARK    8  A    between atoms: C_20  and  C_22
REMARK                            x       y       z     vdW  Elec       q    Type
REMARK                         _______ _______ _______ _____ _____    ______ ____
ROOT
ATOM      1  C   UNL     1       5.518   6.676  17.073  0.00  0.00    +0.000 A 
ATOM      2  C   UNL     1       6.424   6.391  18.097  0.00  0.00    +0.000 A 
ATOM      3  C   UNL     1       7.327   5.344  17.956  0.00  0.00    +0.000 A 
ATOM      4  C   UNL     1       7.299   4.555  16.807  0.00  0.00    +0.000 A 
ATOM      5  C   UNL     1       6.349   4.784  15.806  0.00  0.00    +0.000 A 
ATOM      6  C   UNL     1       5.453   5.850  15.949  0.00  0.00    +0.000 A 
ENDROOT
BRANCH   1   9
ATOM      7  C   UNL     1       3.285   7.691  17.447  0.00  0.00    +0.000 C 
ATOM      8  O   UNL     1       2.648   8.744  17.539  0.00  0.00    +0.000 OA
ATOM      9  N   UNL     1       4.633   7.758  17.169  0.00  0.00    +0.000 N 
ATOM     10  H   UNL     1       5.012   8.674  17.378  0.00  0.00    +0.000 HD
BRANCH   7  11
ATOM     11  C   UNL     1       2.628   6.334  17.709  0.00  0.00    +0.000 C 
BRANCH  11  12
ATOM     12  O   UNL     1       3.141   5.774  18.905  0.00  0.00    +0.000 OA
BRANCH  12  20
ATOM     13  C   UNL     1       3.977   2.925  17.824  0.00  0.00    +0.000 C 
ATOM     14  C   UNL     1       3.030   3.269  18.941  0.00  0.00    +0.000 A 
ATOM     15  C   UNL     1       2.472   2.159  19.613  0.00  0.00    +0.000 A 
ATOM     16  C   UNL     1       1.603   2.310  20.687  0.00  0.00    +0.000 A 
ATOM     17  C   UNL     1       1.272   3.582  21.122  0.00  0.00    +0.000 A 
ATOM     18  C   UNL     1       1.810   4.712  20.486  0.00  0.00    +0.000 A 
ATOM     19  C   UNL     1       1.427   6.074  21.008  0.00  0.00    +0.000 C 
ATOM     20  C   UNL     1       2.695   4.567  19.381  0.00  0.00    +0.000 A 
ENDBRANCH  12  20
ENDBRANCH  11  12
ENDBRANCH   7  11
ENDBRANCH   1   9
BRANCH   5  21
ATOM     21  N   UNL     1       6.255   3.998  14.637  0.00  0.00    +0.000 N 
ATOM     22  C   UNL     1       6.801   4.288  13.399  0.00  0.00    +0.000 C 
ATOM     23  O   UNL     1       7.477   5.277  13.139  0.00  0.00    +0.000 OA
ATOM     24  H   UNL     1       5.798   3.098  14.710  0.00  0.00    +0.000 HD
BRANCH  22  25
ATOM     25  C   UNL     1       6.544   3.271  12.402  0.00  0.00    +0.000 A 
ATOM     26  C   UNL     1       7.425   2.554  11.614  0.00  0.00    +0.000 A 
ATOM     27  C   UNL     1       6.643   1.680  10.825  0.00  0.00    +0.000 A 
ATOM     28  C   UNL     1       5.335   1.918  11.171  0.00  0.00    +0.000 A 
ATOM     29  O   UNL     1       5.259   2.877  12.132  0.00  0.00    +0.000 OA
ENDBRANCH  22  25
ENDBRANCH   5  21
TORSDOF 6
ENDMDL
MODEL 3
REMARK VINA RESULT:      -7.7      3.580      6.213
REMARK  Name = 
REMARK  8 active torsions:
REMARK  status: ('A' for Active; 'I' for Inactive)
REMARK    1  A    between atoms: C_1  and  C_2
REMARK    2  A    between atoms: C_6  and  C_7
REMARK    3  A    between atoms: C_8  and  O_9
REMARK    4  A    between atoms: O_9  and  C_10
REMARK    5  A    between atoms: C_10  and  C_11
REMARK    6  A    between atoms: N_13  and  C_14
REMARK    7  A    between atoms: C_18  and  N_19
REMARK    8  A    between atoms: C_20  and  C_22
REMARK                            x       y       z     vdW  Elec       q    Type
REMARK                         _______ _______ _______ _____ _____    ______ ____
ROOT
ATOM      1  C   UNL     1       6.506   4.966  18.439  0.00  0.00    +0.000 A 
ATOM      2  C   UNL     1       6.320   4.834  17.061  0.00  0.00    +0.000 A 
ATOM      3  C   UNL     1       6.910   5.742  16.189  0.00  0.00    +0.000 A 
ATOM      4  C   UNL     1       7.655   6.806  16.697  0.00  0.00    +0.000 A 
ATOM      5  C   UNL     1       7.788   6.991  18.077  0.00  0.00    +0.000 A 
ATOM      6  C   UNL     1       7.203   6.064  18.947  0.00  0.00    +0.000 A 
ENDROOT
BRANCH   1   9
ATOM      7  C   UNL     1       4.801   3.317  19.167  0.00  0.00    +0.000 C 
ATOM      8  O   UNL     1       4.481   2.500  20.035  0.00  0.00    +0.000 OA
ATOM      9  N   UNL     1       5.965   4.035  19.335  0.00  0.00    +0.000 N 
ATOM     10  H   UNL     1       6.585   3.590  20.001  0.00  0.00    +0.000 HD
BRANCH   7  11
ATOM     11  C   UNL     1       3.979   3.486  17.888  0.00  0.00    +0.000 C 
BRANCH  11  12
ATOM     12  O   UNL     1       2.665   3.904  18.212  0.00  0.00    +0.000 OA
BRANCH  12  20
ATOM     13  C   UNL     1       3.590   6.820  17.427  0.00  0.00    +0.000 C 
ATOM     14  C   UNL     1       2.819   6.371  18.636  0.00  0.00    +0.000 A 
ATOM     15  C   UNL     1       2.432   7.405  19.517  0.00  0.00    +0.000 A 
ATOM     16  C   UNL     1       1.689   7.156  20.664  0.00  0.00    +0.000 A 
ATOM     17  C   UNL     1       1.306   5.858  20.960  0.00  0.00    +0.000 A 
ATOM     18  C   UNL     1       1.665   4.802  20.108  0.00  0.00    +0.000 A 
ATOM     19  C   UNL     1       1.212   3.409  20.470  0.00  0.00    +0.000 C 
ATOM     20  C   UNL     1       2.432   5.046  18.935  0.00  0.00    +0.000 A 
ENDBRANCH  12  20
ENDBRANCH  11  12
ENDBRANCH   7  11
ENDBRANCH   1   9
BRANCH   5  21
ATOM     21  N   UNL     1       8.504   8.068  18.645  0.00  0.00    +0.000 N 
ATOM     22  C   UNL     1       8.390   9.405  18.309  0.00  0.00    +0.000 C 
ATOM     23  O   UNL     1       7.621   9.860  17.470  0.00  0.00    +0.000 OA
ATOM     24  H   UNL     1       9.123   7.865  19.420  0.00  0.00    +0.000 HD
BRANCH  22  25
ATOM     25  C   UNL     1       9.250  10.270  19.088  0.00  0.00    +0.000 A 
ATOM     26  C   UNL     1      10.399  10.946  18.722  0.00  0.00    +0.000 A 
ATOM     27  C   UNL     1      10.832  11.658  19.864  0.00  0.00    +0.000 A 
ATOM     28  C   UNL     1       9.929  11.372  20.858  0.00  0.00    +0.000 A 
ATOM     29  O   UNL     1       8.960  10.535  20.401  0.00  0.00    +0.000 OA
ENDBRANCH  22  25
ENDBRANCH   5  21
TORSDOF 6
ENDMDL
MODEL 4
REMARK VINA RESULT:      -7.7      3.969      6.551
REMARK  Name = 
REMARK  8 active torsions:
REMARK  status: ('A' for Active; 'I' for Inactive)
REMARK    1  A    between atoms: C_1  and  C_2
REMARK    2  A    between atoms: C_6  and  C_7
REMARK    3  A    between atoms: C_8  and  O_9
REMARK    4  A    between atoms: O_9  and  C_10
REMARK    5  A    between atoms: C_10  and  C_11
REMARK    6  A    between atoms: N_13  and  C_14
REMARK    7  A    between atoms: C_18  and  N_19
REMARK    8  A    between atoms: C_20  and  C_22
REMARK                            x       y       z     vdW  Elec       q    Type
REMARK                         _______ _______ _______ _____ _____    ______ ____
ROOT
ATOM      1  C   UNL     1       7.170   5.672  16.635  0.00  0.00    +0.000 A 
ATOM      2  C   UNL     1       7.438   4.956  17.803  0.00  0.00    +0.000 A 
ATOM      3  C   UNL     1       7.874   5.622  18.943  0.00  0.00    +0.000 A 
ATOM      4  C   UNL     1       8.081   7.000  18.903  0.00  0.00    +0.000 A 
ATOM      5  C   UNL     1       7.886   7.719  17.719  0.00  0.00    +0.000 A 
ATOM      6  C   UNL     1       7.433   7.043  16.580  0.00  0.00    +0.000 A 
ENDROOT
BRANCH   1   9
ATOM      7  C   UNL     1       5.620   4.155  15.429  0.00  0.00    +0.000 C 
ATOM      8  O   UNL     1       5.285   3.707  14.329  0.00  0.00    +0.000 OA
ATOM      9  N   UNL     1       6.681   5.032  15.488  0.00  0.00    +0.000 N 
ATOM     10  H   UNL     1       6.871   5.450  14.585  0.00  0.00    +0.000 HD
BRANCH   7  11
ATOM     11  C   UNL     1       4.838   3.819  16.701  0.00  0.00    +0.000 C 
BRANCH  11  12
ATOM     12  O   UNL     1       3.675   4.624  16.777  0.00  0.00    +0.000 OA
BRANCH  12  20
ATOM     13  C   UNL     1       2.187   2.393  18.447  0.00  0.00    +0.000 C 
ATOM     14  C   UNL     1       2.328   3.859  18.750  0.00  0.00    +0.000 A 
ATOM     15  C   UNL     1       1.742   4.277  19.965  0.00  0.00    +0.000 A 
ATOM     16  C   UNL     1       1.813   5.594  20.402  0.00  0.00    +0.000 A 
ATOM     17  C   UNL     1       2.481   6.532  19.632  0.00  0.00    +0.000 A 
ATOM     18  C   UNL     1       3.082   6.157  18.421  0.00  0.00    +0.000 A 
ATOM     19  C   UNL     1       3.808   7.215  17.628  0.00  0.00    +0.000 C 
ATOM     20  C   UNL     1       3.009   4.812  17.962  0.00  0.00    +0.000 A 
ENDBRANCH  12  20
ENDBRANCH  11  12
ENDBRANCH   7  11
ENDBRANCH   1   9
BRANCH   5  21
ATOM     21  N   UNL     1       8.110   9.109  17.614  0.00  0.00    +0.000 N 
ATOM     22  C   UNL     1       8.803   9.904  18.510  0.00  0.00    +0.000 C 
ATOM     23  O   UNL     1       9.352   9.507  19.531  0.00  0.00    +0.000 OA
ATOM     24  H   UNL     1       7.791   9.576  16.775  0.00  0.00    +0.000 HD
BRANCH  22  25
ATOM     25  C   UNL     1       8.874  11.294  18.111  0.00  0.00    +0.000 A 
ATOM     26  C   UNL     1       9.938  12.176  18.144  0.00  0.00    +0.000 A 
ATOM     27  C   UNL     1       9.464  13.402  17.625  0.00  0.00    +0.000 A 
ATOM     28  C   UNL     1       8.143  13.200  17.311  0.00  0.00    +0.000 A 
ATOM     29  O   UNL     1       7.771  11.923  17.596  0.00  0.00    +0.000 OA
ENDBRANCH  22  25
ENDBRANCH   5  21
TORSDOF 6
ENDMDL
MODEL 5
REMARK VINA RESULT:      -7.7      3.862      6.819
REMARK  Name = 
REMARK  8 active torsions:
REMARK  status: ('A' for Active; 'I' for Inactive)
REMARK    1  A    between atoms: C_1  and  C_2
REMARK    2  A    between atoms: C_6  and  C_7
REMARK    3  A    between atoms: C_8  and  O_9
REMARK    4  A    between atoms: O_9  and  C_10
REMARK    5  A    between atoms: C_10  and  C_11
REMARK    6  A    between atoms: N_13  and  C_14
REMARK    7  A    between atoms: C_18  and  N_19
REMARK    8  A    between atoms: C_20  and  C_22
REMARK                            x       y       z     vdW  Elec       q    Type
REMARK                         _______ _______ _______ _____ _____    ______ ____
ROOT
ATOM      1  C   UNL     1       7.000   5.732  17.021  0.00  0.00    +0.000 A 
ATOM      2  C   UNL     1       6.826   4.724  17.971  0.00  0.00    +0.000 A 
ATOM      3  C   UNL     1       7.268   4.913  19.276  0.00  0.00    +0.000 A 
ATOM      4  C   UNL     1       7.919   6.095  19.622  0.00  0.00    +0.000 A 
ATOM      5  C   UNL     1       8.164   7.084  18.663  0.00  0.00    +0.000 A 
ATOM      6  C   UNL     1       7.703   6.892  17.355  0.00  0.00    +0.000 A 
ENDROOT
BRANCH   1   9
ATOM      7  C   UNL     1       5.546   4.706  15.292  0.00  0.00    +0.000 C 
ATOM      8  O   UNL     1       5.201   4.731  14.107  0.00  0.00    +0.000 OA
ATOM      9  N   UNL     1       6.518   5.587  15.714  0.00  0.00    +0.000 N 
ATOM     10  H   UNL     1       6.620   6.365  15.073  0.00  0.00    +0.000 HD
BRANCH   7  11
ATOM     11  C   UNL     1       4.866   3.781  16.303  0.00  0.00    +0.000 C 
BRANCH  11  12
ATOM     12  O   UNL     1       3.522   4.185  16.497  0.00  0.00    +0.000 OA
BRANCH  12  20
ATOM     13  C   UNL     1       3.768   7.143  17.579  0.00  0.00    +0.000 C 
ATOM     14  C   UNL     1       3.160   5.943  18.249  0.00  0.00    +0.000 A 
ATOM     15  C   UNL     1       2.595   6.190  19.519  0.00  0.00    +0.000 A 
ATOM     16  C   UNL     1       1.968   5.192  20.255  0.00  0.00    +0.000 A 
ATOM     17  C   UNL     1       1.885   3.912  19.732  0.00  0.00    +0.000 A 
ATOM     18  C   UNL     1       2.428   3.625  18.470  0.00  0.00    +0.000 A 
ATOM     19  C   UNL     1       2.298   2.217  17.942  0.00  0.00    +0.000 C 
ATOM     20  C   UNL     1       3.078   4.639  17.714  0.00  0.00    +0.000 A 
ENDBRANCH  12  20
ENDBRANCH  11  12
ENDBRANCH   7  11
ENDBRANCH   1   9
BRANCH   5  21
ATOM     21  N   UNL     1       8.846   8.286  18.951  0.00  0.00    +0.000 N 
ATOM     22  C   UNL     1       8.570   9.538  18.430  0.00  0.00    +0.000 C 
ATOM     23  O   UNL     1       7.662   9.793  17.646  0.00  0.00    +0.000 OA
ATOM     24  H   UNL     1       9.574   8.259  19.653  0.00  0.00    +0.000 HD
BRANCH  22  25
ATOM     25  C   UNL     1       9.439  10.578  18.936  0.00  0.00    +0.000 A 
ATOM     26  C   UNL     1      10.271  11.451  18.259  0.00  0.00    +0.000 A 
ATOM     27  C   UNL     1      10.881  12.270  19.236  0.00  0.00    +0.000 A 
ATOM     28  C   UNL     1      10.393  11.848  20.448  0.00  0.00    +0.000 A 
ATOM     29  O   UNL     1       9.512  10.825  20.282  0.00  0.00    +0.000 OA
ENDBRANCH  22  25
ENDBRANCH   5  21
TORSDOF 6
ENDMDL
MODEL 6
REMARK VINA RESULT:      -7.7      4.151      6.779
REMARK  Name = 
REMARK  8 active torsions:
REMARK  status: ('A' for Active; 'I' for Inactive)
REMARK    1  A    between atoms: C_1  and  C_2
REMARK    2  A    between atoms: C_6  and  C_7
REMARK    3  A    between atoms: C_8  and  O_9
REMARK    4  A    between atoms: O_9  and  C_10
REMARK    5  A    between atoms: C_10  and  C_11
REMARK    6  A    between atoms: N_13  and  C_14
REMARK    7  A    between atoms: C_18  and  N_19
REMARK    8  A    between atoms: C_20  and  C_22
REMARK                            x       y       z     vdW  Elec       q    Type
REMARK                         _______ _______ _______ _____ _____    ______ ____
ROOT
ATOM      1  C   UNL     1       7.116   5.948  16.659  0.00  0.00    +0.000 A 
ATOM      2  C   UNL     1       7.439   5.188  17.785  0.00  0.00    +0.000 A 
ATOM      3  C   UNL     1       7.940   5.810  18.924  0.00  0.00    +0.000 A 
ATOM      4  C   UNL     1       8.154   7.187  18.923  0.00  0.00    +0.000 A 
ATOM      5  C   UNL     1       7.903   7.950  17.778  0.00  0.00    +0.000 A 
ATOM      6  C   UNL     1       7.385   7.318  16.641  0.00  0.00    +0.000 A 
ENDROOT
BRANCH   1   9
ATOM      7  C   UNL     1       5.590   4.376  15.493  0.00  0.00    +0.000 C 
ATOM      8  O   UNL     1       5.176   3.983  14.399  0.00  0.00    +0.000 OA
ATOM      9  N   UNL     1       6.562   5.352  15.518  0.00  0.00    +0.000 N 
ATOM     10  H   UNL     1       6.605   5.859  14.642  0.00  0.00    +0.000 HD
BRANCH   7  11
ATOM     11  C   UNL     1       4.996   3.859  16.805  0.00  0.00    +0.000 C 
BRANCH  11  12
ATOM     12  O   UNL     1       3.620   4.189  16.872  0.00  0.00    +0.000 OA
BRANCH  12  20
ATOM     13  C   UNL     1       3.811   7.229  17.708  0.00  0.00    +0.000 C 
ATOM     14  C   UNL     1       3.124   6.098  18.421  0.00  0.00    +0.000 A 
ATOM     15  C   UNL     1       2.446   6.462  19.605  0.00  0.00    +0.000 A 
ATOM     16  C   UNL     1       1.737   5.537  20.363  0.00  0.00    +0.000 A 
ATOM     17  C   UNL     1       1.682   4.217  19.949  0.00  0.00    +0.000 A 
ATOM     18  C   UNL     1       2.337   3.815  18.774  0.00  0.00    +0.000 A 
ATOM     19  C   UNL     1       2.235   2.367  18.362  0.00  0.00    +0.000 C 
ATOM     20  C   UNL     1       3.071   4.753  17.997  0.00  0.00    +0.000 A 
ENDBRANCH  12  20
ENDBRANCH  11  12
ENDBRANCH   7  11
ENDBRANCH   1   9
BRANCH   5  21
ATOM     21  N   UNL     1       8.131   9.342  17.712  0.00  0.00    +0.000 N 
ATOM     22  C   UNL     1       8.864  10.102  18.605  0.00  0.00    +0.000 C 
ATOM     23  O   UNL     1       9.451   9.667  19.589  0.00  0.00    +0.000 OA
ATOM     24  H   UNL     1       7.781   9.838  16.903  0.00  0.00    +0.000 HD
BRANCH  22  25
ATOM     25  C   UNL     1       8.927  11.504  18.252  0.00  0.00    +0.000 A 
ATOM     26  C   UNL     1       8.041  12.282  17.530  0.00  0.00    +0.000 A 
ATOM     27  C   UNL     1       8.582  13.587  17.496  0.00  0.00    +0.000 A 
ATOM     28  C   UNL     1       9.765  13.530  18.190  0.00  0.00    +0.000 A 
ATOM     29  O   UNL     1       9.986  12.273  18.661  0.00  0.00    +0.000 OA
ENDBRANCH  22  25
ENDBRANCH   5  21
TORSDOF 6
ENDMDL
MODEL 7
REMARK VINA RESULT:      -7.7      3.111      5.595
REMARK  Name = 
REMARK  8 active torsions:
REMARK  status: ('A' for Active; 'I' for Inactive)
REMARK    1  A    between atoms: C_1  and  C_2
REMARK    2  A    between atoms: C_6  and  C_7
REMARK    3  A    between atoms: C_8  and  O_9
REMARK    4  A    between atoms: O_9  and  C_10
REMARK    5  A    between atoms: C_10  and  C_11
REMARK    6  A    between atoms: N_13  and  C_14
REMARK    7  A    between atoms: C_18  and  N_19
REMARK    8  A    between atoms: C_20  and  C_22
REMARK                            x       y       z     vdW  Elec       q    Type
REMARK                         _______ _______ _______ _____ _____    ______ ____
ROOT
ATOM      1  C   UNL     1       5.946   4.398  17.644  0.00  0.00    +0.000 A 
ATOM      2  C   UNL     1       5.924   3.922  16.332  0.00  0.00    +0.000 A 
ATOM      3  C   UNL     1       6.443   4.698  15.301  0.00  0.00    +0.000 A 
ATOM      4  C   UNL     1       6.949   5.967  15.577  0.00  0.00    +0.000 A 
ATOM      5  C   UNL     1       6.911   6.486  16.875  0.00  0.00    +0.000 A 
ATOM      6  C   UNL     1       6.400   5.692  17.910  0.00  0.00    +0.000 A 
ENDROOT
BRANCH   1   9
ATOM      7  C   UNL     1       4.249   2.996  18.788  0.00  0.00    +0.000 C 
ATOM      8  O   UNL     1       4.001   2.303  19.779  0.00  0.00    +0.000 OA
ATOM      9  N   UNL     1       5.476   3.616  18.707  0.00  0.00    +0.000 N 
ATOM     10  H   UNL     1       6.154   3.184  19.324  0.00  0.00    +0.000 HD
BRANCH   7  11
ATOM     11  C   UNL     1       3.259   3.113  17.628  0.00  0.00    +0.000 C 
BRANCH  11  12
ATOM     12  O   UNL     1       2.063   3.730  18.075  0.00  0.00    +0.000 OA
BRANCH  12  20
ATOM     13  C   UNL     1       3.201   6.523  17.137  0.00  0.00    +0.000 C 
ATOM     14  C   UNL     1       2.579   6.155  18.454  0.00  0.00    +0.000 A 
ATOM     15  C   UNL     1       2.460   7.217  19.377  0.00  0.00    +0.000 A 
ATOM     16  C   UNL     1       1.879   7.045  20.627  0.00  0.00    +0.000 A 
ATOM     17  C   UNL     1       1.393   5.799  20.987  0.00  0.00    +0.000 A 
ATOM     18  C   UNL     1       1.485   4.718  20.097  0.00  0.00    +0.000 A 
ATOM     19  C   UNL     1       0.928   3.386  20.534  0.00  0.00    +0.000 C 
ATOM     20  C   UNL     1       2.085   4.883  18.818  0.00  0.00    +0.000 A 
ENDBRANCH  12  20
ENDBRANCH  11  12
ENDBRANCH   7  11
ENDBRANCH   1   9
BRANCH   5  21
ATOM     21  N   UNL     1       7.380   7.776  17.205  0.00  0.00    +0.000 N 
ATOM     22  C   UNL     1       8.205   8.109  18.265  0.00  0.00    +0.000 C 
ATOM     23  O   UNL     1       8.674   7.316  19.073  0.00  0.00    +0.000 OA
ATOM     24  H   UNL     1       7.150   8.536  16.578  0.00  0.00    +0.000 HD
BRANCH  22  25
ATOM     25  C   UNL     1       8.524   9.520  18.326  0.00  0.00    +0.000 A 
ATOM     26  C   UNL     1       9.373  10.204  19.175  0.00  0.00    +0.000 A 
ATOM     27  C   UNL     1       9.325  11.563  18.788  0.00  0.00    +0.000 A 
ATOM     28  C   UNL     1       8.448  11.629  17.733  0.00  0.00    +0.000 A 
ATOM     29  O   UNL     1       7.957  10.396  17.437  0.00  0.00    +0.000 OA
ENDBRANCH  22  25
ENDBRANCH   5  21
TORSDOF 6
ENDMDL
MODEL 8
REMARK VINA RESULT:      -7.6      3.091      5.506
REMARK  Name = 
REMARK  8 active torsions:
REMARK  status: ('A' for Active; 'I' for Inactive)
REMARK    1  A    between atoms: C_1  and  C_2
REMARK    2  A    between atoms: C_6  and  C_7
REMARK    3  A    between atoms: C_8  and  O_9
REMARK    4  A    between atoms: O_9  and  C_10
REMARK    5  A    between atoms: C_10  and  C_11
REMARK    6  A    between atoms: N_13  and  C_14
REMARK    7  A    between atoms: C_18  and  N_19
REMARK    8  A    between atoms: C_20  and  C_22
REMARK                            x       y       z     vdW  Elec       q    Type
REMARK                         _______ _______ _______ _____ _____    ______ ____
ROOT
ATOM      1  C   UNL     1       5.945   4.492  18.329  0.00  0.00    +0.000 A 
ATOM      2  C   UNL     1       5.862   4.166  16.974  0.00  0.00    +0.000 A 
ATOM      3  C   UNL     1       6.570   4.908  16.035  0.00  0.00    +0.000 A 
ATOM      4  C   UNL     1       7.330   6.001  16.447  0.00  0.00    +0.000 A 
ATOM      5  C   UNL     1       7.364   6.383  17.792  0.00  0.00    +0.000 A 
ATOM      6  C   UNL     1       6.661   5.622  18.733  0.00  0.00    +0.000 A 
ENDROOT
BRANCH   1   9
ATOM      7  C   UNL     1       3.964   3.853  19.680  0.00  0.00    +0.000 C 
ATOM      8  O   UNL     1       3.517   3.072  20.525  0.00  0.00    +0.000 OA
ATOM      9  N   UNL     1       5.283   3.729  19.300  0.00  0.00    +0.000 N 
ATOM     10  H   UNL     1       5.654   2.815  19.530  0.00  0.00    +0.000 HD
BRANCH   7  11
ATOM     11  C   UNL     1       3.070   4.891  18.999  0.00  0.00    +0.000 C 
BRANCH  11  12
ATOM     12  O   UNL     1       3.118   6.112  19.717  0.00  0.00    +0.000 OA
BRANCH  12  20
ATOM     13  C   UNL     1       3.896   7.343  16.914  0.00  0.00    +0.000 C 
ATOM     14  C   UNL     1       2.937   7.875  17.943  0.00  0.00    +0.000 A 
ATOM     15  C   UNL     1       2.275   9.069  17.581  0.00  0.00    +0.000 A 
ATOM     16  C   UNL     1       1.337   9.671  18.411  0.00  0.00    +0.000 A 
ATOM     17  C   UNL     1       1.030   9.087  19.629  0.00  0.00    +0.000 A 
ATOM     18  C   UNL     1       1.661   7.896  20.023  0.00  0.00    +0.000 A 
ATOM     19  C   UNL     1       1.280   7.295  21.353  0.00  0.00    +0.000 C 
ATOM     20  C   UNL     1       2.628   7.277  19.183  0.00  0.00    +0.000 A 
ENDBRANCH  12  20
ENDBRANCH  11  12
ENDBRANCH   7  11
ENDBRANCH   1   9
BRANCH   5  21
ATOM     21  N   UNL     1       8.092   7.499  18.260  0.00  0.00    +0.000 N 
ATOM     22  C   UNL     1       7.910   8.819  17.889  0.00  0.00    +0.000 C 
ATOM     23  O   UNL     1       7.059   9.222  17.104  0.00  0.00    +0.000 OA
ATOM     24  H   UNL     1       8.781   7.342  18.985  0.00  0.00    +0.000 HD
BRANCH  22  25
ATOM     25  C   UNL     1       8.805   9.736  18.561  0.00  0.00    +0.000 A 
ATOM     26  C   UNL     1       9.667  10.683  18.038  0.00  0.00    +0.000 A 
ATOM     27  C   UNL     1      10.293  11.312  19.138  0.00  0.00    +0.000 A 
ATOM     28  C   UNL     1       9.785  10.712  20.263  0.00  0.00    +0.000 A 
ATOM     29  O   UNL     1       8.876   9.757  19.930  0.00  0.00    +0.000 OA
ENDBRANCH  22  25
ENDBRANCH   5  21
TORSDOF 6
ENDMDL
MODEL 9
REMARK VINA RESULT:      -7.6      1.809      3.824
REMARK  Name = 
REMARK  8 active torsions:
REMARK  status: ('A' for Active; 'I' for Inactive)
REMARK    1  A    between atoms: C_1  and  C_2
REMARK    2  A    between atoms: C_6  and  C_7
REMARK    3  A    between atoms: C_8  and  O_9
REMARK    4  A    between atoms: O_9  and  C_10
REMARK    5  A    between atoms: C_10  and  C_11
REMARK    6  A    between atoms: N_13  and  C_14
REMARK    7  A    between atoms: C_18  and  N_19
REMARK    8  A    between atoms: C_20  and  C_22
REMARK                            x       y       z     vdW  Elec       q    Type
REMARK                         _______ _______ _______ _____ _____    ______ ____
ROOT
ATOM      1  C   UNL     1       4.112   6.307  18.445  0.00  0.00    +0.000 A 
ATOM      2  C   UNL     1       4.778   5.737  19.531  0.00  0.00    +0.000 A 
ATOM      3  C   UNL     1       5.760   4.776  19.320  0.00  0.00    +0.000 A 
ATOM      4  C   UNL     1       6.049   4.355  18.023  0.00  0.00    +0.000 A 
ATOM      5  C   UNL     1       5.339   4.865  16.931  0.00  0.00    +0.000 A 
ATOM      6  C   UNL     1       4.362   5.843  17.151  0.00  0.00    +0.000 A 
ENDROOT
BRANCH   1   9
ATOM      7  C   UNL     1       2.121   7.305  19.539  0.00  0.00    +0.000 C 
ATOM      8  O   UNL     1       1.384   8.293  19.605  0.00  0.00    +0.000 OA
ATOM      9  N   UNL     1       3.155   7.314  18.628  0.00  0.00    +0.000 N 
ATOM     10  H   UNL     1       3.383   8.255  18.331  0.00  0.00    +0.000 HD
BRANCH   7  11
ATOM     11  C   UNL     1       1.955   6.119  20.491  0.00  0.00    +0.000 C 
BRANCH  11  12
ATOM     12  O   UNL     1       1.243   5.078  19.845  0.00  0.00    +0.000 OA
BRANCH  12  20
ATOM     13  C   UNL     1       2.602   2.976  21.771  0.00  0.00    +0.000 C 
ATOM     14  C   UNL     1       2.485   2.942  20.273  0.00  0.00    +0.000 A 
ATOM     15  C   UNL     1       3.029   1.794  19.657  0.00  0.00    +0.000 A 
ATOM     16  C   UNL     1       2.973   1.599  18.282  0.00  0.00    +0.000 A 
ATOM     17  C   UNL     1       2.363   2.551  17.484  0.00  0.00    +0.000 A 
ATOM     18  C   UNL     1       1.804   3.704  18.057  0.00  0.00    +0.000 A 
ATOM     19  C   UNL     1       1.139   4.703  17.143  0.00  0.00    +0.000 C 
ATOM     20  C   UNL     1       1.863   3.915  19.462  0.00  0.00    +0.000 A 
ENDBRANCH  12  20
ENDBRANCH  11  12
ENDBRANCH   7  11
ENDBRANCH   1   9
BRANCH   5  21
ATOM     21  N   UNL     1       5.568   4.452  15.600  0.00  0.00    +0.000 N 
ATOM     22  C   UNL     1       6.601   4.860  14.775  0.00  0.00    +0.000 C 
ATOM     23  O   UNL     1       7.496   5.635  15.092  0.00  0.00    +0.000 OA
ATOM     24  H   UNL     1       4.960   3.740  15.216  0.00  0.00    +0.000 HD
BRANCH  22  25
ATOM     25  C   UNL     1       6.573   4.241  13.467  0.00  0.00    +0.000 A 
ATOM     26  C   UNL     1       7.416   4.408  12.384  0.00  0.00    +0.000 A 
ATOM     27  C   UNL     1       6.943   3.551  11.365  0.00  0.00    +0.000 A 
ATOM     28  C   UNL     1       5.840   2.916  11.881  0.00  0.00    +0.000 A 
ATOM     29  O   UNL     1       5.605   3.321  13.157  0.00  0.00    +0.000 OA
ENDBRANCH  22  25
ENDBRANCH   5  21
TORSDOF 6
ENDMDL
