MODEL 1
REMARK VINA RESULT:      -7.5      0.000      0.000
REMARK  Name = 
REMARK  6 active torsions:
REMARK  status: ('A' for Active; 'I' for Inactive)
REMARK    1  A    between atoms: C_5  and  C_6
REMARK    2  A    between atoms: C_6  and  O_7
REMARK    3  A    between atoms: O_7  and  N_8
REMARK    4  A    between atoms: C_9  and  C_10
REMARK    5  A    between atoms: C_9  and  C_16
REMARK    6  A    between atoms: C_10  and  N_11
REMARK                            x       y       z     vdW  Elec       q    Type
REMARK                         _______ _______ _______ _____ _____    ______ ____
ROOT
ATOM      1  N   UNL     1       3.886   6.269  19.615  0.00  0.00    +0.000 NA
ATOM      2  C   UNL     1       2.857   6.476  18.850  0.00  0.00    +0.000 C 
ENDROOT
BRANCH   2   3
ATOM      3  C   UNL     1       2.202   7.822  18.900  0.00  0.00    +0.000 A 
ATOM      4  C   UNL     1       2.338   8.673  17.794  0.00  0.00    +0.000 A 
ATOM      5  C   UNL     1       1.714   9.923  17.772  0.00  0.00    +0.000 A 
ATOM      6  C   UNL     1       0.932  10.324  18.851  0.00  0.00    +0.000 A 
ATOM      7 CL   UNL     1       0.159  11.859  18.815  0.00  0.00    +0.000 Cl
ATOM      8  C   UNL     1       0.778   9.493  19.956  0.00  0.00    +0.000 A 
ATOM      9  C   UNL     1       1.415   8.246  19.989  0.00  0.00    +0.000 A 
ATOM     10 CL   UNL     1       1.224   7.332  21.447  0.00  0.00    +0.000 Cl
ENDBRANCH   2   3
BRANCH   1  11
ATOM     11  O   UNL     1       4.402   4.975  19.491  0.00  0.00    +0.000 OA
BRANCH  11  12
ATOM     12  C   UNL     1       5.800   5.070  19.193  0.00  0.00    +0.000 C 
BRANCH  12  17
ATOM     13 CL   UNL     1       6.424   4.101  13.272  0.00  0.00    +0.000 Cl
ATOM     14  C   UNL     1       6.321   4.343  14.973  0.00  0.00    +0.000 A 
ATOM     15  C   UNL     1       5.559   3.476  15.749  0.00  0.00    +0.000 A 
ATOM     16  C   UNL     1       5.426   3.711  17.120  0.00  0.00    +0.000 A 
ATOM     17  C   UNL     1       6.036   4.826  17.722  0.00  0.00    +0.000 A 
ATOM     18  C   UNL     1       6.851   5.652  16.929  0.00  0.00    +0.000 A 
ATOM     19 CL   UNL     1       7.719   7.000  17.576  0.00  0.00    +0.000 Cl
ATOM     20  C   UNL     1       6.986   5.415  15.559  0.00  0.00    +0.000 A 
ENDBRANCH  12  17
ENDBRANCH  11  12
ENDBRANCH   1  11
BRANCH   2  21
ATOM     21  C   UNL     1       2.274   5.422  17.920  0.00  0.00    +0.000 C 
BRANCH  21  22
ATOM     22  N   UNL     1       1.760   4.238  18.592  0.00  0.00    +0.000 N 
ATOM     23  C   UNL     1       1.842   2.961  18.098  0.00  0.00    +0.000 A 
ATOM     24  C   UNL     1       1.253   2.167  19.053  0.00  0.00    +0.000 A 
ATOM     25  N   UNL     1       0.810   2.926  20.104  0.00  0.00    +0.000 NA
ATOM     26  C   UNL     1       1.140   4.162  19.806  0.00  0.00    +0.000 A 
ENDBRANCH  21  22
ENDBRANCH   2  21
TORSDOF 6
ENDMDL
MODEL 2
REMARK VINA RESULT:      -7.5      1.230      1.728
REMARK  Name = 
REMARK  6 active torsions:
REMARK  status: ('A' for Active; 'I' for Inactive)
REMARK    1  A    between atoms: C_5  and  C_6
REMARK    2  A    between atoms: C_6  and  O_7
REMARK    3  A    between atoms: O_7  and  N_8
REMARK    4  A    between atoms: C_9  and  C_10
REMARK    5  A    between atoms: C_9  and  C_16
REMARK    6  A    between atoms: C_10  and  N_11
REMARK                            x       y       z     vdW  Elec       q    Type
REMARK                         _______ _______ _______ _____ _____    ______ ____
ROOT
ATOM      1  N   UNL     1       3.774   6.384  19.457  0.00  0.00    +0.000 NA
ATOM      2  C   UNL     1       2.604   6.366  20.021  0.00  0.00    +0.000 C 
ENDROOT
BRANCH   2   3
ATOM      3  C   UNL     1       1.807   7.634  20.029  0.00  0.00    +0.000 A 
ATOM      4  C   UNL     1       1.080   7.959  21.183  0.00  0.00    +0.000 A 
ATOM      5  C   UNL     1       0.353   9.150  21.258  0.00  0.00    +0.000 A 
ATOM      6  C   UNL     1       0.363  10.035  20.185  0.00  0.00    +0.000 A 
ATOM      7 CL   UNL     1      -0.526  11.503  20.287  0.00  0.00    +0.000 Cl
ATOM      8  C   UNL     1       1.083   9.736  19.033  0.00  0.00    +0.000 A 
ATOM      9  C   UNL     1       1.800   8.536  18.946  0.00  0.00    +0.000 A 
ATOM     10 CL   UNL     1       2.587   8.227  17.436  0.00  0.00    +0.000 Cl
ENDBRANCH   2   3
BRANCH   1  11
ATOM     11  O   UNL     1       4.427   5.149  19.523  0.00  0.00    +0.000 OA
BRANCH  11  12
ATOM     12  C   UNL     1       5.802   5.342  19.173  0.00  0.00    +0.000 C 
BRANCH  12  17
ATOM     13 CL   UNL     1       6.359   3.983  13.323  0.00  0.00    +0.000 Cl
ATOM     14  C   UNL     1       6.274   4.337  15.004  0.00  0.00    +0.000 A 
ATOM     15  C   UNL     1       5.514   3.529  15.843  0.00  0.00    +0.000 A 
ATOM     16  C   UNL     1       5.396   3.854  17.196  0.00  0.00    +0.000 A 
ATOM     17  C   UNL     1       6.021   5.001  17.719  0.00  0.00    +0.000 A 
ATOM     18  C   UNL     1       6.835   5.766  16.866  0.00  0.00    +0.000 A 
ATOM     19 CL   UNL     1       7.720   7.145  17.415  0.00  0.00    +0.000 Cl
ATOM     20  C   UNL     1       6.954   5.439  15.513  0.00  0.00    +0.000 A 
ENDBRANCH  12  17
ENDBRANCH  11  12
ENDBRANCH   1  11
BRANCH   2  21
ATOM     21  C   UNL     1       2.008   5.134  20.685  0.00  0.00    +0.000 C 
BRANCH  21  22
ATOM     22  N   UNL     1       1.791   4.007  19.790  0.00  0.00    +0.000 N 
ATOM     23  C   UNL     1       1.955   2.690  20.136  0.00  0.00    +0.000 A 
ATOM     24  C   UNL     1       1.632   1.977  19.006  0.00  0.00    +0.000 A 
ATOM     25  N   UNL     1       1.288   2.824  17.985  0.00  0.00    +0.000 NA
ATOM     26  C   UNL     1       1.379   4.034  18.488  0.00  0.00    +0.000 A 
ENDBRANCH  21  22
ENDBRANCH   2  21
TORSDOF 6
ENDMDL
MODEL 3
REMARK VINA RESULT:      -7.2      1.780      2.834
REMARK  Name = 
REMARK  6 active torsions:
REMARK  status: ('A' for Active; 'I' for Inactive)
REMARK    1  A    between atoms: C_5  and  C_6
REMARK    2  A    between atoms: C_6  and  O_7
REMARK    3  A    between atoms: O_7  and  N_8
REMARK    4  A    between atoms: C_9  and  C_10
REMARK    5  A    between atoms: C_9  and  C_16
REMARK    6  A    between atoms: C_10  and  N_11
REMARK                            x       y       z     vdW  Elec       q    Type
REMARK                         _______ _______ _______ _____ _____    ______ ____
ROOT
ATOM      1  N   UNL     1       5.049   5.198  19.031  0.00  0.00    +0.000 NA
ATOM      2  C   UNL     1       3.880   5.304  18.473  0.00  0.00    +0.000 C 
ENDROOT
BRANCH   2   3
ATOM      3  C   UNL     1       3.081   6.541  18.742  0.00  0.00    +0.000 A 
ATOM      4  C   UNL     1       3.157   7.598  17.825  0.00  0.00    +0.000 A 
ATOM      5  C   UNL     1       2.401   8.759  18.006  0.00  0.00    +0.000 A 
ATOM      6  C   UNL     1       1.548   8.864  19.099  0.00  0.00    +0.000 A 
ATOM      7 CL   UNL     1       0.613  10.291  19.314  0.00  0.00    +0.000 Cl
ATOM      8  C   UNL     1       1.451   7.825  20.020  0.00  0.00    +0.000 A 
ATOM      9  C   UNL     1       2.220   6.666  19.851  0.00  0.00    +0.000 A 
ATOM     10 CL   UNL     1       2.086   5.475  21.099  0.00  0.00    +0.000 Cl
ENDBRANCH   2   3
BRANCH   1  11
ATOM     11  O   UNL     1       5.693   3.997  18.718  0.00  0.00    +0.000 OA
BRANCH  11  12
ATOM     12  C   UNL     1       6.731   4.272  17.771  0.00  0.00    +0.000 C 
BRANCH  12  17
ATOM     13 CL   UNL     1       8.756   9.939  18.182  0.00  0.00    +0.000 Cl
ATOM     14  C   UNL     1       8.107   8.348  18.098  0.00  0.00    +0.000 A 
ATOM     15  C   UNL     1       8.478   7.400  19.046  0.00  0.00    +0.000 A 
ATOM     16  C   UNL     1       8.000   6.092  18.940  0.00  0.00    +0.000 A 
ATOM     17  C   UNL     1       7.161   5.716  17.875  0.00  0.00    +0.000 A 
ATOM     18  C   UNL     1       6.750   6.705  16.966  0.00  0.00    +0.000 A 
ATOM     19 CL   UNL     1       5.654   6.380  15.669  0.00  0.00    +0.000 Cl
ATOM     20  C   UNL     1       7.228   8.014  17.073  0.00  0.00    +0.000 A 
ENDBRANCH  12  17
ENDBRANCH  11  12
ENDBRANCH   1  11
BRANCH   2  21
ATOM     21  C   UNL     1       3.276   4.233  17.577  0.00  0.00    +0.000 C 
BRANCH  21  22
ATOM     22  N   UNL     1       2.322   3.356  18.239  0.00  0.00    +0.000 N 
ATOM     23  C   UNL     1       2.657   2.264  18.998  0.00  0.00    +0.000 A 
ATOM     24  C   UNL     1       1.462   1.747  19.435  0.00  0.00    +0.000 A 
ATOM     25  N   UNL     1       0.413   2.487  18.955  0.00  0.00    +0.000 NA
ATOM     26  C   UNL     1       0.960   3.453  18.252  0.00  0.00    +0.000 A 
ENDBRANCH  21  22
ENDBRANCH   2  21
TORSDOF 6
ENDMDL
MODEL 4
REMARK VINA RESULT:      -7.2      1.607      6.743
REMARK  Name = 
REMARK  6 active torsions:
REMARK  status: ('A' for Active; 'I' for Inactive)
REMARK    1  A    between atoms: C_5  and  C_6
REMARK    2  A    between atoms: C_6  and  O_7
REMARK    3  A    between atoms: O_7  and  N_8
REMARK    4  A    between atoms: C_9  and  C_10
REMARK    5  A    between atoms: C_9  and  C_16
REMARK    6  A    between atoms: C_10  and  N_11
REMARK                            x       y       z     vdW  Elec       q    Type
REMARK                         _______ _______ _______ _____ _____    ______ ____
ROOT
ATOM      1  N   UNL     1       4.157   6.305  18.386  0.00  0.00    +0.000 NA
ATOM      2  C   UNL     1       4.781   5.185  18.171  0.00  0.00    +0.000 C 
ENDROOT
BRANCH   2   3
ATOM      3  C   UNL     1       5.476   5.009  16.856  0.00  0.00    +0.000 A 
ATOM      4  C   UNL     1       4.844   4.249  15.862  0.00  0.00    +0.000 A 
ATOM      5  C   UNL     1       5.430   4.087  14.605  0.00  0.00    +0.000 A 
ATOM      6  C   UNL     1       6.647   4.699  14.324  0.00  0.00    +0.000 A 
ATOM      7 CL   UNL     1       7.360   4.503  12.772  0.00  0.00    +0.000 Cl
ATOM      8  C   UNL     1       7.290   5.463  15.294  0.00  0.00    +0.000 A 
ATOM      9  C   UNL     1       6.714   5.615  16.562  0.00  0.00    +0.000 A 
ATOM     10 CL   UNL     1       7.640   6.513  17.716  0.00  0.00    +0.000 Cl
ENDBRANCH   2   3
BRANCH   1  11
ATOM     11  O   UNL     1       3.537   6.348  19.638  0.00  0.00    +0.000 OA
BRANCH  11  12
ATOM     12  C   UNL     1       2.119   6.407  19.441  0.00  0.00    +0.000 C 
BRANCH  12  17
ATOM     13 CL   UNL     1       0.161  11.613  21.775  0.00  0.00    +0.000 Cl
ATOM     14  C   UNL     1       0.646  10.119  21.072  0.00  0.00    +0.000 A 
ATOM     15  C   UNL     1       0.644   8.961  21.842  0.00  0.00    +0.000 A 
ATOM     16  C   UNL     1       1.098   7.762  21.288  0.00  0.00    +0.000 A 
ATOM     17  C   UNL     1       1.575   7.714  19.965  0.00  0.00    +0.000 A 
ATOM     18  C   UNL     1       1.509   8.883  19.187  0.00  0.00    +0.000 A 
ATOM     19 CL   UNL     1       1.986   8.925  17.527  0.00  0.00    +0.000 Cl
ATOM     20  C   UNL     1       1.053  10.082  19.742  0.00  0.00    +0.000 A 
ENDBRANCH  12  17
ENDBRANCH  11  12
ENDBRANCH   1  11
BRANCH   2  21
ATOM     21  C   UNL     1       4.828   4.043  19.174  0.00  0.00    +0.000 C 
BRANCH  21  22
ATOM     22  N   UNL     1       3.585   3.299  19.305  0.00  0.00    +0.000 N 
ATOM     23  C   UNL     1       3.005   2.948  20.498  0.00  0.00    +0.000 A 
ATOM     24  C   UNL     1       1.854   2.279  20.157  0.00  0.00    +0.000 A 
ATOM     25  N   UNL     1       1.725   2.208  18.795  0.00  0.00    +0.000 NA
ATOM     26  C   UNL     1       2.770   2.839  18.310  0.00  0.00    +0.000 A 
ENDBRANCH  21  22
ENDBRANCH   2  21
TORSDOF 6
ENDMDL
MODEL 5
REMARK VINA RESULT:      -7.2      1.728      7.149
REMARK  Name = 
REMARK  6 active torsions:
REMARK  status: ('A' for Active; 'I' for Inactive)
REMARK    1  A    between atoms: C_5  and  C_6
REMARK    2  A    between atoms: C_6  and  O_7
REMARK    3  A    between atoms: O_7  and  N_8
REMARK    4  A    between atoms: C_9  and  C_10
REMARK    5  A    between atoms: C_9  and  C_16
REMARK    6  A    between atoms: C_10  and  N_11
REMARK                            x       y       z     vdW  Elec       q    Type
REMARK                         _______ _______ _______ _____ _____    ______ ____
ROOT
ATOM      1  N   UNL     1       3.717   7.123  17.657  0.00  0.00    +0.000 NA
ATOM      2  C   UNL     1       4.321   5.981  17.794  0.00  0.00    +0.000 C 
ENDROOT
BRANCH   2   3
ATOM      3  C   UNL     1       5.128   5.469  16.641  0.00  0.00    +0.000 A 
ATOM      4  C   UNL     1       4.517   4.592  15.734  0.00  0.00    +0.000 A 
ATOM      5  C   UNL     1       5.212   4.118  14.619  0.00  0.00    +0.000 A 
ATOM      6  C   UNL     1       6.520   4.531  14.391  0.00  0.00    +0.000 A 
ATOM      7 CL   UNL     1       7.368   3.950  13.013  0.00  0.00    +0.000 Cl
ATOM      8  C   UNL     1       7.145   5.406  15.275  0.00  0.00    +0.000 A 
ATOM      9  C   UNL     1       6.458   5.872  16.404  0.00  0.00    +0.000 A 
ATOM     10 CL   UNL     1       7.359   6.886  17.479  0.00  0.00    +0.000 Cl
ENDBRANCH   2   3
BRANCH   1  11
ATOM     11  O   UNL     1       2.986   7.489  18.792  0.00  0.00    +0.000 OA
BRANCH  11  12
ATOM     12  C   UNL     1       1.994   8.445  18.403  0.00  0.00    +0.000 C 
BRANCH  12  17
ATOM     13 CL   UNL     1      -0.863  10.348  23.364  0.00  0.00    +0.000 Cl
ATOM     14  C   UNL     1      -0.113   9.756  21.933  0.00  0.00    +0.000 A 
ATOM     15  C   UNL     1       0.882   8.789  22.024  0.00  0.00    +0.000 A 
ATOM     16  C   UNL     1       1.534   8.356  20.867  0.00  0.00    +0.000 A 
ATOM     17  C   UNL     1       1.208   8.899  19.611  0.00  0.00    +0.000 A 
ATOM     18  C   UNL     1       0.157   9.829  19.536  0.00  0.00    +0.000 A 
ATOM     19 CL   UNL     1      -0.388  10.500  18.039  0.00  0.00    +0.000 Cl
ATOM     20  C   UNL     1      -0.495  10.261  20.694  0.00  0.00    +0.000 A 
ENDBRANCH  12  17
ENDBRANCH  11  12
ENDBRANCH   1  11
BRANCH   2  21
ATOM     21  C   UNL     1       4.240   5.131  19.053  0.00  0.00    +0.000 C 
BRANCH  21  22
ATOM     22  N   UNL     1       3.375   3.966  18.944  0.00  0.00    +0.000 N 
ATOM     23  C   UNL     1       2.039   4.010  18.637  0.00  0.00    +0.000 A 
ATOM     24  C   UNL     1       1.628   2.698  18.626  0.00  0.00    +0.000 A 
ATOM     25  N   UNL     1       2.673   1.865  18.926  0.00  0.00    +0.000 NA
ATOM     26  C   UNL     1       3.711   2.652  19.099  0.00  0.00    +0.000 A 
ENDBRANCH  21  22
ENDBRANCH   2  21
TORSDOF 6
ENDMDL
MODEL 6
REMARK VINA RESULT:      -7.0      1.600      2.215
REMARK  Name = 
REMARK  6 active torsions:
REMARK  status: ('A' for Active; 'I' for Inactive)
REMARK    1  A    between atoms: C_5  and  C_6
REMARK    2  A    between atoms: C_6  and  O_7
REMARK    3  A    between atoms: O_7  and  N_8
REMARK    4  A    between atoms: C_9  and  C_10
REMARK    5  A    between atoms: C_9  and  C_16
REMARK    6  A    between atoms: C_10  and  N_11
REMARK                            x       y       z     vdW  Elec       q    Type
REMARK                         _______ _______ _______ _____ _____    ______ ____
ROOT
ATOM      1  N   UNL     1       3.953   6.165  19.374  0.00  0.00    +0.000 NA
ATOM      2  C   UNL     1       2.791   6.214  19.952  0.00  0.00    +0.000 C 
ENDROOT
BRANCH   2   3
ATOM      3  C   UNL     1       2.005   7.484  19.845  0.00  0.00    +0.000 A 
ATOM      4  C   UNL     1       1.240   7.891  20.947  0.00  0.00    +0.000 A 
ATOM      5  C   UNL     1       0.521   9.088  20.915  0.00  0.00    +0.000 A 
ATOM      6  C   UNL     1       0.574   9.898  19.785  0.00  0.00    +0.000 A 
ATOM      7 CL   UNL     1      -0.306  11.374  19.755  0.00  0.00    +0.000 Cl
ATOM      8  C   UNL     1       1.332   9.516  18.682  0.00  0.00    +0.000 A 
ATOM      9  C   UNL     1       2.042   8.309  18.703  0.00  0.00    +0.000 A 
ATOM     10 CL   UNL     1       2.880   7.893  17.246  0.00  0.00    +0.000 Cl
ENDBRANCH   2   3
BRANCH   1  11
ATOM     11  O   UNL     1       4.597   4.936  19.553  0.00  0.00    +0.000 OA
BRANCH  11  12
ATOM     12  C   UNL     1       5.949   5.061  19.097  0.00  0.00    +0.000 C 
BRANCH  12  17
ATOM     13 CL   UNL     1       6.558   4.063  13.180  0.00  0.00    +0.000 Cl
ATOM     14  C   UNL     1       6.311   4.383  14.852  0.00  0.00    +0.000 A 
ATOM     15  C   UNL     1       6.954   5.461  15.451  0.00  0.00    +0.000 A 
ATOM     16  C   UNL     1       6.803   5.682  16.822  0.00  0.00    +0.000 A 
ATOM     17  C   UNL     1       6.021   4.816  17.609  0.00  0.00    +0.000 A 
ATOM     18  C   UNL     1       5.330   3.771  16.970  0.00  0.00    +0.000 A 
ATOM     19 CL   UNL     1       4.274   2.698  17.819  0.00  0.00    +0.000 Cl
ATOM     20  C   UNL     1       5.482   3.553  15.598  0.00  0.00    +0.000 A 
ENDBRANCH  12  17
ENDBRANCH  11  12
ENDBRANCH   1  11
BRANCH   2  21
ATOM     21  C   UNL     1       2.195   5.058  20.742  0.00  0.00    +0.000 C 
BRANCH  21  22
ATOM     22  N   UNL     1       1.681   3.968  19.928  0.00  0.00    +0.000 N 
ATOM     23  C   UNL     1       1.577   2.664  20.341  0.00  0.00    +0.000 A 
ATOM     24  C   UNL     1       1.033   1.989  19.274  0.00  0.00    +0.000 A 
ATOM     25  N   UNL     1       0.815   2.844  18.226  0.00  0.00    +0.000 NA
ATOM     26  C   UNL     1       1.200   4.026  18.651  0.00  0.00    +0.000 A 
ENDBRANCH  21  22
ENDBRANCH   2  21
TORSDOF 6
ENDMDL
MODEL 7
REMARK VINA RESULT:      -7.0      3.299      5.326
REMARK  Name = 
REMARK  6 active torsions:
REMARK  status: ('A' for Active; 'I' for Inactive)
REMARK    1  A    between atoms: C_5  and  C_6
REMARK    2  A    between atoms: C_6  and  O_7
REMARK    3  A    between atoms: O_7  and  N_8
REMARK    4  A    between atoms: C_9  and  C_10
REMARK    5  A    between atoms: C_9  and  C_16
REMARK    6  A    between atoms: C_10  and  N_11
REMARK                            x       y       z     vdW  Elec       q    Type
REMARK                         _______ _______ _______ _____ _____    ______ ____
ROOT
ATOM      1  N   UNL     1       1.030   9.163  17.915  0.00  0.00    +0.000 NA
ATOM      2  C   UNL     1       0.438  10.052  18.655  0.00  0.00    +0.000 C 
ENDROOT
BRANCH   2   3
ATOM      3  C   UNL     1      -0.952  10.465  18.281  0.00  0.00    +0.000 A 
ATOM      4  C   UNL     1      -1.873   9.470  17.928  0.00  0.00    +0.000 A 
ATOM      5  C   UNL     1      -3.193   9.798  17.610  0.00  0.00    +0.000 A 
ATOM      6  C   UNL     1      -3.608  11.124  17.660  0.00  0.00    +0.000 A 
ATOM      7 CL   UNL     1      -5.236  11.522  17.276  0.00  0.00    +0.000 Cl
ATOM      8  C   UNL     1      -2.712  12.129  18.015  0.00  0.00    +0.000 A 
ATOM      9  C   UNL     1      -1.383  11.807  18.319  0.00  0.00    +0.000 A 
ATOM     10 CL   UNL     1      -0.336  13.141  18.662  0.00  0.00    +0.000 Cl
ENDBRANCH   2   3
BRANCH   1  11
ATOM     11  O   UNL     1       2.325   8.868  18.354  0.00  0.00    +0.000 OA
BRANCH  11  12
ATOM     12  C   UNL     1       2.322   7.556  18.927  0.00  0.00    +0.000 C 
BRANCH  12  17
ATOM     13 CL   UNL     1       5.856   3.905  15.675  0.00  0.00    +0.000 Cl
ATOM     14  C   UNL     1       4.791   4.941  16.543  0.00  0.00    +0.000 A 
ATOM     15  C   UNL     1       5.002   6.316  16.531  0.00  0.00    +0.000 A 
ATOM     16  C   UNL     1       4.175   7.150  17.286  0.00  0.00    +0.000 A 
ATOM     17  C   UNL     1       3.141   6.614  18.076  0.00  0.00    +0.000 A 
ATOM     18  C   UNL     1       2.907   5.229  18.023  0.00  0.00    +0.000 A 
ATOM     19 CL   UNL     1       1.613   4.471  18.882  0.00  0.00    +0.000 Cl
ATOM     20  C   UNL     1       3.734   4.396  17.266  0.00  0.00    +0.000 A 
ENDBRANCH  12  17
ENDBRANCH  11  12
ENDBRANCH   1  11
BRANCH   2  21
ATOM     21  C   UNL     1       1.085  10.703  19.868  0.00  0.00    +0.000 C 
BRANCH  21  22
ATOM     22  N   UNL     1       0.459  10.375  21.139  0.00  0.00    +0.000 N 
ATOM     23  C   UNL     1      -0.377  11.208  21.838  0.00  0.00    +0.000 A 
ATOM     24  C   UNL     1      -0.743  10.498  22.956  0.00  0.00    +0.000 A 
ATOM     25  N   UNL     1      -0.146   9.265  22.959  0.00  0.00    +0.000 NA
ATOM     26  C   UNL     1       0.558   9.214  21.851  0.00  0.00    +0.000 A 
ENDBRANCH  21  22
ENDBRANCH   2  21
TORSDOF 6
ENDMDL
MODEL 8
REMARK VINA RESULT:      -7.0      1.672      7.069
REMARK  Name = 
REMARK  6 active torsions:
REMARK  status: ('A' for Active; 'I' for Inactive)
REMARK    1  A    between atoms: C_5  and  C_6
REMARK    2  A    between atoms: C_6  and  O_7
REMARK    3  A    between atoms: O_7  and  N_8
REMARK    4  A    between atoms: C_9  and  C_10
REMARK    5  A    between atoms: C_9  and  C_16
REMARK    6  A    between atoms: C_10  and  N_11
REMARK                            x       y       z     vdW  Elec       q    Type
REMARK                         _______ _______ _______ _____ _____    ______ ____
ROOT
ATOM      1  N   UNL     1       3.871   6.988  17.454  0.00  0.00    +0.000 NA
ATOM      2  C   UNL     1       4.417   5.812  17.519  0.00  0.00    +0.000 C 
ENDROOT
BRANCH   2   3
ATOM      3  C   UNL     1       5.221   5.344  16.345  0.00  0.00    +0.000 A 
ATOM      4  C   UNL     1       4.592   4.542  15.382  0.00  0.00    +0.000 A 
ATOM      5  C   UNL     1       5.284   4.112  14.247  0.00  0.00    +0.000 A 
ATOM      6  C   UNL     1       6.607   4.497  14.056  0.00  0.00    +0.000 A 
ATOM      7 CL   UNL     1       7.452   3.972  12.654  0.00  0.00    +0.000 Cl
ATOM      8  C   UNL     1       7.249   5.298  14.996  0.00  0.00    +0.000 A 
ATOM      9  C   UNL     1       6.565   5.718  16.144  0.00  0.00    +0.000 A 
ATOM     10 CL   UNL     1       7.485   6.638  17.285  0.00  0.00    +0.000 Cl
ENDBRANCH   2   3
BRANCH   1  11
ATOM     11  O   UNL     1       3.137   7.309  18.601  0.00  0.00    +0.000 OA
BRANCH  11  12
ATOM     12  C   UNL     1       2.087   8.210  18.231  0.00  0.00    +0.000 C 
BRANCH  12  17
ATOM     13 CL   UNL     1      -0.737  10.630  22.981  0.00  0.00    +0.000 Cl
ATOM     14  C   UNL     1       0.140   9.948  21.667  0.00  0.00    +0.000 A 
ATOM     15  C   UNL     1       0.424  10.725  20.548  0.00  0.00    +0.000 A 
ATOM     16  C   UNL     1       1.080  10.152  19.457  0.00  0.00    +0.000 A 
ATOM     17  C   UNL     1       1.443   8.793  19.466  0.00  0.00    +0.000 A 
ATOM     18  C   UNL     1       1.202   8.045  20.632  0.00  0.00    +0.000 A 
ATOM     19 CL   UNL     1       1.681   6.391  20.791  0.00  0.00    +0.000 Cl
ATOM     20  C   UNL     1       0.547   8.619  21.724  0.00  0.00    +0.000 A 
ENDBRANCH  12  17
ENDBRANCH  11  12
ENDBRANCH   1  11
BRANCH   2  21
ATOM     21  C   UNL     1       4.272   4.881  18.713  0.00  0.00    +0.000 C 
BRANCH  21  22
ATOM     22  N   UNL     1       3.134   3.977  18.643  0.00  0.00    +0.000 N 
ATOM     23  C   UNL     1       3.024   2.802  19.342  0.00  0.00    +0.000 A 
ATOM     24  C   UNL     1       1.799   2.287  18.991  0.00  0.00    +0.000 A 
ATOM     25  N   UNL     1       1.170   3.110  18.094  0.00  0.00    +0.000 NA
ATOM     26  C   UNL     1       1.989   4.122  17.914  0.00  0.00    +0.000 A 
ENDBRANCH  21  22
ENDBRANCH   2  21
TORSDOF 6
ENDMDL
MODEL 9
REMARK VINA RESULT:      -6.9      3.610      5.609
REMARK  Name = 
REMARK  6 active torsions:
REMARK  status: ('A' for Active; 'I' for Inactive)
REMARK    1  A    between atoms: C_5  and  C_6
REMARK    2  A    between atoms: C_6  and  O_7
REMARK    3  A    between atoms: O_7  and  N_8
REMARK    4  A    between atoms: C_9  and  C_10
REMARK    5  A    between atoms: C_9  and  C_16
REMARK    6  A    between atoms: C_10  and  N_11
REMARK                            x       y       z     vdW  Elec       q    Type
REMARK                         _______ _______ _______ _____ _____    ______ ____
ROOT
ATOM      1  N   UNL     1       0.768   9.332  18.108  0.00  0.00    +0.000 NA
ATOM      2  C   UNL     1       0.179  10.257  18.805  0.00  0.00    +0.000 C 
ENDROOT
BRANCH   2   3
ATOM      3  C   UNL     1      -1.229  10.620  18.445  0.00  0.00    +0.000 A 
ATOM      4  C   UNL     1      -2.069   9.618  17.938  0.00  0.00    +0.000 A 
ATOM      5  C   UNL     1      -3.402   9.893  17.625  0.00  0.00    +0.000 A 
ATOM      6  C   UNL     1      -3.912  11.170  17.834  0.00  0.00    +0.000 A 
ATOM      7 CL   UNL     1      -5.556  11.502  17.455  0.00  0.00    +0.000 Cl
ATOM      8  C   UNL     1      -3.099  12.179  18.342  0.00  0.00    +0.000 A 
ATOM      9  C   UNL     1      -1.756  11.912  18.643  0.00  0.00    +0.000 A 
ATOM     10 CL   UNL     1      -0.816  13.259  19.187  0.00  0.00    +0.000 Cl
ENDBRANCH   2   3
BRANCH   1  11
ATOM     11  O   UNL     1       2.080   9.091  18.527  0.00  0.00    +0.000 OA
BRANCH  11  12
ATOM     12  C   UNL     1       2.740   8.307  17.526  0.00  0.00    +0.000 C 
BRANCH  12  17
ATOM     13 CL   UNL     1       4.190   2.930  19.843  0.00  0.00    +0.000 Cl
ATOM     14  C   UNL     1       3.846   4.494  19.215  0.00  0.00    +0.000 A 
ATOM     15  C   UNL     1       2.925   5.311  19.861  0.00  0.00    +0.000 A 
ATOM     16  C   UNL     1       2.600   6.555  19.315  0.00  0.00    +0.000 A 
ATOM     17  C   UNL     1       3.180   6.985  18.107  0.00  0.00    +0.000 A 
ATOM     18  C   UNL     1       4.155   6.170  17.506  0.00  0.00    +0.000 A 
ATOM     19 CL   UNL     1       4.997   6.632  16.069  0.00  0.00    +0.000 Cl
ATOM     20  C   UNL     1       4.480   4.926  18.054  0.00  0.00    +0.000 A 
ENDBRANCH  12  17
ENDBRANCH  11  12
ENDBRANCH   1  11
BRANCH   2  21
ATOM     21  C   UNL     1       0.846  10.999  19.953  0.00  0.00    +0.000 C 
BRANCH  21  22
ATOM     22  N   UNL     1       0.411  10.586  21.278  0.00  0.00    +0.000 N 
ATOM     23  C   UNL     1       0.756   9.403  21.881  0.00  0.00    +0.000 A 
ATOM     24  C   UNL     1       0.144   9.434  23.111  0.00  0.00    +0.000 A 
ATOM     25  N   UNL     1      -0.568  10.594  23.266  0.00  0.00    +0.000 NA
ATOM     26  C   UNL     1      -0.378  11.271  22.156  0.00  0.00    +0.000 A 
ENDBRANCH  21  22
ENDBRANCH   2  21
TORSDOF 6
ENDMDL
