MODEL 1
REMARK VINA RESULT:      -4.0      0.000      0.000
REMARK  Name = 
REMARK  5 active torsions:
REMARK  status: ('A' for Active; 'I' for Inactive)
REMARK    1  A    between atoms: C_1  and  C_2
REMARK    2  A    between atoms: C_2  and  O_3
REMARK    3  A    between atoms: O_3  and  C_4
REMARK    4  A    between atoms: C_4  and  C_6
REMARK    5  A    between atoms: C_6  and  C_7
REMARK                            x       y       z     vdW  Elec       q    Type
REMARK                         _______ _______ _______ _____ _____    ______ ____
ROOT
ATOM      1  C   UNL     1       6.852   4.738  14.661  0.00  0.00    +0.000 C 
ATOM      2  O   UNL     1       7.758   5.435  14.232  0.00  0.00    +0.000 OA
ENDROOT
BRANCH   1   3
ATOM      3  O   UNL     1       6.336   3.649  14.023  0.00  0.00    +0.000 OA
BRANCH   3   5
ATOM      4  C   UNL     1       5.122   3.295  12.001  0.00  0.00    +0.000 C 
ATOM      5  C   UNL     1       6.468   3.672  12.592  0.00  0.00    +0.000 C 
ENDBRANCH   3   5
ENDBRANCH   1   3
BRANCH   1   6
ATOM      6  C   UNL     1       6.111   4.974  15.948  0.00  0.00    +0.000 C 
BRANCH   6   7
ATOM      7  C   UNL     1       7.079   4.689  17.085  0.00  0.00    +0.000 C 
ATOM      8  N   UNL     1       7.882   4.454  18.029  0.00  0.00    +0.000 NA
ENDBRANCH   6   7
ENDBRANCH   1   6
TORSDOF 4
ENDMDL
MODEL 2
REMARK VINA RESULT:      -3.9      2.259      2.709
REMARK  Name = 
REMARK  5 active torsions:
REMARK  status: ('A' for Active; 'I' for Inactive)
REMARK    1  A    between atoms: C_1  and  C_2
REMARK    2  A    between atoms: C_2  and  O_3
REMARK    3  A    between atoms: O_3  and  C_4
REMARK    4  A    between atoms: C_4  and  C_6
REMARK    5  A    between atoms: C_6  and  C_7
REMARK                            x       y       z     vdW  Elec       q    Type
REMARK                         _______ _______ _______ _____ _____    ______ ____
ROOT
ATOM      1  C   UNL     1       7.493   4.670  16.985  0.00  0.00    +0.000 C 
ATOM      2  O   UNL     1       8.287   4.081  17.701  0.00  0.00    +0.000 OA
ENDROOT
BRANCH   1   3
ATOM      3  O   UNL     1       7.420   4.541  15.629  0.00  0.00    +0.000 OA
BRANCH   3   5
ATOM      4  C   UNL     1       6.214   3.903  13.673  0.00  0.00    +0.000 C 
ATOM      5  C   UNL     1       6.090   4.369  15.113  0.00  0.00    +0.000 C 
ENDBRANCH   3   5
ENDBRANCH   1   3
BRANCH   1   6
ATOM      6  C   UNL     1       6.479   5.675  17.456  0.00  0.00    +0.000 C 
BRANCH   6   7
ATOM      7  C   UNL     1       7.143   7.041  17.412  0.00  0.00    +0.000 C 
ATOM      8  N   UNL     1       7.694   8.175  17.376  0.00  0.00    +0.000 NA
ENDBRANCH   6   7
ENDBRANCH   1   6
TORSDOF 4
ENDMDL
MODEL 3
REMARK VINA RESULT:      -3.8      2.562      4.216
REMARK  Name = 
REMARK  5 active torsions:
REMARK  status: ('A' for Active; 'I' for Inactive)
REMARK    1  A    between atoms: C_1  and  C_2
REMARK    2  A    between atoms: C_2  and  O_3
REMARK    3  A    between atoms: O_3  and  C_4
REMARK    4  A    between atoms: C_4  and  C_6
REMARK    5  A    between atoms: C_6  and  C_7
REMARK                            x       y       z     vdW  Elec       q    Type
REMARK                         _______ _______ _______ _____ _____    ______ ____
ROOT
ATOM      1  C   UNL     1       7.232   5.153  14.785  0.00  0.00    +0.000 C 
ATOM      2  O   UNL     1       7.908   5.510  13.833  0.00  0.00    +0.000 OA
ENDROOT
BRANCH   1   3
ATOM      3  O   UNL     1       7.324   5.666  16.045  0.00  0.00    +0.000 OA
BRANCH   3   5
ATOM      4  C   UNL     1       7.625   5.380  18.394  0.00  0.00    +0.000 C 
ATOM      5  C   UNL     1       7.233   4.692  17.098  0.00  0.00    +0.000 C 
ENDBRANCH   3   5
ENDBRANCH   1   3
BRANCH   1   6
ATOM      6  C   UNL     1       6.204   4.056  14.756  0.00  0.00    +0.000 C 
BRANCH   6   7
ATOM      7  C   UNL     1       6.044   3.625  13.307  0.00  0.00    +0.000 C 
ATOM      8  N   UNL     1       5.911   3.267  12.105  0.00  0.00    +0.000 NA
ENDBRANCH   6   7
ENDBRANCH   1   6
TORSDOF 4
ENDMDL
MODEL 4
REMARK VINA RESULT:      -3.8      1.237      1.373
REMARK  Name = 
REMARK  5 active torsions:
REMARK  status: ('A' for Active; 'I' for Inactive)
REMARK    1  A    between atoms: C_1  and  C_2
REMARK    2  A    between atoms: C_2  and  O_3
REMARK    3  A    between atoms: O_3  and  C_4
REMARK    4  A    between atoms: C_4  and  C_6
REMARK    5  A    between atoms: C_6  and  C_7
REMARK                            x       y       z     vdW  Elec       q    Type
REMARK                         _______ _______ _______ _____ _____    ______ ____
ROOT
ATOM      1  C   UNL     1       7.253   4.823  13.357  0.00  0.00    +0.000 C 
ATOM      2  O   UNL     1       8.152   5.647  13.416  0.00  0.00    +0.000 OA
ENDROOT
BRANCH   1   3
ATOM      3  O   UNL     1       6.948   4.078  12.257  0.00  0.00    +0.000 OA
BRANCH   3   5
ATOM      4  C   UNL     1       5.879   2.080  11.512  0.00  0.00    +0.000 C 
ATOM      5  C   UNL     1       5.724   3.331  12.358  0.00  0.00    +0.000 C 
ENDBRANCH   3   5
ENDBRANCH   1   3
BRANCH   1   6
ATOM      6  C   UNL     1       6.291   4.508  14.468  0.00  0.00    +0.000 C 
BRANCH   6   7
ATOM      7  C   UNL     1       7.085   4.497  15.764  0.00  0.00    +0.000 C 
ATOM      8  N   UNL     1       7.744   4.487  16.839  0.00  0.00    +0.000 NA
ENDBRANCH   6   7
ENDBRANCH   1   6
TORSDOF 4
ENDMDL
MODEL 5
REMARK VINA RESULT:      -3.7      5.397      6.559
REMARK  Name = 
REMARK  5 active torsions:
REMARK  status: ('A' for Active; 'I' for Inactive)
REMARK    1  A    between atoms: C_1  and  C_2
REMARK    2  A    between atoms: C_2  and  O_3
REMARK    3  A    between atoms: O_3  and  C_4
REMARK    4  A    between atoms: C_4  and  C_6
REMARK    5  A    between atoms: C_6  and  C_7
REMARK                            x       y       z     vdW  Elec       q    Type
REMARK                         _______ _______ _______ _____ _____    ______ ____
ROOT
ATOM      1  C   UNL     1       4.069   2.573  19.609  0.00  0.00    +0.000 C 
ATOM      2  O   UNL     1       4.950   2.091  20.303  0.00  0.00    +0.000 OA
ENDROOT
BRANCH   1   3
ATOM      3  O   UNL     1       2.792   2.103  19.530  0.00  0.00    +0.000 OA
BRANCH   3   5
ATOM      4  C   UNL     1       1.672   2.715  21.544  0.00  0.00    +0.000 C 
ATOM      5  C   UNL     1       1.792   2.990  20.056  0.00  0.00    +0.000 C 
ENDBRANCH   3   5
ENDBRANCH   1   3
BRANCH   1   6
ATOM      6  C   UNL     1       4.239   3.745  18.682  0.00  0.00    +0.000 C 
BRANCH   6   7
ATOM      7  C   UNL     1       5.437   4.540  19.174  0.00  0.00    +0.000 C 
ATOM      8  N   UNL     1       6.431   5.200  19.582  0.00  0.00    +0.000 NA
ENDBRANCH   6   7
ENDBRANCH   1   6
TORSDOF 4
ENDMDL
MODEL 6
REMARK VINA RESULT:      -3.7      1.567      1.567
REMARK  Name = 
REMARK  5 active torsions:
REMARK  status: ('A' for Active; 'I' for Inactive)
REMARK    1  A    between atoms: C_1  and  C_2
REMARK    2  A    between atoms: C_2  and  O_3
REMARK    3  A    between atoms: O_3  and  C_4
REMARK    4  A    between atoms: C_4  and  C_6
REMARK    5  A    between atoms: C_6  and  C_7
REMARK                            x       y       z     vdW  Elec       q    Type
REMARK                         _______ _______ _______ _____ _____    ______ ____
ROOT
ATOM      1  C   UNL     1       6.610   4.862  14.556  0.00  0.00    +0.000 C 
ATOM      2  O   UNL     1       7.728   5.344  14.464  0.00  0.00    +0.000 OA
ENDROOT
BRANCH   1   3
ATOM      3  O   UNL     1       6.213   3.695  13.974  0.00  0.00    +0.000 OA
BRANCH   3   5
ATOM      4  C   UNL     1       5.047   3.240  11.944  0.00  0.00    +0.000 C 
ATOM      5  C   UNL     1       6.379   3.649  12.547  0.00  0.00    +0.000 C 
ENDBRANCH   3   5
ENDBRANCH   1   3
BRANCH   1   6
ATOM      6  C   UNL     1       5.455   5.484  15.290  0.00  0.00    +0.000 C 
BRANCH   6   7
ATOM      7  C   UNL     1       4.936   4.450  16.275  0.00  0.00    +0.000 C 
ATOM      8  N   UNL     1       4.505   3.591  17.093  0.00  0.00    +0.000 NA
ENDBRANCH   6   7
ENDBRANCH   1   6
TORSDOF 4
ENDMDL
MODEL 7
REMARK VINA RESULT:      -3.7      2.701      3.160
REMARK  Name = 
REMARK  5 active torsions:
REMARK  status: ('A' for Active; 'I' for Inactive)
REMARK    1  A    between atoms: C_1  and  C_2
REMARK    2  A    between atoms: C_2  and  O_3
REMARK    3  A    between atoms: O_3  and  C_4
REMARK    4  A    between atoms: C_4  and  C_6
REMARK    5  A    between atoms: C_6  and  C_7
REMARK                            x       y       z     vdW  Elec       q    Type
REMARK                         _______ _______ _______ _____ _____    ______ ____
ROOT
ATOM      1  C   UNL     1       7.048   5.093  16.597  0.00  0.00    +0.000 C 
ATOM      2  O   UNL     1       7.608   4.842  15.541  0.00  0.00    +0.000 OA
ENDROOT
BRANCH   1   3
ATOM      3  O   UNL     1       6.054   4.341  17.151  0.00  0.00    +0.000 OA
BRANCH   3   5
ATOM      4  C   UNL     1       3.796   3.580  17.255  0.00  0.00    +0.000 C 
ATOM      5  C   UNL     1       4.776   4.466  16.507  0.00  0.00    +0.000 C 
ENDBRANCH   3   5
ENDBRANCH   1   3
BRANCH   1   6
ATOM      6  C   UNL     1       7.317   6.295  17.458  0.00  0.00    +0.000 C 
BRANCH   6   7
ATOM      7  C   UNL     1       7.480   5.801  18.886  0.00  0.00    +0.000 C 
ATOM      8  N   UNL     1       7.614   5.391  20.071  0.00  0.00    +0.000 NA
ENDBRANCH   6   7
ENDBRANCH   1   6
TORSDOF 4
ENDMDL
MODEL 8
REMARK VINA RESULT:      -3.7      1.578      1.771
REMARK  Name = 
REMARK  5 active torsions:
REMARK  status: ('A' for Active; 'I' for Inactive)
REMARK    1  A    between atoms: C_1  and  C_2
REMARK    2  A    between atoms: C_2  and  O_3
REMARK    3  A    between atoms: O_3  and  C_4
REMARK    4  A    between atoms: C_4  and  C_6
REMARK    5  A    between atoms: C_6  and  C_7
REMARK                            x       y       z     vdW  Elec       q    Type
REMARK                         _______ _______ _______ _____ _____    ______ ____
ROOT
ATOM      1  C   UNL     1       6.539   4.318  16.325  0.00  0.00    +0.000 C 
ATOM      2  O   UNL     1       7.709   4.638  16.472  0.00  0.00    +0.000 OA
ENDROOT
BRANCH   1   3
ATOM      3  O   UNL     1       6.006   3.818  15.174  0.00  0.00    +0.000 OA
BRANCH   3   5
ATOM      4  C   UNL     1       6.014   3.546  12.805  0.00  0.00    +0.000 C 
ATOM      5  C   UNL     1       6.588   4.337  13.967  0.00  0.00    +0.000 C 
ENDBRANCH   3   5
ENDBRANCH   1   3
BRANCH   1   6
ATOM      6  C   UNL     1       5.465   4.454  17.368  0.00  0.00    +0.000 C 
BRANCH   6   7
ATOM      7  C   UNL     1       6.135   4.926  18.648  0.00  0.00    +0.000 C 
ATOM      8  N   UNL     1       6.691   5.317  19.710  0.00  0.00    +0.000 NA
ENDBRANCH   6   7
ENDBRANCH   1   6
TORSDOF 4
ENDMDL
MODEL 9
REMARK VINA RESULT:      -3.7      5.602      6.813
REMARK  Name = 
REMARK  5 active torsions:
REMARK  status: ('A' for Active; 'I' for Inactive)
REMARK    1  A    between atoms: C_1  and  C_2
REMARK    2  A    between atoms: C_2  and  O_3
REMARK    3  A    between atoms: O_3  and  C_4
REMARK    4  A    between atoms: C_4  and  C_6
REMARK    5  A    between atoms: C_6  and  C_7
REMARK                            x       y       z     vdW  Elec       q    Type
REMARK                         _______ _______ _______ _____ _____    ______ ____
ROOT
ATOM      1  C   UNL     1       2.237   3.931  18.262  0.00  0.00    +0.000 C 
ATOM      2  O   UNL     1       1.320   3.752  17.476  0.00  0.00    +0.000 OA
ENDROOT
BRANCH   1   3
ATOM      3  O   UNL     1       2.089   4.340  19.554  0.00  0.00    +0.000 OA
BRANCH   3   5
ATOM      4  C   UNL     1       1.329   2.871  21.273  0.00  0.00    +0.000 C 
ATOM      5  C   UNL     1       0.900   3.860  20.204  0.00  0.00    +0.000 C 
ENDBRANCH   3   5
ENDBRANCH   1   3
BRANCH   1   6
ATOM      6  C   UNL     1       3.697   3.776  17.941  0.00  0.00    +0.000 C 
BRANCH   6   7
ATOM      7  C   UNL     1       4.336   3.019  19.094  0.00  0.00    +0.000 C 
ATOM      8  N   UNL     1       4.865   2.391  20.051  0.00  0.00    +0.000 NA
ENDBRANCH   6   7
ENDBRANCH   1   6
TORSDOF 4
ENDMDL
