MODEL 1
REMARK VINA RESULT:      -6.3      0.000      0.000
REMARK  Name = 
REMARK  12 active torsions:
REMARK  status: ('A' for Active; 'I' for Inactive)
REMARK    1  A    between atoms: C_1  and  O_2
REMARK    2  A    between atoms: O_2  and  C_3
REMARK    3  A    between atoms: C_7  and  N_8
REMARK    4  A    between atoms: C_9  and  C_11
REMARK    5  A    between atoms: C_11  and  N_12
REMARK    6  A    between atoms: C_11  and  C_21
REMARK    7  A    between atoms: N_12  and  S_13
REMARK    8  A    between atoms: S_13  and  C_16
REMARK    9  A    between atoms: C_21  and  C_22
REMARK   10  A    between atoms: C_21  and  C_23
REMARK   11  A    between atoms: C_24  and  O_25
REMARK   12  A    between atoms: O_25  and  C_26
REMARK                            x       y       z     vdW  Elec       q    Type
REMARK                         _______ _______ _______ _____ _____    ______ ____
ROOT
ATOM      1  N   UNL     1       1.545   7.936  19.812  0.00  0.00    +0.000 N 
ATOM      2  C   UNL     1       2.429   7.372  18.926  0.00  0.00    +0.000 C 
ATOM      3  O   UNL     1       3.008   8.005  18.052  0.00  0.00    +0.000 OA
ATOM      4  H   UNL     1       1.305   7.414  20.648  0.00  0.00    +0.000 HD
ENDROOT
BRANCH   1   9
ATOM      5  C   UNL     1       0.008  11.890  20.165  0.00  0.00    +0.000 A 
ATOM      6  C   UNL     1      -0.061  11.262  18.931  0.00  0.00    +0.000 A 
ATOM      7  C   UNL     1       0.382   9.945  18.752  0.00  0.00    +0.000 A 
ATOM      8 CL   UNL     1      -0.039   9.337  17.191  0.00  0.00    +0.000 Cl
ATOM      9  C   UNL     1       0.974   9.246  19.822  0.00  0.00    +0.000 A 
ATOM     10  C   UNL     1       1.003   9.885  21.095  0.00  0.00    +0.000 A 
ATOM     11  C   UNL     1       0.522  11.193  21.252  0.00  0.00    +0.000 A 
BRANCH   5  13
ATOM     12  C   UNL     1       0.232  14.200  19.690  0.00  0.00    +0.000 C 
ATOM     13  O   UNL     1      -0.424  13.163  20.418  0.00  0.00    +0.000 OA
ENDBRANCH   5  13
BRANCH  10  14
ATOM     14  O   UNL     1       1.516   9.129  22.134  0.00  0.00    +0.000 OA
ATOM     15  C   UNL     1       0.837   9.209  23.388  0.00  0.00    +0.000 C 
ENDBRANCH  10  14
ENDBRANCH   1   9
BRANCH   2  16
ATOM     16  C   UNL     1       2.790   5.875  19.085  0.00  0.00    +0.000 C 
BRANCH  16  17
ATOM     17  C   UNL     1       1.684   4.980  19.721  0.00  0.00    +0.000 C 
ATOM     18  C   UNL     1       1.411   3.711  18.894  0.00  0.00    +0.000 C 
ATOM     19  C   UNL     1       2.026   4.511  21.146  0.00  0.00    +0.000 C 
ENDBRANCH  16  17
BRANCH  16  20
ATOM     20  N   UNL     1       4.070   5.729  19.860  0.00  0.00    +0.000 NA
ATOM     21  H   UNL     1       3.920   5.393  20.813  0.00  0.00    +0.000 HD
BRANCH  20  22
ATOM     22  S   UNL     1       5.297   4.703  19.256  0.00  0.00    +0.000 S 
ATOM     23  O   UNL     1       6.529   5.334  19.693  0.00  0.00    +0.000 OA
ATOM     24  O   UNL     1       5.018   3.341  19.653  0.00  0.00    +0.000 OA
BRANCH  22  25
ATOM     25  C   UNL     1       5.352   4.782  17.472  0.00  0.00    +0.000 A 
ATOM     26  C   UNL     1       4.848   3.977  16.468  0.00  0.00    +0.000 A 
ATOM     27  C   UNL     1       5.164   4.457  15.160  0.00  0.00    +0.000 A 
ATOM     28  C   UNL     1       5.916   5.611  15.211  0.00  0.00    +0.000 A 
ATOM     29  S   UNL     1       6.200   6.124  16.818  0.00  0.00    +0.000 S 
ENDBRANCH  22  25
ENDBRANCH  20  22
ENDBRANCH  16  20
ENDBRANCH   2  16
TORSDOF 8
ENDMDL
MODEL 2
REMARK VINA RESULT:      -6.2      2.458      3.430
REMARK  Name = 
REMARK  12 active torsions:
REMARK  status: ('A' for Active; 'I' for Inactive)
REMARK    1  A    between atoms: C_1  and  O_2
REMARK    2  A    between atoms: O_2  and  C_3
REMARK    3  A    between atoms: C_7  and  N_8
REMARK    4  A    between atoms: C_9  and  C_11
REMARK    5  A    between atoms: C_11  and  N_12
REMARK    6  A    between atoms: C_11  and  C_21
REMARK    7  A    between atoms: N_12  and  S_13
REMARK    8  A    between atoms: S_13  and  C_16
REMARK    9  A    between atoms: C_21  and  C_22
REMARK   10  A    between atoms: C_21  and  C_23
REMARK   11  A    between atoms: C_24  and  O_25
REMARK   12  A    between atoms: O_25  and  C_26
REMARK                            x       y       z     vdW  Elec       q    Type
REMARK                         _______ _______ _______ _____ _____    ______ ____
ROOT
ATOM      1  N   UNL     1       3.538   5.441  19.201  0.00  0.00    +0.000 N 
ATOM      2  C   UNL     1       3.452   4.533  18.174  0.00  0.00    +0.000 C 
ATOM      3  O   UNL     1       2.640   4.619  17.262  0.00  0.00    +0.000 OA
ATOM      4  H   UNL     1       4.380   5.445  19.767  0.00  0.00    +0.000 HD
ENDROOT
BRANCH   1   9
ATOM      5  C   UNL     1       0.879   8.476  20.557  0.00  0.00    +0.000 A 
ATOM      6  C   UNL     1       1.625   8.715  19.413  0.00  0.00    +0.000 A 
ATOM      7  C   UNL     1       2.486   7.744  18.883  0.00  0.00    +0.000 A 
ATOM      8 CL   UNL     1       3.100   8.213  17.338  0.00  0.00    +0.000 Cl
ATOM      9  C   UNL     1       2.660   6.514  19.546  0.00  0.00    +0.000 A 
ATOM     10  C   UNL     1       1.859   6.263  20.698  0.00  0.00    +0.000 A 
ATOM     11  C   UNL     1       0.981   7.240  21.187  0.00  0.00    +0.000 A 
BRANCH   5  13
ATOM     12  C   UNL     1      -0.123   9.302  22.539  0.00  0.00    +0.000 C 
ATOM     13  O   UNL     1       0.005   9.366  21.119  0.00  0.00    +0.000 OA
ENDBRANCH   5  13
BRANCH  10  14
ATOM     14  O   UNL     1       2.001   5.009  21.266  0.00  0.00    +0.000 OA
ATOM     15  C   UNL     1       1.089   3.998  20.838  0.00  0.00    +0.000 C 
ENDBRANCH  10  14
ENDBRANCH   1   9
BRANCH   2  16
ATOM     16  C   UNL     1       4.488   3.385  18.106  0.00  0.00    +0.000 C 
BRANCH  16  17
ATOM     17  C   UNL     1       4.056   2.048  18.782  0.00  0.00    +0.000 C 
ATOM     18  C   UNL     1       4.259   2.073  20.308  0.00  0.00    +0.000 C 
ATOM     19  C   UNL     1       2.578   1.695  18.541  0.00  0.00    +0.000 C 
ENDBRANCH  16  17
BRANCH  16  20
ATOM     20  N   UNL     1       5.804   3.839  18.673  0.00  0.00    +0.000 NA
ATOM     21  H   UNL     1       6.386   3.064  18.994  0.00  0.00    +0.000 HD
BRANCH  20  22
ATOM     22  S   UNL     1       6.859   4.761  17.692  0.00  0.00    +0.000 S 
ATOM     23  O   UNL     1       6.425   6.129  17.899  0.00  0.00    +0.000 OA
ATOM     24  O   UNL     1       8.226   4.397  17.992  0.00  0.00    +0.000 OA
BRANCH  22  25
ATOM     25  C   UNL     1       6.544   4.437  15.964  0.00  0.00    +0.000 A 
ATOM     26  C   UNL     1       5.682   3.590  15.296  0.00  0.00    +0.000 A 
ATOM     27  C   UNL     1       5.802   3.681  13.875  0.00  0.00    +0.000 A 
ATOM     28  C   UNL     1       6.769   4.590  13.505  0.00  0.00    +0.000 A 
ATOM     29  S   UNL     1       7.492   5.348  14.858  0.00  0.00    +0.000 S 
ENDBRANCH  22  25
ENDBRANCH  20  22
ENDBRANCH  16  20
ENDBRANCH   2  16
TORSDOF 8
ENDMDL
MODEL 3
REMARK VINA RESULT:      -6.0      1.393      1.700
REMARK  Name = 
REMARK  12 active torsions:
REMARK  status: ('A' for Active; 'I' for Inactive)
REMARK    1  A    between atoms: C_1  and  O_2
REMARK    2  A    between atoms: O_2  and  C_3
REMARK    3  A    between atoms: C_7  and  N_8
REMARK    4  A    between atoms: C_9  and  C_11
REMARK    5  A    between atoms: C_11  and  N_12
REMARK    6  A    between atoms: C_11  and  C_21
REMARK    7  A    between atoms: N_12  and  S_13
REMARK    8  A    between atoms: S_13  and  C_16
REMARK    9  A    between atoms: C_21  and  C_22
REMARK   10  A    between atoms: C_21  and  C_23
REMARK   11  A    between atoms: C_24  and  O_25
REMARK   12  A    between atoms: O_25  and  C_26
REMARK                            x       y       z     vdW  Elec       q    Type
REMARK                         _______ _______ _______ _____ _____    ______ ____
ROOT
ATOM      1  N   UNL     1       1.386   7.801  20.147  0.00  0.00    +0.000 N 
ATOM      2  C   UNL     1       2.268   7.138  19.328  0.00  0.00    +0.000 C 
ATOM      3  O   UNL     1       2.943   7.693  18.471  0.00  0.00    +0.000 OA
ATOM      4  H   UNL     1       1.059   7.327  20.983  0.00  0.00    +0.000 HD
ENDROOT
BRANCH   1   9
ATOM      5  C   UNL     1       0.138  11.867  20.312  0.00  0.00    +0.000 A 
ATOM      6  C   UNL     1       0.181  11.240  19.077  0.00  0.00    +0.000 A 
ATOM      7  C   UNL     1       0.538   9.889  18.952  0.00  0.00    +0.000 A 
ATOM      8 CL   UNL     1       0.277   9.308  17.347  0.00  0.00    +0.000 Cl
ATOM      9  C   UNL     1       0.926   9.152  20.088  0.00  0.00    +0.000 A 
ATOM     10  C   UNL     1       0.839   9.795  21.357  0.00  0.00    +0.000 A 
ATOM     11  C   UNL     1       0.447  11.138  21.455  0.00  0.00    +0.000 A 
BRANCH   5  13
ATOM     12  C   UNL     1       0.307  14.113  19.578  0.00  0.00    +0.000 C 
ATOM     13  O   UNL     1      -0.220  13.172  20.512  0.00  0.00    +0.000 OA
ENDBRANCH   5  13
BRANCH  10  14
ATOM     14  O   UNL     1       1.148   9.006  22.450  0.00  0.00    +0.000 OA
ATOM     15  C   UNL     1       0.397   9.232  23.643  0.00  0.00    +0.000 C 
ENDBRANCH  10  14
ENDBRANCH   1   9
BRANCH   2  16
ATOM     16  C   UNL     1       2.494   5.623  19.550  0.00  0.00    +0.000 C 
BRANCH  16  17
ATOM     17  C   UNL     1       1.535   4.942  20.572  0.00  0.00    +0.000 C 
ATOM     18  C   UNL     1       0.615   3.902  19.906  0.00  0.00    +0.000 C 
ATOM     19  C   UNL     1       2.275   4.212  21.707  0.00  0.00    +0.000 C 
ENDBRANCH  16  17
BRANCH  16  20
ATOM     20  N   UNL     1       3.922   5.364  19.942  0.00  0.00    +0.000 NA
ATOM     21  H   UNL     1       4.006   4.729  20.738  0.00  0.00    +0.000 HD
BRANCH  20  22
ATOM     22  S   UNL     1       4.998   4.709  18.785  0.00  0.00    +0.000 S 
ATOM     23  O   UNL     1       5.611   3.587  19.471  0.00  0.00    +0.000 OA
ATOM     24  O   UNL     1       4.284   4.481  17.548  0.00  0.00    +0.000 OA
BRANCH  22  25
ATOM     25  C   UNL     1       6.342   5.843  18.473  0.00  0.00    +0.000 A 
ATOM     26  C   UNL     1       7.563   6.063  19.081  0.00  0.00    +0.000 A 
ATOM     27  C   UNL     1       8.311   7.111  18.463  0.00  0.00    +0.000 A 
ATOM     28  C   UNL     1       7.625   7.671  17.407  0.00  0.00    +0.000 A 
ATOM     29  S   UNL     1       6.115   6.910  17.146  0.00  0.00    +0.000 S 
ENDBRANCH  22  25
ENDBRANCH  20  22
ENDBRANCH  16  20
ENDBRANCH   2  16
TORSDOF 8
ENDMDL
MODEL 4
REMARK VINA RESULT:      -6.0      1.326      1.488
REMARK  Name = 
REMARK  12 active torsions:
REMARK  status: ('A' for Active; 'I' for Inactive)
REMARK    1  A    between atoms: C_1  and  O_2
REMARK    2  A    between atoms: O_2  and  C_3
REMARK    3  A    between atoms: C_7  and  N_8
REMARK    4  A    between atoms: C_9  and  C_11
REMARK    5  A    between atoms: C_11  and  N_12
REMARK    6  A    between atoms: C_11  and  C_21
REMARK    7  A    between atoms: N_12  and  S_13
REMARK    8  A    between atoms: S_13  and  C_16
REMARK    9  A    between atoms: C_21  and  C_22
REMARK   10  A    between atoms: C_21  and  C_23
REMARK   11  A    between atoms: C_24  and  O_25
REMARK   12  A    between atoms: O_25  and  C_26
REMARK                            x       y       z     vdW  Elec       q    Type
REMARK                         _______ _______ _______ _____ _____    ______ ____
ROOT
ATOM      1  N   UNL     1       2.259   7.419  19.915  0.00  0.00    +0.000 N 
ATOM      2  C   UNL     1       2.243   6.278  19.150  0.00  0.00    +0.000 C 
ATOM      3  O   UNL     1       1.827   6.242  17.999  0.00  0.00    +0.000 OA
ATOM      4  H   UNL     1       2.839   7.429  20.748  0.00  0.00    +0.000 HD
ENDROOT
BRANCH   1   9
ATOM      5  C   UNL     1       0.400  11.226  19.513  0.00  0.00    +0.000 A 
ATOM      6  C   UNL     1       1.261  10.803  18.512  0.00  0.00    +0.000 A 
ATOM      7  C   UNL     1       1.872   9.542  18.555  0.00  0.00    +0.000 A 
ATOM      8 CL   UNL     1       2.695   9.183  17.079  0.00  0.00    +0.000 Cl
ATOM      9  C   UNL     1       1.670   8.696  19.662  0.00  0.00    +0.000 A 
ATOM     10  C   UNL     1       0.752   9.123  20.665  0.00  0.00    +0.000 A 
ATOM     11  C   UNL     1       0.129  10.376  20.579  0.00  0.00    +0.000 A 
BRANCH   5  13
ATOM     12  C   UNL     1      -0.930  12.785  18.323  0.00  0.00    +0.000 C 
ATOM     13  O   UNL     1      -0.248  12.431  19.526  0.00  0.00    +0.000 OA
ENDBRANCH   5  13
BRANCH  10  14
ATOM     14  O   UNL     1       0.522   8.222  21.689  0.00  0.00    +0.000 OA
ATOM     15  C   UNL     1      -0.436   8.600  22.679  0.00  0.00    +0.000 C 
ENDBRANCH  10  14
ENDBRANCH   1   9
BRANCH   2  16
ATOM     16  C   UNL     1       2.864   4.983  19.729  0.00  0.00    +0.000 C 
BRANCH  16  17
ATOM     17  C   UNL     1       2.046   4.295  20.863  0.00  0.00    +0.000 C 
ATOM     18  C   UNL     1       0.646   3.860  20.392  0.00  0.00    +0.000 C 
ATOM     19  C   UNL     1       2.729   3.038  21.428  0.00  0.00    +0.000 C 
ENDBRANCH  16  17
BRANCH  16  20
ATOM     20  N   UNL     1       4.266   5.246  20.201  0.00  0.00    +0.000 NA
ATOM     21  H   UNL     1       4.448   4.868  21.132  0.00  0.00    +0.000 HD
BRANCH  20  22
ATOM     22  S   UNL     1       5.580   4.675  19.267  0.00  0.00    +0.000 S 
ATOM     23  O   UNL     1       6.735   5.338  19.843  0.00  0.00    +0.000 OA
ATOM     24  O   UNL     1       5.540   3.230  19.224  0.00  0.00    +0.000 OA
BRANCH  22  25
ATOM     25  C   UNL     1       5.477   5.304  17.599  0.00  0.00    +0.000 A 
ATOM     26  C   UNL     1       5.176   6.541  17.065  0.00  0.00    +0.000 A 
ATOM     27  C   UNL     1       5.214   6.556  15.636  0.00  0.00    +0.000 A 
ATOM     28  C   UNL     1       5.530   5.316  15.125  0.00  0.00    +0.000 A 
ATOM     29  S   UNL     1       5.814   4.164  16.358  0.00  0.00    +0.000 S 
ENDBRANCH  22  25
ENDBRANCH  20  22
ENDBRANCH  16  20
ENDBRANCH   2  16
TORSDOF 8
ENDMDL
MODEL 5
REMARK VINA RESULT:      -6.0      2.375      3.743
REMARK  Name = 
REMARK  12 active torsions:
REMARK  status: ('A' for Active; 'I' for Inactive)
REMARK    1  A    between atoms: C_1  and  O_2
REMARK    2  A    between atoms: O_2  and  C_3
REMARK    3  A    between atoms: C_7  and  N_8
REMARK    4  A    between atoms: C_9  and  C_11
REMARK    5  A    between atoms: C_11  and  N_12
REMARK    6  A    between atoms: C_11  and  C_21
REMARK    7  A    between atoms: N_12  and  S_13
REMARK    8  A    between atoms: S_13  and  C_16
REMARK    9  A    between atoms: C_21  and  C_22
REMARK   10  A    between atoms: C_21  and  C_23
REMARK   11  A    between atoms: C_24  and  O_25
REMARK   12  A    between atoms: O_25  and  C_26
REMARK                            x       y       z     vdW  Elec       q    Type
REMARK                         _______ _______ _______ _____ _____    ______ ____
ROOT
ATOM      1  N   UNL     1       2.678   5.574  18.479  0.00  0.00    +0.000 N 
ATOM      2  C   UNL     1       3.959   5.077  18.457  0.00  0.00    +0.000 C 
ATOM      3  O   UNL     1       4.812   5.371  19.283  0.00  0.00    +0.000 OA
ATOM      4  H   UNL     1       1.971   5.101  17.926  0.00  0.00    +0.000 HD
ENDROOT
BRANCH   1   9
ATOM      5  C   UNL     1       0.996   8.438  21.141  0.00  0.00    +0.000 A 
ATOM      6  C   UNL     1       1.556   8.888  19.956  0.00  0.00    +0.000 A 
ATOM      7  C   UNL     1       2.087   7.998  19.011  0.00  0.00    +0.000 A 
ATOM      8 CL   UNL     1       2.496   8.803  17.538  0.00  0.00    +0.000 Cl
ATOM      9  C   UNL     1       2.118   6.616  19.280  0.00  0.00    +0.000 A 
ATOM     10  C   UNL     1       1.503   6.161  20.482  0.00  0.00    +0.000 A 
ATOM     11  C   UNL     1       0.951   7.071  21.394  0.00  0.00    +0.000 A 
BRANCH   5  13
ATOM     12  C   UNL     1      -0.091  10.484  21.633  0.00  0.00    +0.000 C 
ATOM     13  O   UNL     1       0.441   9.244  22.097  0.00  0.00    +0.000 OA
ENDBRANCH   5  13
BRANCH  10  14
ATOM     14  O   UNL     1       1.483   4.789  20.662  0.00  0.00    +0.000 OA
ATOM     15  C   UNL     1       2.373   4.253  21.642  0.00  0.00    +0.000 C 
ENDBRANCH  10  14
ENDBRANCH   1   9
BRANCH   2  16
ATOM     16  C   UNL     1       4.328   4.019  17.388  0.00  0.00    +0.000 C 
BRANCH  16  17
ATOM     17  C   UNL     1       3.924   2.552  17.726  0.00  0.00    +0.000 C 
ATOM     18  C   UNL     1       4.292   2.163  19.170  0.00  0.00    +0.000 C 
ATOM     19  C   UNL     1       2.417   2.285  17.570  0.00  0.00    +0.000 C 
ENDBRANCH  16  17
BRANCH  16  20
ATOM     20  N   UNL     1       5.798   4.084  17.081  0.00  0.00    +0.000 NA
ATOM     21  H   UNL     1       6.144   3.241  16.618  0.00  0.00    +0.000 HD
BRANCH  20  22
ATOM     22  S   UNL     1       6.389   5.356  16.104  0.00  0.00    +0.000 S 
ATOM     23  O   UNL     1       5.273   6.278  16.016  0.00  0.00    +0.000 OA
ATOM     24  O   UNL     1       7.652   5.818  16.637  0.00  0.00    +0.000 OA
BRANCH  22  25
ATOM     25  C   UNL     1       6.646   4.788  14.430  0.00  0.00    +0.000 A 
ATOM     26  C   UNL     1       7.578   5.087  13.455  0.00  0.00    +0.000 A 
ATOM     27  C   UNL     1       7.365   4.365  12.241  0.00  0.00    +0.000 A 
ATOM     28  C   UNL     1       6.261   3.545  12.326  0.00  0.00    +0.000 A 
ATOM     29  S   UNL     1       5.519   3.621  13.865  0.00  0.00    +0.000 S 
ENDBRANCH  22  25
ENDBRANCH  20  22
ENDBRANCH  16  20
ENDBRANCH   2  16
TORSDOF 8
ENDMDL
MODEL 6
REMARK VINA RESULT:      -5.9      1.053      1.069
REMARK  Name = 
REMARK  12 active torsions:
REMARK  status: ('A' for Active; 'I' for Inactive)
REMARK    1  A    between atoms: C_1  and  O_2
REMARK    2  A    between atoms: O_2  and  C_3
REMARK    3  A    between atoms: C_7  and  N_8
REMARK    4  A    between atoms: C_9  and  C_11
REMARK    5  A    between atoms: C_11  and  N_12
REMARK    6  A    between atoms: C_11  and  C_21
REMARK    7  A    between atoms: N_12  and  S_13
REMARK    8  A    between atoms: S_13  and  C_16
REMARK    9  A    between atoms: C_21  and  C_22
REMARK   10  A    between atoms: C_21  and  C_23
REMARK   11  A    between atoms: C_24  and  O_25
REMARK   12  A    between atoms: O_25  and  C_26
REMARK                            x       y       z     vdW  Elec       q    Type
REMARK                         _______ _______ _______ _____ _____    ______ ____
ROOT
ATOM      1  N   UNL     1       1.827   7.898  19.852  0.00  0.00    +0.000 N 
ATOM      2  C   UNL     1       2.099   6.980  18.866  0.00  0.00    +0.000 C 
ATOM      3  O   UNL     1       2.044   7.236  17.670  0.00  0.00    +0.000 OA
ATOM      4  H   UNL     1       2.133   7.692  20.797  0.00  0.00    +0.000 HD
ENDROOT
BRANCH   1   9
ATOM      5  C   UNL     1       0.022  11.753  19.870  0.00  0.00    +0.000 A 
ATOM      6  C   UNL     1       1.015  11.494  18.938  0.00  0.00    +0.000 A 
ATOM      7  C   UNL     1       1.621  10.233  18.844  0.00  0.00    +0.000 A 
ATOM      8 CL   UNL     1       2.641  10.120  17.454  0.00  0.00    +0.000 Cl
ATOM      9  C   UNL     1       1.273   9.211  19.748  0.00  0.00    +0.000 A 
ATOM     10  C   UNL     1       0.223   9.475  20.674  0.00  0.00    +0.000 A 
ATOM     11  C   UNL     1      -0.388  10.736  20.724  0.00  0.00    +0.000 A 
BRANCH   5  13
ATOM     12  C   UNL     1      -1.731  12.960  20.909  0.00  0.00    +0.000 C 
ATOM     13  O   UNL     1      -0.627  12.950  20.005  0.00  0.00    +0.000 OA
ENDBRANCH   5  13
BRANCH  10  14
ATOM     14  O   UNL     1      -0.143   8.415  21.484  0.00  0.00    +0.000 OA
ATOM     15  C   UNL     1      -0.559   8.730  22.813  0.00  0.00    +0.000 C 
ENDBRANCH  10  14
ENDBRANCH   1   9
BRANCH   2  16
ATOM     16  C   UNL     1       2.588   5.570  19.277  0.00  0.00    +0.000 C 
BRANCH  16  17
ATOM     17  C   UNL     1       1.635   4.776  20.220  0.00  0.00    +0.000 C 
ATOM     18  C   UNL     1       1.034   3.535  19.533  0.00  0.00    +0.000 C 
ATOM     19  C   UNL     1       2.324   4.278  21.502  0.00  0.00    +0.000 C 
ENDBRANCH  16  17
BRANCH  16  20
ATOM     20  N   UNL     1       3.957   5.654  19.891  0.00  0.00    +0.000 NA
ATOM     21  H   UNL     1       3.959   5.433  20.888  0.00  0.00    +0.000 HD
BRANCH  20  22
ATOM     22  S   UNL     1       5.215   4.683  19.258  0.00  0.00    +0.000 S 
ATOM     23  O   UNL     1       6.427   5.335  19.718  0.00  0.00    +0.000 OA
ATOM     24  O   UNL     1       4.974   3.302  19.612  0.00  0.00    +0.000 OA
BRANCH  22  25
ATOM     25  C   UNL     1       5.270   4.819  17.478  0.00  0.00    +0.000 A 
ATOM     26  C   UNL     1       5.176   3.901  16.450  0.00  0.00    +0.000 A 
ATOM     27  C   UNL     1       5.287   4.499  15.157  0.00  0.00    +0.000 A 
ATOM     28  C   UNL     1       5.481   5.861  15.244  0.00  0.00    +0.000 A 
ATOM     29  S   UNL     1       5.487   6.409  16.865  0.00  0.00    +0.000 S 
ENDBRANCH  22  25
ENDBRANCH  20  22
ENDBRANCH  16  20
ENDBRANCH   2  16
TORSDOF 8
ENDMDL
MODEL 7
REMARK VINA RESULT:      -5.9      2.743      3.878
REMARK  Name = 
REMARK  12 active torsions:
REMARK  status: ('A' for Active; 'I' for Inactive)
REMARK    1  A    between atoms: C_1  and  O_2
REMARK    2  A    between atoms: O_2  and  C_3
REMARK    3  A    between atoms: C_7  and  N_8
REMARK    4  A    between atoms: C_9  and  C_11
REMARK    5  A    between atoms: C_11  and  N_12
REMARK    6  A    between atoms: C_11  and  C_21
REMARK    7  A    between atoms: N_12  and  S_13
REMARK    8  A    between atoms: S_13  and  C_16
REMARK    9  A    between atoms: C_21  and  C_22
REMARK   10  A    between atoms: C_21  and  C_23
REMARK   11  A    between atoms: C_24  and  O_25
REMARK   12  A    between atoms: O_25  and  C_26
REMARK                            x       y       z     vdW  Elec       q    Type
REMARK                         _______ _______ _______ _____ _____    ______ ____
ROOT
ATOM      1  N   UNL     1       3.010   5.187  18.670  0.00  0.00    +0.000 N 
ATOM      2  C   UNL     1       2.475   4.284  17.783  0.00  0.00    +0.000 C 
ATOM      3  O   UNL     1       1.387   4.431  17.241  0.00  0.00    +0.000 OA
ATOM      4  H   UNL     1       4.001   5.125  18.877  0.00  0.00    +0.000 HD
ENDROOT
BRANCH   1   9
ATOM      5  C   UNL     1       1.164   8.379  20.795  0.00  0.00    +0.000 A 
ATOM      6  C   UNL     1       1.867   8.676  19.638  0.00  0.00    +0.000 A 
ATOM      7  C   UNL     1       2.461   7.671  18.862  0.00  0.00    +0.000 A 
ATOM      8 CL   UNL     1       3.059   8.292  17.365  0.00  0.00    +0.000 Cl
ATOM      9  C   UNL     1       2.408   6.328  19.283  0.00  0.00    +0.000 A 
ATOM     10  C   UNL     1       1.649   6.029  20.452  0.00  0.00    +0.000 A 
ATOM     11  C   UNL     1       1.037   7.052  21.190  0.00  0.00    +0.000 A 
BRANCH   5  13
ATOM     12  C   UNL     1      -0.587   8.833  22.325  0.00  0.00    +0.000 C 
ATOM     13  O   UNL     1       0.541   9.304  21.588  0.00  0.00    +0.000 OA
ENDBRANCH   5  13
BRANCH  10  14
ATOM     14  O   UNL     1       1.555   4.688  20.778  0.00  0.00    +0.000 OA
ATOM     15  C   UNL     1       2.529   4.174  21.687  0.00  0.00    +0.000 C 
ENDBRANCH  10  14
ENDBRANCH   1   9
BRANCH   2  16
ATOM     16  C   UNL     1       3.322   3.055  17.370  0.00  0.00    +0.000 C 
BRANCH  16  17
ATOM     17  C   UNL     1       3.018   1.738  18.145  0.00  0.00    +0.000 C 
ATOM     18  C   UNL     1       4.064   1.448  19.237  0.00  0.00    +0.000 C 
ATOM     19  C   UNL     1       1.646   1.745  18.842  0.00  0.00    +0.000 C 
ENDBRANCH  16  17
BRANCH  16  20
ATOM     20  N   UNL     1       4.787   3.377  17.469  0.00  0.00    +0.000 NA
ATOM     21  H   UNL     1       5.378   2.545  17.448  0.00  0.00    +0.000 HD
BRANCH  20  22
ATOM     22  S   UNL     1       5.493   4.407  16.301  0.00  0.00    +0.000 S 
ATOM     23  O   UNL     1       6.441   3.555  15.609  0.00  0.00    +0.000 OA
ATOM     24  O   UNL     1       4.446   5.062  15.548  0.00  0.00    +0.000 OA
BRANCH  22  25
ATOM     25  C   UNL     1       6.495   5.654  17.096  0.00  0.00    +0.000 A 
ATOM     26  C   UNL     1       6.703   7.000  16.862  0.00  0.00    +0.000 A 
ATOM     27  C   UNL     1       7.624   7.589  17.782  0.00  0.00    +0.000 A 
ATOM     28  C   UNL     1       8.102   6.663  18.683  0.00  0.00    +0.000 A 
ATOM     29  S   UNL     1       7.416   5.115  18.441  0.00  0.00    +0.000 S 
ENDBRANCH  22  25
ENDBRANCH  20  22
ENDBRANCH  16  20
ENDBRANCH   2  16
TORSDOF 8
ENDMDL
MODEL 8
REMARK VINA RESULT:      -5.8      3.566      8.304
REMARK  Name = 
REMARK  12 active torsions:
REMARK  status: ('A' for Active; 'I' for Inactive)
REMARK    1  A    between atoms: C_1  and  O_2
REMARK    2  A    between atoms: O_2  and  C_3
REMARK    3  A    between atoms: C_7  and  N_8
REMARK    4  A    between atoms: C_9  and  C_11
REMARK    5  A    between atoms: C_11  and  N_12
REMARK    6  A    between atoms: C_11  and  C_21
REMARK    7  A    between atoms: N_12  and  S_13
REMARK    8  A    between atoms: S_13  and  C_16
REMARK    9  A    between atoms: C_21  and  C_22
REMARK   10  A    between atoms: C_21  and  C_23
REMARK   11  A    between atoms: C_24  and  O_25
REMARK   12  A    between atoms: O_25  and  C_26
REMARK                            x       y       z     vdW  Elec       q    Type
REMARK                         _______ _______ _______ _____ _____    ______ ____
ROOT
ATOM      1  N   UNL     1       2.620   7.250  18.955  0.00  0.00    +0.000 N 
ATOM      2  C   UNL     1       1.979   8.422  18.634  0.00  0.00    +0.000 C 
ATOM      3  O   UNL     1       1.853   8.831  17.487  0.00  0.00    +0.000 OA
ATOM      4  H   UNL     1       2.466   6.857  19.878  0.00  0.00    +0.000 HD
ENDROOT
BRANCH   1   9
ATOM      5  C   UNL     1       4.672   4.436  16.507  0.00  0.00    +0.000 A 
ATOM      6  C   UNL     1       5.179   5.723  16.601  0.00  0.00    +0.000 A 
ATOM      7  C   UNL     1       4.583   6.688  17.425  0.00  0.00    +0.000 A 
ATOM      8 CL   UNL     1       5.550   8.115  17.536  0.00  0.00    +0.000 Cl
ATOM      9  C   UNL     1       3.404   6.383  18.132  0.00  0.00    +0.000 A 
ATOM     10  C   UNL     1       2.914   5.047  18.061  0.00  0.00    +0.000 A 
ATOM     11  C   UNL     1       3.551   4.093  17.254  0.00  0.00    +0.000 A 
BRANCH   5  13
ATOM     12  C   UNL     1       6.312   3.816  14.914  0.00  0.00    +0.000 C 
ATOM     13  O   UNL     1       5.213   3.438  15.743  0.00  0.00    +0.000 OA
ENDBRANCH   5  13
BRANCH  10  14
ATOM     14  O   UNL     1       1.804   4.773  18.839  0.00  0.00    +0.000 OA
ATOM     15  C   UNL     1       1.261   3.456  18.749  0.00  0.00    +0.000 C 
ENDBRANCH  10  14
ENDBRANCH   1   9
BRANCH   2  16
ATOM     16  C   UNL     1       1.297   9.231  19.764  0.00  0.00    +0.000 C 
BRANCH  16  17
ATOM     17  C   UNL     1       1.014   8.444  21.079  0.00  0.00    +0.000 C 
ATOM     18  C   UNL     1       1.566   9.165  22.322  0.00  0.00    +0.000 C 
ATOM     19  C   UNL     1      -0.485   8.210  21.336  0.00  0.00    +0.000 C 
ENDBRANCH  16  17
BRANCH  16  20
ATOM     20  N   UNL     1       0.026   9.855  19.261  0.00  0.00    +0.000 NA
ATOM     21  H   UNL     1      -0.810   9.457  19.692  0.00  0.00    +0.000 HD
BRANCH  20  22
ATOM     22  S   UNL     1      -0.197  11.543  19.428  0.00  0.00    +0.000 S 
ATOM     23  O   UNL     1       1.126  12.040  19.756  0.00  0.00    +0.000 OA
ATOM     24  O   UNL     1      -0.876  12.051  18.257  0.00  0.00    +0.000 OA
BRANCH  22  25
ATOM     25  C   UNL     1      -1.190  11.899  20.869  0.00  0.00    +0.000 A 
ATOM     26  C   UNL     1      -1.036  11.645  22.218  0.00  0.00    +0.000 A 
ATOM     27  C   UNL     1      -2.127  12.128  23.004  0.00  0.00    +0.000 A 
ATOM     28  C   UNL     1      -3.091  12.725  22.220  0.00  0.00    +0.000 A 
ATOM     29  S   UNL     1      -2.660  12.733  20.565  0.00  0.00    +0.000 S 
ENDBRANCH  22  25
ENDBRANCH  20  22
ENDBRANCH  16  20
ENDBRANCH   2  16
TORSDOF 8
ENDMDL
MODEL 9
REMARK VINA RESULT:      -5.8      5.521      9.647
REMARK  Name = 
REMARK  12 active torsions:
REMARK  status: ('A' for Active; 'I' for Inactive)
REMARK    1  A    between atoms: C_1  and  O_2
REMARK    2  A    between atoms: O_2  and  C_3
REMARK    3  A    between atoms: C_7  and  N_8
REMARK    4  A    between atoms: C_9  and  C_11
REMARK    5  A    between atoms: C_11  and  N_12
REMARK    6  A    between atoms: C_11  and  C_21
REMARK    7  A    between atoms: N_12  and  S_13
REMARK    8  A    between atoms: S_13  and  C_16
REMARK    9  A    between atoms: C_21  and  C_22
REMARK   10  A    between atoms: C_21  and  C_23
REMARK   11  A    between atoms: C_24  and  O_25
REMARK   12  A    between atoms: O_25  and  C_26
REMARK                            x       y       z     vdW  Elec       q    Type
REMARK                         _______ _______ _______ _____ _____    ______ ____
ROOT
ATOM      1  N   UNL     1      -1.775  11.692  21.209  0.00  0.00    +0.000 N 
ATOM      2  C   UNL     1      -2.040  13.037  21.300  0.00  0.00    +0.000 C 
ATOM      3  O   UNL     1      -1.612  13.866  20.507  0.00  0.00    +0.000 OA
ATOM      4  H   UNL     1      -2.357  11.052  21.739  0.00  0.00    +0.000 HD
ENDROOT
BRANCH   1   9
ATOM      5  C   UNL     1       1.086   9.460  18.984  0.00  0.00    +0.000 A 
ATOM      6  C   UNL     1       0.064  10.095  18.295  0.00  0.00    +0.000 A 
ATOM      7  C   UNL     1      -0.886  10.885  18.958  0.00  0.00    +0.000 A 
ATOM      8 CL   UNL     1      -1.890  11.743  17.843  0.00  0.00    +0.000 Cl
ATOM      9  C   UNL     1      -0.858  10.999  20.361  0.00  0.00    +0.000 A 
ATOM     10  C   UNL     1       0.220  10.375  21.055  0.00  0.00    +0.000 A 
ATOM     11  C   UNL     1       1.175   9.618  20.362  0.00  0.00    +0.000 A 
BRANCH   5  13
ATOM     12  C   UNL     1       2.381   7.479  19.080  0.00  0.00    +0.000 C 
ATOM     13  O   UNL     1       2.059   8.693  18.403  0.00  0.00    +0.000 OA
ENDBRANCH   5  13
BRANCH  10  14
ATOM     14  O   UNL     1       0.254  10.585  22.422  0.00  0.00    +0.000 OA
ATOM     15  C   UNL     1      -0.014   9.457  23.255  0.00  0.00    +0.000 C 
ENDBRANCH  10  14
ENDBRANCH   1   9
BRANCH   2  16
ATOM     16  C   UNL     1      -3.003  13.533  22.406  0.00  0.00    +0.000 C 
BRANCH  16  17
ATOM     17  C   UNL     1      -2.339  13.865  23.776  0.00  0.00    +0.000 C 
ATOM     18  C   UNL     1      -1.122  14.796  23.625  0.00  0.00    +0.000 C 
ATOM     19  C   UNL     1      -3.296  14.552  24.765  0.00  0.00    +0.000 C 
ENDBRANCH  16  17
BRANCH  16  20
ATOM     20  N   UNL     1      -4.117  12.544  22.607  0.00  0.00    +0.000 NA
ATOM     21  H   UNL     1      -4.304  12.353  23.593  0.00  0.00    +0.000 HD
BRANCH  20  22
ATOM     22  S   UNL     1      -5.662  12.886  21.959  0.00  0.00    +0.000 S 
ATOM     23  O   UNL     1      -6.570  12.130  22.800  0.00  0.00    +0.000 OA
ATOM     24  O   UNL     1      -5.824  14.318  21.847  0.00  0.00    +0.000 OA
BRANCH  22  25
ATOM     25  C   UNL     1      -5.830  12.160  20.335  0.00  0.00    +0.000 A 
ATOM     26  C   UNL     1      -5.027  12.143  19.212  0.00  0.00    +0.000 A 
ATOM     27  C   UNL     1      -5.606  11.421  18.124  0.00  0.00    +0.000 A 
ATOM     28  C   UNL     1      -6.847  10.920  18.451  0.00  0.00    +0.000 A 
ATOM     29  S   UNL     1      -7.285  11.287  20.064  0.00  0.00    +0.000 S 
ENDBRANCH  22  25
ENDBRANCH  20  22
ENDBRANCH  16  20
ENDBRANCH   2  16
TORSDOF 8
ENDMDL
