MODEL 1
REMARK VINA RESULT:      -7.0      0.000      0.000
REMARK  Name = 
REMARK  5 active torsions:
REMARK  status: ('A' for Active; 'I' for Inactive)
REMARK    1  A    between atoms: C_1  and  O_2
REMARK    2  A    between atoms: O_2  and  C_3
REMARK    3  A    between atoms: C_7  and  O_8
REMARK    4  A    between atoms: O_8  and  C_9
REMARK    5  A    between atoms: C_10  and  C_11
REMARK                            x       y       z     vdW  Elec       q    Type
REMARK                         _______ _______ _______ _____ _____    ______ ____
ROOT
ATOM      1  C   UNL     1       0.767  16.333  20.125  0.00  0.00    +0.000 C 
ATOM      2  O   UNL     1       0.876  17.059  21.116  0.00  0.00    +0.000 OA
ATOM      3  N   UNL     1       0.878  14.935  20.223  0.00  0.00    +0.000 N 
ATOM      4  C   UNL     1       1.060  14.326  21.552  0.00  0.00    +0.000 C 
ATOM      5  C   UNL     1      -0.155  13.587  22.131  0.00  0.00    +0.000 C 
ATOM      6  C   UNL     1      -0.797  12.460  21.322  0.00  0.00    +0.000 C 
ATOM      7  N   UNL     1      -0.001  12.038  20.180  0.00  0.00    +0.000 N 
ATOM      8  C   UNL     1       0.603  10.827  20.027  0.00  0.00    +0.000 A 
ATOM      9  N   UNL     1       1.322  10.555  18.959  0.00  0.00    +0.000 NA
ATOM     10  C   UNL     1       1.748   9.248  18.951  0.00  0.00    +0.000 A 
ATOM     11  C   UNL     1       2.488   8.641  17.922  0.00  0.00    +0.000 A 
ATOM     12  C   UNL     1       2.842   7.290  18.029  0.00  0.00    +0.000 A 
ATOM     13  C   UNL     1       2.464   6.562  19.150  0.00  0.00    +0.000 A 
ATOM     14 CL   UNL     1       2.906   4.901  19.261  0.00  0.00    +0.000 Cl
ATOM     15  C   UNL     1       1.731   7.145  20.190  0.00  0.00    +0.000 A 
ATOM     16  C   UNL     1       1.385   8.500  20.066  0.00  0.00    +0.000 A 
ATOM     17  S   UNL     1       0.502   9.513  21.142  0.00  0.00    +0.000 S 
ATOM     18  C   UNL     1      -0.036  12.926  19.013  0.00  0.00    +0.000 C 
ATOM     19  C   UNL     1       1.049  14.009  19.089  0.00  0.00    +0.000 C 
ENDROOT
BRANCH   1  25
ATOM     20  C   UNL     1      -0.826  17.481  18.514  0.00  0.00    +0.000 A 
ATOM     21  C   UNL     1      -1.075  18.238  17.358  0.00  0.00    +0.000 A 
ATOM     22  C   UNL     1      -0.036  18.620  16.522  0.00  0.00    +0.000 A 
ATOM     23  C   UNL     1       1.262  18.241  16.832  0.00  0.00    +0.000 A 
ATOM     24  C   UNL     1       1.538  17.450  17.962  0.00  0.00    +0.000 A 
ATOM     25  C   UNL     1       0.489  17.030  18.813  0.00  0.00    +0.000 A 
BRANCH  20  27
ATOM     26  C   UNL     1      -2.825  18.165  19.660  0.00  0.00    +0.000 C 
ATOM     27  O   UNL     1      -1.814  17.193  19.417  0.00  0.00    +0.000 OA
ENDBRANCH  20  27
BRANCH  24  28
ATOM     28  O   UNL     1       2.887  17.327  18.173  0.00  0.00    +0.000 OA
ATOM     29  C   UNL     1       3.536  16.237  17.540  0.00  0.00    +0.000 C 
ENDBRANCH  24  28
ENDBRANCH   1  25
TORSDOF 3
ENDMDL
MODEL 2
REMARK VINA RESULT:      -7.0      3.407      5.569
REMARK  Name = 
REMARK  5 active torsions:
REMARK  status: ('A' for Active; 'I' for Inactive)
REMARK    1  A    between atoms: C_1  and  O_2
REMARK    2  A    between atoms: O_2  and  C_3
REMARK    3  A    between atoms: C_7  and  O_8
REMARK    4  A    between atoms: O_8  and  C_9
REMARK    5  A    between atoms: C_10  and  C_11
REMARK                            x       y       z     vdW  Elec       q    Type
REMARK                         _______ _______ _______ _____ _____    ______ ____
ROOT
ATOM      1  C   UNL     1      -2.824  13.288  21.153  0.00  0.00    +0.000 C 
ATOM      2  O   UNL     1      -3.654  13.884  20.461  0.00  0.00    +0.000 OA
ATOM      3  N   UNL     1      -1.949  12.340  20.597  0.00  0.00    +0.000 N 
ATOM      4  C   UNL     1      -1.981  12.107  19.143  0.00  0.00    +0.000 C 
ATOM      5  C   UNL     1      -0.796  12.664  18.341  0.00  0.00    +0.000 C 
ATOM      6  C   UNL     1       0.624  12.250  18.724  0.00  0.00    +0.000 C 
ATOM      7  N   UNL     1       0.672  11.143  19.667  0.00  0.00    +0.000 N 
ATOM      8  C   UNL     1       1.150   9.893  19.414  0.00  0.00    +0.000 A 
ATOM      9  N   UNL     1       1.126   8.956  20.337  0.00  0.00    +0.000 NA
ATOM     10  C   UNL     1       1.754   7.809  19.914  0.00  0.00    +0.000 A 
ATOM     11  C   UNL     1       1.940   6.651  20.689  0.00  0.00    +0.000 A 
ATOM     12  C   UNL     1       2.618   5.554  20.142  0.00  0.00    +0.000 A 
ATOM     13  C   UNL     1       3.097   5.615  18.839  0.00  0.00    +0.000 A 
ATOM     14 CL   UNL     1       3.931   4.258  18.186  0.00  0.00    +0.000 Cl
ATOM     15  C   UNL     1       2.920   6.755  18.046  0.00  0.00    +0.000 A 
ATOM     16  C   UNL     1       2.239   7.845  18.611  0.00  0.00    +0.000 A 
ATOM     17  S   UNL     1       1.854   9.376  17.925  0.00  0.00    +0.000 S 
ATOM     18  C   UNL     1       0.370  11.480  21.063  0.00  0.00    +0.000 C 
ATOM     19  C   UNL     1      -1.132  11.379  21.360  0.00  0.00    +0.000 C 
ENDROOT
BRANCH   1  25
ATOM     20  C   UNL     1      -1.900  14.657  23.083  0.00  0.00    +0.000 A 
ATOM     21  C   UNL     1      -1.946  15.092  24.417  0.00  0.00    +0.000 A 
ATOM     22  C   UNL     1      -2.907  14.605  25.291  0.00  0.00    +0.000 A 
ATOM     23  C   UNL     1      -3.828  13.671  24.838  0.00  0.00    +0.000 A 
ATOM     24  C   UNL     1      -3.783  13.186  23.519  0.00  0.00    +0.000 A 
ATOM     25  C   UNL     1      -2.794  13.653  22.620  0.00  0.00    +0.000 A 
BRANCH  20  27
ATOM     26  C   UNL     1       0.358  14.997  22.337  0.00  0.00    +0.000 C 
ATOM     27  O   UNL     1      -1.040  15.207  22.172  0.00  0.00    +0.000 OA
ENDBRANCH  20  27
BRANCH  24  28
ATOM     28  O   UNL     1      -4.869  12.401  23.233  0.00  0.00    +0.000 OA
ATOM     29  C   UNL     1      -6.144  12.935  23.544  0.00  0.00    +0.000 C 
ENDBRANCH  24  28
ENDBRANCH   1  25
TORSDOF 3
ENDMDL
MODEL 3
REMARK VINA RESULT:      -6.7      6.293      9.811
REMARK  Name = 
REMARK  5 active torsions:
REMARK  status: ('A' for Active; 'I' for Inactive)
REMARK    1  A    between atoms: C_1  and  O_2
REMARK    2  A    between atoms: O_2  and  C_3
REMARK    3  A    between atoms: C_7  and  O_8
REMARK    4  A    between atoms: O_8  and  C_9
REMARK    5  A    between atoms: C_10  and  C_11
REMARK                            x       y       z     vdW  Elec       q    Type
REMARK                         _______ _______ _______ _____ _____    ______ ____
ROOT
ATOM      1  C   UNL     1       3.497   5.621  19.027  0.00  0.00    +0.000 C 
ATOM      2  O   UNL     1       3.778   5.011  20.061  0.00  0.00    +0.000 OA
ATOM      3  N   UNL     1       2.451   6.559  18.989  0.00  0.00    +0.000 N 
ATOM      4  C   UNL     1       1.722   6.865  20.232  0.00  0.00    +0.000 C 
ATOM      5  C   UNL     1       2.012   8.232  20.868  0.00  0.00    +0.000 C 
ATOM      6  C   UNL     1       1.816   9.498  20.034  0.00  0.00    +0.000 C 
ATOM      7  N   UNL     1       1.112   9.267  18.783  0.00  0.00    +0.000 N 
ATOM      8  C   UNL     1      -0.127   9.732  18.461  0.00  0.00    +0.000 A 
ATOM      9  N   UNL     1      -0.682   9.444  17.303  0.00  0.00    +0.000 NA
ATOM     10  C   UNL     1      -1.879  10.099  17.135  0.00  0.00    +0.000 A 
ATOM     11  C   UNL     1      -2.684  10.040  15.985  0.00  0.00    +0.000 A 
ATOM     12  C   UNL     1      -3.874  10.776  15.934  0.00  0.00    +0.000 A 
ATOM     13  C   UNL     1      -4.252  11.556  17.020  0.00  0.00    +0.000 A 
ATOM     14 CL   UNL     1      -5.717  12.457  16.937  0.00  0.00    +0.000 Cl
ATOM     15  C   UNL     1      -3.471  11.628  18.179  0.00  0.00    +0.000 A 
ATOM     16  C   UNL     1      -2.280  10.883  18.212  0.00  0.00    +0.000 A 
ATOM     17  S   UNL     1      -1.103  10.746  19.460  0.00  0.00    +0.000 S 
ATOM     18  C   UNL     1       1.903   8.655  17.708  0.00  0.00    +0.000 C 
ATOM     19  C   UNL     1       1.851   7.123  17.766  0.00  0.00    +0.000 C 
ENDROOT
BRANCH   1  25
ATOM     20  C   UNL     1       4.019   4.226  16.970  0.00  0.00    +0.000 A 
ATOM     21  C   UNL     1       4.729   4.006  15.778  0.00  0.00    +0.000 A 
ATOM     22  C   UNL     1       5.721   4.886  15.370  0.00  0.00    +0.000 A 
ATOM     23  C   UNL     1       6.016   5.991  16.155  0.00  0.00    +0.000 A 
ATOM     24  C   UNL     1       5.349   6.217  17.373  0.00  0.00    +0.000 A 
ATOM     25  C   UNL     1       4.352   5.317  17.818  0.00  0.00    +0.000 A 
BRANCH  20  27
ATOM     26  C   UNL     1       3.217   2.149  17.874  0.00  0.00    +0.000 C 
ATOM     27  O   UNL     1       2.958   3.441  17.335  0.00  0.00    +0.000 OA
ENDBRANCH  20  27
BRANCH  24  28
ATOM     28  O   UNL     1       5.674   7.437  17.906  0.00  0.00    +0.000 OA
ATOM     29  C   UNL     1       6.966   7.940  17.612  0.00  0.00    +0.000 C 
ENDBRANCH  24  28
ENDBRANCH   1  25
TORSDOF 3
ENDMDL
MODEL 4
REMARK VINA RESULT:      -6.7      0.449      2.453
REMARK  Name = 
REMARK  5 active torsions:
REMARK  status: ('A' for Active; 'I' for Inactive)
REMARK    1  A    between atoms: C_1  and  O_2
REMARK    2  A    between atoms: O_2  and  C_3
REMARK    3  A    between atoms: C_7  and  O_8
REMARK    4  A    between atoms: O_8  and  C_9
REMARK    5  A    between atoms: C_10  and  C_11
REMARK                            x       y       z     vdW  Elec       q    Type
REMARK                         _______ _______ _______ _____ _____    ______ ____
ROOT
ATOM      1  C   UNL     1       0.806  16.803  20.306  0.00  0.00    +0.000 C 
ATOM      2  O   UNL     1       0.985  17.518  21.296  0.00  0.00    +0.000 OA
ATOM      3  N   UNL     1       0.891  15.403  20.387  0.00  0.00    +0.000 N 
ATOM      4  C   UNL     1       1.132  14.777  21.699  0.00  0.00    +0.000 C 
ATOM      5  C   UNL     1      -0.065  14.060  22.337  0.00  0.00    +0.000 C 
ATOM      6  C   UNL     1      -0.775  12.954  21.554  0.00  0.00    +0.000 C 
ATOM      7  N   UNL     1      -0.051  12.526  20.368  0.00  0.00    +0.000 N 
ATOM      8  C   UNL     1       0.517  11.304  20.172  0.00  0.00    +0.000 A 
ATOM      9  N   UNL     1       1.171  11.027  19.064  0.00  0.00    +0.000 NA
ATOM     10  C   UNL     1       1.567   9.711  19.023  0.00  0.00    +0.000 A 
ATOM     11  C   UNL     1       2.237   9.098  17.950  0.00  0.00    +0.000 A 
ATOM     12  C   UNL     1       2.567   7.739  18.026  0.00  0.00    +0.000 A 
ATOM     13  C   UNL     1       2.234   7.008  19.160  0.00  0.00    +0.000 A 
ATOM     14 CL   UNL     1       2.645   5.338  19.233  0.00  0.00    +0.000 Cl
ATOM     15  C   UNL     1       1.572   7.597  20.243  0.00  0.00    +0.000 A 
ATOM     16  C   UNL     1       1.248   8.961  20.149  0.00  0.00    +0.000 A 
ATOM     17  S   UNL     1       0.448   9.982  21.280  0.00  0.00    +0.000 S 
ATOM     18  C   UNL     1      -0.130  13.426  19.211  0.00  0.00    +0.000 C 
ATOM     19  C   UNL     1       0.981  14.484  19.237  0.00  0.00    +0.000 C 
ENDROOT
BRANCH   1  25
ATOM     20  C   UNL     1       1.488  17.751  18.051  0.00  0.00    +0.000 A 
ATOM     21  C   UNL     1       1.171  18.303  16.799  0.00  0.00    +0.000 A 
ATOM     22  C   UNL     1      -0.147  18.567  16.454  0.00  0.00    +0.000 A 
ATOM     23  C   UNL     1      -1.158  18.288  17.362  0.00  0.00    +0.000 A 
ATOM     24  C   UNL     1      -0.867  17.772  18.637  0.00  0.00    +0.000 A 
ATOM     25  C   UNL     1       0.472  17.519  19.017  0.00  0.00    +0.000 A 
BRANCH  20  27
ATOM     26  C   UNL     1       3.482  16.546  17.461  0.00  0.00    +0.000 C 
ATOM     27  O   UNL     1       2.765  17.372  18.371  0.00  0.00    +0.000 OA
ENDBRANCH  20  27
BRANCH  24  28
ATOM     28  O   UNL     1      -2.009  17.420  19.311  0.00  0.00    +0.000 OA
ATOM     29  C   UNL     1      -2.999  18.422  19.457  0.00  0.00    +0.000 C 
ENDBRANCH  24  28
ENDBRANCH   1  25
TORSDOF 3
ENDMDL
MODEL 5
REMARK VINA RESULT:      -6.6      3.402      5.130
REMARK  Name = 
REMARK  5 active torsions:
REMARK  status: ('A' for Active; 'I' for Inactive)
REMARK    1  A    between atoms: C_1  and  O_2
REMARK    2  A    between atoms: O_2  and  C_3
REMARK    3  A    between atoms: C_7  and  O_8
REMARK    4  A    between atoms: O_8  and  C_9
REMARK    5  A    between atoms: C_10  and  C_11
REMARK                            x       y       z     vdW  Elec       q    Type
REMARK                         _______ _______ _______ _____ _____    ______ ____
ROOT
ATOM      1  C   UNL     1      -2.988  13.436  20.938  0.00  0.00    +0.000 C 
ATOM      2  O   UNL     1      -3.783  14.029  20.204  0.00  0.00    +0.000 OA
ATOM      3  N   UNL     1      -2.086  12.487  20.427  0.00  0.00    +0.000 N 
ATOM      4  C   UNL     1      -2.046  12.251  18.974  0.00  0.00    +0.000 C 
ATOM      5  C   UNL     1      -0.824  12.807  18.230  0.00  0.00    +0.000 C 
ATOM      6  C   UNL     1       0.576  12.394  18.684  0.00  0.00    +0.000 C 
ATOM      7  N   UNL     1       0.578  11.289  19.630  0.00  0.00    +0.000 N 
ATOM      8  C   UNL     1       1.068  10.039  19.403  0.00  0.00    +0.000 A 
ATOM      9  N   UNL     1       0.999   9.104  20.326  0.00  0.00    +0.000 NA
ATOM     10  C   UNL     1       1.647   7.956  19.937  0.00  0.00    +0.000 A 
ATOM     11  C   UNL     1       1.796   6.799  20.723  0.00  0.00    +0.000 A 
ATOM     12  C   UNL     1       2.499   5.702  20.212  0.00  0.00    +0.000 A 
ATOM     13  C   UNL     1       3.042   5.761  18.934  0.00  0.00    +0.000 A 
ATOM     14 CL   UNL     1       3.907   4.402  18.326  0.00  0.00    +0.000 Cl
ATOM     15  C   UNL     1       2.904   6.898  18.131  0.00  0.00    +0.000 A 
ATOM     16  C   UNL     1       2.195   7.990  18.659  0.00  0.00    +0.000 A 
ATOM     17  S   UNL     1       1.844   9.519  17.951  0.00  0.00    +0.000 S 
ATOM     18  C   UNL     1       0.207  11.629  21.009  0.00  0.00    +0.000 C 
ATOM     19  C   UNL     1      -1.308  11.528  21.232  0.00  0.00    +0.000 C 
ENDROOT
BRANCH   1  25
ATOM     20  C   UNL     1      -4.004  13.216  23.255  0.00  0.00    +0.000 A 
ATOM     21  C   UNL     1      -3.978  13.452  24.639  0.00  0.00    +0.000 A 
ATOM     22  C   UNL     1      -2.963  14.204  25.212  0.00  0.00    +0.000 A 
ATOM     23  C   UNL     1      -1.969  14.734  24.403  0.00  0.00    +0.000 A 
ATOM     24  C   UNL     1      -1.989  14.547  23.009  0.00  0.00    +0.000 A 
ATOM     25  C   UNL     1      -3.030  13.804  22.404  0.00  0.00    +0.000 A 
BRANCH  20  27
ATOM     26  C   UNL     1      -6.271  12.827  22.558  0.00  0.00    +0.000 C 
ATOM     27  O   UNL     1      -4.925  12.381  22.681  0.00  0.00    +0.000 OA
ENDBRANCH  20  27
BRANCH  24  28
ATOM     28  O   UNL     1      -0.840  15.010  22.422  0.00  0.00    +0.000 OA
ATOM     29  C   UNL     1      -0.380  16.285  22.834  0.00  0.00    +0.000 C 
ENDBRANCH  24  28
ENDBRANCH   1  25
TORSDOF 3
ENDMDL
MODEL 6
REMARK VINA RESULT:      -6.6      6.604     10.250
REMARK  Name = 
REMARK  5 active torsions:
REMARK  status: ('A' for Active; 'I' for Inactive)
REMARK    1  A    between atoms: C_1  and  O_2
REMARK    2  A    between atoms: O_2  and  C_3
REMARK    3  A    between atoms: C_7  and  O_8
REMARK    4  A    between atoms: O_8  and  C_9
REMARK    5  A    between atoms: C_10  and  C_11
REMARK                            x       y       z     vdW  Elec       q    Type
REMARK                         _______ _______ _______ _____ _____    ______ ____
ROOT
ATOM      1  C   UNL     1       3.458   5.270  19.260  0.00  0.00    +0.000 C 
ATOM      2  O   UNL     1       3.668   4.620  20.287  0.00  0.00    +0.000 OA
ATOM      3  N   UNL     1       2.441   6.238  19.200  0.00  0.00    +0.000 N 
ATOM      4  C   UNL     1       1.658   6.526  20.414  0.00  0.00    +0.000 C 
ATOM      5  C   UNL     1       1.952   7.864  21.108  0.00  0.00    +0.000 C 
ATOM      6  C   UNL     1       1.834   9.161  20.308  0.00  0.00    +0.000 C 
ATOM      7  N   UNL     1       1.189   8.989  19.015  0.00  0.00    +0.000 N 
ATOM      8  C   UNL     1      -0.018   9.500  18.646  0.00  0.00    +0.000 A 
ATOM      9  N   UNL     1      -0.520   9.264  17.453  0.00  0.00    +0.000 NA
ATOM     10  C   UNL     1      -1.688   9.959  17.246  0.00  0.00    +0.000 A 
ATOM     11  C   UNL     1      -2.434   9.959  16.054  0.00  0.00    +0.000 A 
ATOM     12  C   UNL     1      -3.599  10.731  15.967  0.00  0.00    +0.000 A 
ATOM     13  C   UNL     1      -4.012  11.487  17.058  0.00  0.00    +0.000 A 
ATOM     14 CL   UNL     1      -5.445  12.432  16.930  0.00  0.00    +0.000 Cl
ATOM     15  C   UNL     1      -3.289  11.500  18.257  0.00  0.00    +0.000 A 
ATOM     16  C   UNL     1      -2.123  10.720  18.326  0.00  0.00    +0.000 A 
ATOM     17  S   UNL     1      -1.017  10.510  19.627  0.00  0.00    +0.000 S 
ATOM     18  C   UNL     1       2.018   8.389  17.963  0.00  0.00    +0.000 C 
ATOM     19  C   UNL     1       1.922   6.858  17.967  0.00  0.00    +0.000 C 
ENDROOT
BRANCH   1  25
ATOM     20  C   UNL     1       5.752   5.287  18.169  0.00  0.00    +0.000 A 
ATOM     21  C   UNL     1       6.628   4.911  17.139  0.00  0.00    +0.000 A 
ATOM     22  C   UNL     1       6.176   4.172  16.056  0.00  0.00    +0.000 A 
ATOM     23  C   UNL     1       4.838   3.809  15.991  0.00  0.00    +0.000 A 
ATOM     24  C   UNL     1       3.928   4.204  16.988  0.00  0.00    +0.000 A 
ATOM     25  C   UNL     1       4.367   4.979  18.087  0.00  0.00    +0.000 A 
BRANCH  20  27
ATOM     26  C   UNL     1       7.576   5.832  19.635  0.00  0.00    +0.000 C 
ATOM     27  O   UNL     1       6.195   5.913  19.304  0.00  0.00    +0.000 OA
ENDBRANCH  20  27
BRANCH  24  28
ATOM     28  O   UNL     1       2.705   3.609  16.818  0.00  0.00    +0.000 OA
ATOM     29  C   UNL     1       2.433   2.469  17.614  0.00  0.00    +0.000 C 
ENDBRANCH  24  28
ENDBRANCH   1  25
TORSDOF 3
ENDMDL
MODEL 7
REMARK VINA RESULT:      -6.5      3.452      5.699
REMARK  Name = 
REMARK  5 active torsions:
REMARK  status: ('A' for Active; 'I' for Inactive)
REMARK    1  A    between atoms: C_1  and  O_2
REMARK    2  A    between atoms: O_2  and  C_3
REMARK    3  A    between atoms: C_7  and  O_8
REMARK    4  A    between atoms: O_8  and  C_9
REMARK    5  A    between atoms: C_10  and  C_11
REMARK                            x       y       z     vdW  Elec       q    Type
REMARK                         _______ _______ _______ _____ _____    ______ ____
ROOT
ATOM      1  C   UNL     1      -2.174  12.317  20.504  0.00  0.00    +0.000 C 
ATOM      2  O   UNL     1      -2.864  12.918  19.678  0.00  0.00    +0.000 OA
ATOM      3  N   UNL     1      -1.332  11.257  20.125  0.00  0.00    +0.000 N 
ATOM      4  C   UNL     1      -1.224  10.908  18.698  0.00  0.00    +0.000 C 
ATOM      5  C   UNL     1       0.087  11.298  18.003  0.00  0.00    +0.000 C 
ATOM      6  C   UNL     1       1.413  10.802  18.579  0.00  0.00    +0.000 C 
ATOM      7  N   UNL     1       1.256   9.776  19.599  0.00  0.00    +0.000 N 
ATOM      8  C   UNL     1       1.643   8.475  19.495  0.00  0.00    +0.000 A 
ATOM      9  N   UNL     1       1.433   7.623  20.475  0.00  0.00    +0.000 NA
ATOM     10  C   UNL     1       1.996   6.396  20.213  0.00  0.00    +0.000 A 
ATOM     11  C   UNL     1       1.989   5.295  21.087  0.00  0.00    +0.000 A 
ATOM     12  C   UNL     1       2.621   4.105  20.705  0.00  0.00    +0.000 A 
ATOM     13  C   UNL     1       3.245   4.019  19.466  0.00  0.00    +0.000 A 
ATOM     14 CL   UNL     1       4.019   2.549  19.016  0.00  0.00    +0.000 Cl
ATOM     15  C   UNL     1       3.261   5.100  18.577  0.00  0.00    +0.000 A 
ATOM     16  C   UNL     1       2.623   6.285  18.977  0.00  0.00    +0.000 A 
ATOM     17  S   UNL     1       2.457   7.781  18.141  0.00  0.00    +0.000 S 
ATOM     18  C   UNL     1       0.833  10.251  20.922  0.00  0.00    +0.000 C 
ATOM     19  C   UNL     1      -0.696  10.298  21.047  0.00  0.00    +0.000 C 
ENDROOT
BRANCH   1  25
ATOM     20  C   UNL     1      -1.216  13.559  22.501  0.00  0.00    +0.000 A 
ATOM     21  C   UNL     1      -1.346  14.116  23.784  0.00  0.00    +0.000 A 
ATOM     22  C   UNL     1      -2.531  13.995  24.494  0.00  0.00    +0.000 A 
ATOM     23  C   UNL     1      -3.596  13.307  23.929  0.00  0.00    +0.000 A 
ATOM     24  C   UNL     1      -3.483  12.705  22.663  0.00  0.00    +0.000 A 
ATOM     25  C   UNL     1      -2.273  12.797  21.935  0.00  0.00    +0.000 A 
BRANCH  20  27
ATOM     26  C   UNL     1       0.450  15.075  21.664  0.00  0.00    +0.000 C 
ATOM     27  O   UNL     1      -0.101  13.765  21.733  0.00  0.00    +0.000 OA
ENDBRANCH  20  27
BRANCH  24  28
ATOM     28  O   UNL     1      -4.689  12.221  22.226  0.00  0.00    +0.000 OA
ATOM     29  C   UNL     1      -5.823  13.042  22.443  0.00  0.00    +0.000 C 
ENDBRANCH  24  28
ENDBRANCH   1  25
TORSDOF 3
ENDMDL
MODEL 8
REMARK VINA RESULT:      -6.3      4.429      7.927
REMARK  Name = 
REMARK  5 active torsions:
REMARK  status: ('A' for Active; 'I' for Inactive)
REMARK    1  A    between atoms: C_1  and  O_2
REMARK    2  A    between atoms: O_2  and  C_3
REMARK    3  A    between atoms: C_7  and  O_8
REMARK    4  A    between atoms: O_8  and  C_9
REMARK    5  A    between atoms: C_10  and  C_11
REMARK                            x       y       z     vdW  Elec       q    Type
REMARK                         _______ _______ _______ _____ _____    ______ ____
ROOT
ATOM      1  C   UNL     1      -0.424  12.556  19.902  0.00  0.00    +0.000 C 
ATOM      2  O   UNL     1      -1.526  12.873  19.447  0.00  0.00    +0.000 OA
ATOM      3  N   UNL     1       0.711  13.358  19.696  0.00  0.00    +0.000 N 
ATOM      4  C   UNL     1       0.562  14.637  18.981  0.00  0.00    +0.000 C 
ATOM      5  C   UNL     1       0.660  15.907  19.837  0.00  0.00    +0.000 C 
ATOM      6  C   UNL     1       1.907  16.136  20.692  0.00  0.00    +0.000 C 
ATOM      7  N   UNL     1       2.996  15.222  20.387  0.00  0.00    +0.000 N 
ATOM      8  C   UNL     1       4.195  15.557  19.835  0.00  0.00    +0.000 A 
ATOM      9  N   UNL     1       5.106  14.643  19.580  0.00  0.00    +0.000 NA
ATOM     10  C   UNL     1       6.278  15.204  19.131  0.00  0.00    +0.000 A 
ATOM     11  C   UNL     1       7.454  14.495  18.825  0.00  0.00    +0.000 A 
ATOM     12  C   UNL     1       8.589  15.192  18.396  0.00  0.00    +0.000 A 
ATOM     13  C   UNL     1       8.547  16.576  18.271  0.00  0.00    +0.000 A 
ATOM     14 CL   UNL     1       9.955  17.415  17.744  0.00  0.00    +0.000 Cl
ATOM     15  C   UNL     1       7.388  17.303  18.564  0.00  0.00    +0.000 A 
ATOM     16  C   UNL     1       6.258  16.587  18.994  0.00  0.00    +0.000 A 
ATOM     17  S   UNL     1       4.695  17.160  19.431  0.00  0.00    +0.000 S 
ATOM     18  C   UNL     1       2.855  13.860  20.917  0.00  0.00    +0.000 C 
ATOM     19  C   UNL     1       2.106  12.944  19.940  0.00  0.00    +0.000 C 
ENDROOT
BRANCH   1  25
ATOM     20  C   UNL     1      -0.011  10.056  20.070  0.00  0.00    +0.000 A 
ATOM     21  C   UNL     1       0.159   8.884  20.824  0.00  0.00    +0.000 A 
ATOM     22  C   UNL     1       0.046   8.906  22.206  0.00  0.00    +0.000 A 
ATOM     23  C   UNL     1      -0.247  10.102  22.846  0.00  0.00    +0.000 A 
ATOM     24  C   UNL     1      -0.462  11.284  22.116  0.00  0.00    +0.000 A 
ATOM     25  C   UNL     1      -0.375  11.275  20.703  0.00  0.00    +0.000 A 
BRANCH  20  27
ATOM     26  C   UNL     1       1.388   9.473  18.206  0.00  0.00    +0.000 C 
ATOM     27  O   UNL     1       0.211  10.086  18.719  0.00  0.00    +0.000 OA
ENDBRANCH  20  27
BRANCH  24  28
ATOM     28  O   UNL     1      -0.576  12.373  22.941  0.00  0.00    +0.000 OA
ATOM     29  C   UNL     1      -1.890  12.790  23.270  0.00  0.00    +0.000 C 
ENDBRANCH  24  28
ENDBRANCH   1  25
TORSDOF 3
ENDMDL
MODEL 9
REMARK VINA RESULT:      -6.2      4.506      7.736
REMARK  Name = 
REMARK  5 active torsions:
REMARK  status: ('A' for Active; 'I' for Inactive)
REMARK    1  A    between atoms: C_1  and  O_2
REMARK    2  A    between atoms: O_2  and  C_3
REMARK    3  A    between atoms: C_7  and  O_8
REMARK    4  A    between atoms: O_8  and  C_9
REMARK    5  A    between atoms: C_10  and  C_11
REMARK                            x       y       z     vdW  Elec       q    Type
REMARK                         _______ _______ _______ _____ _____    ______ ____
ROOT
ATOM      1  C   UNL     1      -0.278  12.702  20.083  0.00  0.00    +0.000 C 
ATOM      2  O   UNL     1      -1.377  13.008  19.614  0.00  0.00    +0.000 OA
ATOM      3  N   UNL     1       0.864  13.485  19.844  0.00  0.00    +0.000 N 
ATOM      4  C   UNL     1       0.726  14.734  19.075  0.00  0.00    +0.000 C 
ATOM      5  C   UNL     1       0.834  16.039  19.876  0.00  0.00    +0.000 C 
ATOM      6  C   UNL     1       2.082  16.293  20.721  0.00  0.00    +0.000 C 
ATOM      7  N   UNL     1       3.164  15.358  20.456  0.00  0.00    +0.000 N 
ATOM      8  C   UNL     1       4.366  15.660  19.892  0.00  0.00    +0.000 A 
ATOM      9  N   UNL     1       5.270  14.728  19.676  0.00  0.00    +0.000 NA
ATOM     10  C   UNL     1       6.446  15.260  19.205  0.00  0.00    +0.000 A 
ATOM     11  C   UNL     1       7.616  14.530  18.930  0.00  0.00    +0.000 A 
ATOM     12  C   UNL     1       8.757  15.199  18.472  0.00  0.00    +0.000 A 
ATOM     13  C   UNL     1       8.726  16.577  18.288  0.00  0.00    +0.000 A 
ATOM     14 CL   UNL     1      10.141  17.381  17.727  0.00  0.00    +0.000 Cl
ATOM     15  C   UNL     1       7.572  17.324  18.550  0.00  0.00    +0.000 A 
ATOM     16  C   UNL     1       6.437  16.637  19.009  0.00  0.00    +0.000 A 
ATOM     17  S   UNL     1       4.878  17.240  19.420  0.00  0.00    +0.000 S 
ATOM     18  C   UNL     1       3.011  14.022  21.044  0.00  0.00    +0.000 C 
ATOM     19  C   UNL     1       2.255  13.071  20.106  0.00  0.00    +0.000 C 
ENDROOT
BRANCH   1  25
ATOM     20  C   UNL     1      -0.595  11.527  22.312  0.00  0.00    +0.000 A 
ATOM     21  C   UNL     1      -0.683  10.361  23.088  0.00  0.00    +0.000 A 
ATOM     22  C   UNL     1      -0.493   9.111  22.515  0.00  0.00    +0.000 A 
ATOM     23  C   UNL     1      -0.206   9.020  21.161  0.00  0.00    +0.000 A 
ATOM     24  C   UNL     1      -0.073  10.172  20.366  0.00  0.00    +0.000 A 
ATOM     25  C   UNL     1      -0.239  11.456  20.938  0.00  0.00    +0.000 A 
BRANCH  20  27
ATOM     26  C   UNL     1      -2.217  13.008  23.288  0.00  0.00    +0.000 C 
ATOM     27  O   UNL     1      -0.894  12.761  22.825  0.00  0.00    +0.000 OA
ENDBRANCH  20  27
BRANCH  24  28
ATOM     28  O   UNL     1       0.050   9.857  19.038  0.00  0.00    +0.000 OA
ATOM     29  C   UNL     1       1.367   9.731  18.530  0.00  0.00    +0.000 C 
ENDBRANCH  24  28
ENDBRANCH   1  25
TORSDOF 3
ENDMDL
