MODEL 1
REMARK VINA RESULT:      -7.2      0.000      0.000
REMARK  Name = 
REMARK  12 active torsions:
REMARK  status: ('A' for Active; 'I' for Inactive)
REMARK    1  A    between atoms: C_1  and  C_2
REMARK    2  A    between atoms: C_2  and  N_3
REMARK    3  A    between atoms: C_4  and  S_5
REMARK    4  A    between atoms: S_5  and  C_6
REMARK    5  A    between atoms: C_6  and  C_7
REMARK    6  A    between atoms: N_9  and  C_10
REMARK    7  A    between atoms: C_10  and  C_11
REMARK    8  A    between atoms: C_10  and  C_12
REMARK    9  A    between atoms: C_12  and  C_13
REMARK   10  A    between atoms: C_12  and  C_14
REMARK   11  A    between atoms: C_18  and  S_19
REMARK   12  A    between atoms: S_19  and  N_22
REMARK                            x       y       z     vdW  Elec       q    Type
REMARK                         _______ _______ _______ _____ _____    ______ ____
ROOT
ATOM      1  N   UNL     1       0.843   8.967  20.369  0.00  0.00    +0.000 N 
ATOM      2  C   UNL     1       0.995   9.875  19.353  0.00  0.00    +0.000 A 
ATOM      3  N   UNL     1       1.832   9.437  18.434  0.00  0.00    +0.000 NA
ATOM      4  C   UNL     1       2.174   8.158  18.827  0.00  0.00    +0.000 A 
ATOM      5  C   UNL     1       2.997   7.199  18.202  0.00  0.00    +0.000 A 
ATOM      6  C   UNL     1       3.098   5.926  18.798  0.00  0.00    +0.000 A 
ATOM      7  C   UNL     1       2.376   5.601  19.950  0.00  0.00    +0.000 A 
ATOM      8  C   UNL     1       1.630   6.566  20.616  0.00  0.00    +0.000 A 
ATOM      9  C   UNL     1       1.543   7.829  20.021  0.00  0.00    +0.000 A 
ENDROOT
BRANCH   6  10
ATOM     10  S   UNL     1       4.054   4.628  18.034  0.00  0.00    +0.000 S 
ATOM     11  O   UNL     1       4.634   3.851  19.107  0.00  0.00    +0.000 OA
ATOM     12  O   UNL     1       3.205   4.002  17.037  0.00  0.00    +0.000 OA
BRANCH  10  13
ATOM     13  N   UNL     1       5.312   5.415  17.232  0.00  0.00    +0.000 NA
ATOM     14  C   UNL     1       5.525   5.217  15.776  0.00  0.00    +0.000 C 
ATOM     15  C   UNL     1       6.636   4.191  15.510  0.00  0.00    +0.000 C 
ATOM     16  O   UNL     1       7.846   4.518  16.208  0.00  0.00    +0.000 OA
ATOM     17  C   UNL     1       7.620   4.611  17.623  0.00  0.00    +0.000 C 
ATOM     18  C   UNL     1       6.584   5.688  17.943  0.00  0.00    +0.000 C 
ENDBRANCH  10  13
ENDBRANCH   6  10
BRANCH   1  20
ATOM     19  C   UNL     1       0.851   9.470  22.777  0.00  0.00    +0.000 C 
ATOM     20  C   UNL     1       0.025   9.066  21.567  0.00  0.00    +0.000 C 
ENDBRANCH   1  20
BRANCH   2  21
ATOM     21  S   UNL     1       0.146  11.393  19.316  0.00  0.00    +0.000 S 
BRANCH  21  22
ATOM     22  C   UNL     1       1.252  12.448  20.298  0.00  0.00    +0.000 C 
BRANCH  22  23
ATOM     23  C   UNL     1       0.460  13.319  21.266  0.00  0.00    +0.000 C 
ATOM     24  O   UNL     1       1.013  14.036  22.100  0.00  0.00    +0.000 OA
ATOM     25  N   UNL     1      -0.916  13.181  21.191  0.00  0.00    +0.000 N 
ATOM     26  H   UNL     1      -1.286  12.777  20.340  0.00  0.00    +0.000 HD
BRANCH  25  27
ATOM     27  C   UNL     1      -1.827  13.898  22.083  0.00  0.00    +0.000 C 
ATOM     28  C   UNL     1      -2.574  15.000  21.326  0.00  0.00    +0.000 C 
BRANCH  27  29
ATOM     29  C   UNL     1      -2.796  12.939  22.827  0.00  0.00    +0.000 C 
ATOM     30  C   UNL     1      -2.152  11.625  23.281  0.00  0.00    +0.000 C 
ATOM     31  C   UNL     1      -3.451  13.635  24.025  0.00  0.00    +0.000 C 
ENDBRANCH  27  29
ENDBRANCH  25  27
ENDBRANCH  22  23
ENDBRANCH  21  22
ENDBRANCH   2  21
TORSDOF 8
ENDMDL
MODEL 2
REMARK VINA RESULT:      -7.2      2.701      2.836
REMARK  Name = 
REMARK  12 active torsions:
REMARK  status: ('A' for Active; 'I' for Inactive)
REMARK    1  A    between atoms: C_1  and  C_2
REMARK    2  A    between atoms: C_2  and  N_3
REMARK    3  A    between atoms: C_4  and  S_5
REMARK    4  A    between atoms: S_5  and  C_6
REMARK    5  A    between atoms: C_6  and  C_7
REMARK    6  A    between atoms: N_9  and  C_10
REMARK    7  A    between atoms: C_10  and  C_11
REMARK    8  A    between atoms: C_10  and  C_12
REMARK    9  A    between atoms: C_12  and  C_13
REMARK   10  A    between atoms: C_12  and  C_14
REMARK   11  A    between atoms: C_18  and  S_19
REMARK   12  A    between atoms: S_19  and  N_22
REMARK                            x       y       z     vdW  Elec       q    Type
REMARK                         _______ _______ _______ _____ _____    ______ ____
ROOT
ATOM      1  N   UNL     1       0.509   9.075  20.515  0.00  0.00    +0.000 N 
ATOM      2  C   UNL     1       0.594   9.957  19.468  0.00  0.00    +0.000 A 
ATOM      3  N   UNL     1       1.457   9.549  18.559  0.00  0.00    +0.000 NA
ATOM      4  C   UNL     1       1.890   8.311  18.993  0.00  0.00    +0.000 A 
ATOM      5  C   UNL     1       2.776   7.392  18.395  0.00  0.00    +0.000 A 
ATOM      6  C   UNL     1       2.969   6.150  19.032  0.00  0.00    +0.000 A 
ATOM      7  C   UNL     1       2.275   5.813  20.198  0.00  0.00    +0.000 A 
ATOM      8  C   UNL     1       1.465   6.745  20.836  0.00  0.00    +0.000 A 
ATOM      9  C   UNL     1       1.287   7.978  20.201  0.00  0.00    +0.000 A 
ENDROOT
BRANCH   6  10
ATOM     10  S   UNL     1       4.012   4.898  18.307  0.00  0.00    +0.000 S 
ATOM     11  O   UNL     1       4.552   4.120  19.400  0.00  0.00    +0.000 OA
ATOM     12  O   UNL     1       3.246   4.263  17.249  0.00  0.00    +0.000 OA
BRANCH  10  13
ATOM     13  N   UNL     1       5.288   5.740  17.596  0.00  0.00    +0.000 NA
ATOM     14  C   UNL     1       5.384   5.869  16.119  0.00  0.00    +0.000 C 
ATOM     15  C   UNL     1       6.364   4.843  15.533  0.00  0.00    +0.000 C 
ATOM     16  O   UNL     1       7.644   4.893  16.178  0.00  0.00    +0.000 OA
ATOM     17  C   UNL     1       7.522   4.673  17.592  0.00  0.00    +0.000 C 
ATOM     18  C   UNL     1       6.626   5.730  18.235  0.00  0.00    +0.000 C 
ENDBRANCH  10  13
ENDBRANCH   6  10
BRANCH   1  20
ATOM     19  C   UNL     1       0.520   9.510  22.935  0.00  0.00    +0.000 C 
ATOM     20  C   UNL     1      -0.310   9.156  21.712  0.00  0.00    +0.000 C 
ENDBRANCH   1  20
BRANCH   2  21
ATOM     21  S   UNL     1      -0.360  11.409  19.385  0.00  0.00    +0.000 S 
BRANCH  21  22
ATOM     22  C   UNL     1      -1.919  10.777  18.698  0.00  0.00    +0.000 C 
BRANCH  22  23
ATOM     23  C   UNL     1      -3.061  11.758  18.940  0.00  0.00    +0.000 C 
ATOM     24  O   UNL     1      -2.967  12.681  19.748  0.00  0.00    +0.000 OA
ATOM     25  N   UNL     1      -4.228  11.484  18.248  0.00  0.00    +0.000 N 
ATOM     26  H   UNL     1      -4.147  10.877  17.441  0.00  0.00    +0.000 HD
BRANCH  25  27
ATOM     27  C   UNL     1      -5.441  12.287  18.402  0.00  0.00    +0.000 C 
ATOM     28  C   UNL     1      -5.970  12.741  17.039  0.00  0.00    +0.000 C 
BRANCH  27  29
ATOM     29  C   UNL     1      -6.527  11.557  19.239  0.00  0.00    +0.000 C 
ATOM     30  C   UNL     1      -6.601  10.048  18.988  0.00  0.00    +0.000 C 
ATOM     31  C   UNL     1      -6.344  11.825  20.737  0.00  0.00    +0.000 C 
ENDBRANCH  27  29
ENDBRANCH  25  27
ENDBRANCH  22  23
ENDBRANCH  21  22
ENDBRANCH   2  21
TORSDOF 8
ENDMDL
MODEL 3
REMARK VINA RESULT:      -7.2      2.910      3.232
REMARK  Name = 
REMARK  12 active torsions:
REMARK  status: ('A' for Active; 'I' for Inactive)
REMARK    1  A    between atoms: C_1  and  C_2
REMARK    2  A    between atoms: C_2  and  N_3
REMARK    3  A    between atoms: C_4  and  S_5
REMARK    4  A    between atoms: S_5  and  C_6
REMARK    5  A    between atoms: C_6  and  C_7
REMARK    6  A    between atoms: N_9  and  C_10
REMARK    7  A    between atoms: C_10  and  C_11
REMARK    8  A    between atoms: C_10  and  C_12
REMARK    9  A    between atoms: C_12  and  C_13
REMARK   10  A    between atoms: C_12  and  C_14
REMARK   11  A    between atoms: C_18  and  S_19
REMARK   12  A    between atoms: S_19  and  N_22
REMARK                            x       y       z     vdW  Elec       q    Type
REMARK                         _______ _______ _______ _____ _____    ______ ____
ROOT
ATOM      1  N   UNL     1       1.286   8.938  20.555  0.00  0.00    +0.000 N 
ATOM      2  C   UNL     1       1.192   9.799  19.492  0.00  0.00    +0.000 A 
ATOM      3  N   UNL     1       1.791   9.313  18.422  0.00  0.00    +0.000 NA
ATOM      4  C   UNL     1       2.219   8.050  18.781  0.00  0.00    +0.000 A 
ATOM      5  C   UNL     1       2.873   7.057  18.025  0.00  0.00    +0.000 A 
ATOM      6  C   UNL     1       3.114   5.811  18.637  0.00  0.00    +0.000 A 
ATOM      7  C   UNL     1       2.684   5.544  19.940  0.00  0.00    +0.000 A 
ATOM      8  C   UNL     1       2.114   6.544  20.719  0.00  0.00    +0.000 A 
ATOM      9  C   UNL     1       1.886   7.780  20.104  0.00  0.00    +0.000 A 
ENDROOT
BRANCH   6  10
ATOM     10  S   UNL     1       3.867   4.472  17.730  0.00  0.00    +0.000 S 
ATOM     11  O   UNL     1       4.547   3.641  18.699  0.00  0.00    +0.000 OA
ATOM     12  O   UNL     1       2.845   3.917  16.861  0.00  0.00    +0.000 OA
BRANCH  10  13
ATOM     13  N   UNL     1       5.042   5.197  16.761  0.00  0.00    +0.000 NA
ATOM     14  C   UNL     1       5.316   4.689  15.392  0.00  0.00    +0.000 C 
ATOM     15  C   UNL     1       6.548   3.774  15.373  0.00  0.00    +0.000 C 
ATOM     16  O   UNL     1       7.691   4.401  15.971  0.00  0.00    +0.000 OA
ATOM     17  C   UNL     1       7.418   4.796  17.325  0.00  0.00    +0.000 C 
ATOM     18  C   UNL     1       6.254   5.783  17.384  0.00  0.00    +0.000 C 
ENDBRANCH  10  13
ENDBRANCH   6  10
BRANCH   1  20
ATOM     19  C   UNL     1      -0.602   8.468  22.059  0.00  0.00    +0.000 C 
ATOM     20  C   UNL     1       0.772   9.098  21.905  0.00  0.00    +0.000 C 
ENDBRANCH   1  20
BRANCH   2  21
ATOM     21  S   UNL     1       0.356  11.321  19.586  0.00  0.00    +0.000 S 
BRANCH  21  22
ATOM     22  C   UNL     1      -1.376  10.787  19.458  0.00  0.00    +0.000 C 
BRANCH  22  23
ATOM     23  C   UNL     1      -2.054  11.415  18.245  0.00  0.00    +0.000 C 
ATOM     24  O   UNL     1      -1.524  12.315  17.595  0.00  0.00    +0.000 OA
ATOM     25  N   UNL     1      -3.333  10.955  17.982  0.00  0.00    +0.000 N 
ATOM     26  H   UNL     1      -3.591  10.066  18.394  0.00  0.00    +0.000 HD
BRANCH  25  27
ATOM     27  C   UNL     1      -4.151  11.486  16.891  0.00  0.00    +0.000 C 
ATOM     28  C   UNL     1      -3.871  10.736  15.586  0.00  0.00    +0.000 C 
BRANCH  27  29
ATOM     29  C   UNL     1      -5.663  11.502  17.245  0.00  0.00    +0.000 C 
ATOM     30  C   UNL     1      -5.987  10.952  18.638  0.00  0.00    +0.000 C 
ATOM     31  C   UNL     1      -6.252  12.909  17.094  0.00  0.00    +0.000 C 
ENDBRANCH  27  29
ENDBRANCH  25  27
ENDBRANCH  22  23
ENDBRANCH  21  22
ENDBRANCH   2  21
TORSDOF 8
ENDMDL
MODEL 4
REMARK VINA RESULT:      -7.0      0.870      1.156
REMARK  Name = 
REMARK  12 active torsions:
REMARK  status: ('A' for Active; 'I' for Inactive)
REMARK    1  A    between atoms: C_1  and  C_2
REMARK    2  A    between atoms: C_2  and  N_3
REMARK    3  A    between atoms: C_4  and  S_5
REMARK    4  A    between atoms: S_5  and  C_6
REMARK    5  A    between atoms: C_6  and  C_7
REMARK    6  A    between atoms: N_9  and  C_10
REMARK    7  A    between atoms: C_10  and  C_11
REMARK    8  A    between atoms: C_10  and  C_12
REMARK    9  A    between atoms: C_12  and  C_13
REMARK   10  A    between atoms: C_12  and  C_14
REMARK   11  A    between atoms: C_18  and  S_19
REMARK   12  A    between atoms: S_19  and  N_22
REMARK                            x       y       z     vdW  Elec       q    Type
REMARK                         _______ _______ _______ _____ _____    ______ ____
ROOT
ATOM      1  N   UNL     1       0.714   8.642  20.540  0.00  0.00    +0.000 N 
ATOM      2  C   UNL     1       0.822   9.553  19.520  0.00  0.00    +0.000 A 
ATOM      3  N   UNL     1       1.705   9.169  18.620  0.00  0.00    +0.000 NA
ATOM      4  C   UNL     1       2.127   7.918  19.028  0.00  0.00    +0.000 A 
ATOM      5  C   UNL     1       3.025   7.015  18.425  0.00  0.00    +0.000 A 
ATOM      6  C   UNL     1       3.202   5.756  19.032  0.00  0.00    +0.000 A 
ATOM      7  C   UNL     1       2.482   5.388  20.172  0.00  0.00    +0.000 A 
ATOM      8  C   UNL     1       1.659   6.303  20.818  0.00  0.00    +0.000 A 
ATOM      9  C   UNL     1       1.496   7.554  20.213  0.00  0.00    +0.000 A 
ENDROOT
BRANCH   6  10
ATOM     10  S   UNL     1       4.259   4.522  18.295  0.00  0.00    +0.000 S 
ATOM     11  O   UNL     1       4.864   3.787  19.384  0.00  0.00    +0.000 OA
ATOM     12  O   UNL     1       3.477   3.839  17.280  0.00  0.00    +0.000 OA
BRANCH  10  13
ATOM     13  N   UNL     1       5.481   5.389  17.520  0.00  0.00    +0.000 NA
ATOM     14  C   UNL     1       5.598   5.377  16.039  0.00  0.00    +0.000 C 
ATOM     15  C   UNL     1       6.668   4.380  15.573  0.00  0.00    +0.000 C 
ATOM     16  O   UNL     1       7.926   4.597  16.227  0.00  0.00    +0.000 OA
ATOM     17  C   UNL     1       7.791   4.511  17.654  0.00  0.00    +0.000 C 
ATOM     18  C   UNL     1       6.801   5.551  18.175  0.00  0.00    +0.000 C 
ENDBRANCH  10  13
ENDBRANCH   6  10
BRANCH   1  20
ATOM     19  C   UNL     1       0.576   9.359  22.888  0.00  0.00    +0.000 C 
ATOM     20  C   UNL     1      -0.132   8.692  21.721  0.00  0.00    +0.000 C 
ENDBRANCH   1  20
BRANCH   2  21
ATOM     21  S   UNL     1      -0.128  11.009  19.456  0.00  0.00    +0.000 S 
BRANCH  21  22
ATOM     22  C   UNL     1       1.166  12.277  19.313  0.00  0.00    +0.000 C 
BRANCH  22  23
ATOM     23  C   UNL     1       1.287  13.083  20.601  0.00  0.00    +0.000 C 
ATOM     24  O   UNL     1       2.359  13.214  21.190  0.00  0.00    +0.000 OA
ATOM     25  N   UNL     1       0.094  13.584  21.096  0.00  0.00    +0.000 N 
ATOM     26  H   UNL     1      -0.678  13.646  20.445  0.00  0.00    +0.000 HD
BRANCH  25  27
ATOM     27  C   UNL     1       0.017  14.333  22.350  0.00  0.00    +0.000 C 
ATOM     28  C   UNL     1      -0.063  15.838  22.081  0.00  0.00    +0.000 C 
BRANCH  27  29
ATOM     29  C   UNL     1      -1.142  13.839  23.259  0.00  0.00    +0.000 C 
ATOM     30  C   UNL     1      -2.428  14.662  23.139  0.00  0.00    +0.000 C 
ATOM     31  C   UNL     1      -1.450  12.358  23.006  0.00  0.00    +0.000 C 
ENDBRANCH  27  29
ENDBRANCH  25  27
ENDBRANCH  22  23
ENDBRANCH  21  22
ENDBRANCH   2  21
TORSDOF 8
ENDMDL
MODEL 5
REMARK VINA RESULT:      -7.0      2.492      3.819
REMARK  Name = 
REMARK  12 active torsions:
REMARK  status: ('A' for Active; 'I' for Inactive)
REMARK    1  A    between atoms: C_1  and  C_2
REMARK    2  A    between atoms: C_2  and  N_3
REMARK    3  A    between atoms: C_4  and  S_5
REMARK    4  A    between atoms: S_5  and  C_6
REMARK    5  A    between atoms: C_6  and  C_7
REMARK    6  A    between atoms: N_9  and  C_10
REMARK    7  A    between atoms: C_10  and  C_11
REMARK    8  A    between atoms: C_10  and  C_12
REMARK    9  A    between atoms: C_12  and  C_13
REMARK   10  A    between atoms: C_12  and  C_14
REMARK   11  A    between atoms: C_18  and  S_19
REMARK   12  A    between atoms: S_19  and  N_22
REMARK                            x       y       z     vdW  Elec       q    Type
REMARK                         _______ _______ _______ _____ _____    ______ ____
ROOT
ATOM      1  N   UNL     1       0.548  10.835  19.739  0.00  0.00    +0.000 N 
ATOM      2  C   UNL     1       0.246  10.939  21.073  0.00  0.00    +0.000 A 
ATOM      3  N   UNL     1       0.491   9.813  21.714  0.00  0.00    +0.000 NA
ATOM      4  C   UNL     1       1.053   8.970  20.775  0.00  0.00    +0.000 A 
ATOM      5  C   UNL     1       1.555   7.660  20.907  0.00  0.00    +0.000 A 
ATOM      6  C   UNL     1       2.159   7.066  19.781  0.00  0.00    +0.000 A 
ATOM      7  C   UNL     1       2.298   7.763  18.576  0.00  0.00    +0.000 A 
ATOM      8  C   UNL     1       1.732   9.022  18.415  0.00  0.00    +0.000 A 
ATOM      9  C   UNL     1       1.127   9.599  19.536  0.00  0.00    +0.000 A 
ENDROOT
BRANCH   6  10
ATOM     10  S   UNL     1       2.890   5.442  19.879  0.00  0.00    +0.000 S 
ATOM     11  O   UNL     1       4.315   5.614  19.700  0.00  0.00    +0.000 OA
ATOM     12  O   UNL     1       2.361   4.807  21.072  0.00  0.00    +0.000 OA
BRANCH  10  13
ATOM     13  N   UNL     1       2.301   4.608  18.537  0.00  0.00    +0.000 NA
ATOM     14  C   UNL     1       1.196   3.626  18.678  0.00  0.00    +0.000 C 
ATOM     15  C   UNL     1       1.732   2.189  18.737  0.00  0.00    +0.000 C 
ATOM     16  O   UNL     1       2.599   1.893  17.633  0.00  0.00    +0.000 OA
ATOM     17  C   UNL     1       3.705   2.806  17.583  0.00  0.00    +0.000 C 
ATOM     18  C   UNL     1       3.220   4.247  17.430  0.00  0.00    +0.000 C 
ENDBRANCH  10  13
ENDBRANCH   6  10
BRANCH   1  20
ATOM     19  C   UNL     1       1.663  12.698  18.583  0.00  0.00    +0.000 C 
ATOM     20  C   UNL     1       0.416  11.836  18.694  0.00  0.00    +0.000 C 
ENDBRANCH   1  20
BRANCH   2  21
ATOM     21  S   UNL     1      -0.360  12.404  21.787  0.00  0.00    +0.000 S 
BRANCH  21  22
ATOM     22  C   UNL     1      -1.927  11.832  22.508  0.00  0.00    +0.000 C 
BRANCH  22  23
ATOM     23  C   UNL     1      -3.040  12.847  22.274  0.00  0.00    +0.000 C 
ATOM     24  O   UNL     1      -2.803  14.023  21.999  0.00  0.00    +0.000 OA
ATOM     25  N   UNL     1      -4.324  12.368  22.471  0.00  0.00    +0.000 N 
ATOM     26  H   UNL     1      -4.443  11.363  22.449  0.00  0.00    +0.000 HD
BRANCH  25  27
ATOM     27  C   UNL     1      -5.508  13.218  22.344  0.00  0.00    +0.000 C 
ATOM     28  C   UNL     1      -6.627  12.484  21.601  0.00  0.00    +0.000 C 
BRANCH  27  29
ATOM     29  C   UNL     1      -5.982  13.774  23.715  0.00  0.00    +0.000 C 
ATOM     30  C   UNL     1      -5.961  15.302  23.813  0.00  0.00    +0.000 C 
ATOM     31  C   UNL     1      -7.378  13.251  24.071  0.00  0.00    +0.000 C 
ENDBRANCH  27  29
ENDBRANCH  25  27
ENDBRANCH  22  23
ENDBRANCH  21  22
ENDBRANCH   2  21
TORSDOF 8
ENDMDL
MODEL 6
REMARK VINA RESULT:      -7.0      2.748      3.012
REMARK  Name = 
REMARK  12 active torsions:
REMARK  status: ('A' for Active; 'I' for Inactive)
REMARK    1  A    between atoms: C_1  and  C_2
REMARK    2  A    between atoms: C_2  and  N_3
REMARK    3  A    between atoms: C_4  and  S_5
REMARK    4  A    between atoms: S_5  and  C_6
REMARK    5  A    between atoms: C_6  and  C_7
REMARK    6  A    between atoms: N_9  and  C_10
REMARK    7  A    between atoms: C_10  and  C_11
REMARK    8  A    between atoms: C_10  and  C_12
REMARK    9  A    between atoms: C_12  and  C_13
REMARK   10  A    between atoms: C_12  and  C_14
REMARK   11  A    between atoms: C_18  and  S_19
REMARK   12  A    between atoms: S_19  and  N_22
REMARK                            x       y       z     vdW  Elec       q    Type
REMARK                         _______ _______ _______ _____ _____    ______ ____
ROOT
ATOM      1  N   UNL     1       0.539   9.512  20.044  0.00  0.00    +0.000 N 
ATOM      2  C   UNL     1       0.605  10.266  18.901  0.00  0.00    +0.000 A 
ATOM      3  N   UNL     1       1.456   9.755  18.033  0.00  0.00    +0.000 NA
ATOM      4  C   UNL     1       1.898   8.576  18.601  0.00  0.00    +0.000 A 
ATOM      5  C   UNL     1       2.777   7.594  18.102  0.00  0.00    +0.000 A 
ATOM      6  C   UNL     1       2.983   6.435  18.877  0.00  0.00    +0.000 A 
ATOM      7  C   UNL     1       2.307   6.237  20.085  0.00  0.00    +0.000 A 
ATOM      8  C   UNL     1       1.505   7.236  20.622  0.00  0.00    +0.000 A 
ATOM      9  C   UNL     1       1.314   8.386  19.849  0.00  0.00    +0.000 A 
ENDROOT
BRANCH   6  10
ATOM     10  S   UNL     1       4.017   5.107  18.288  0.00  0.00    +0.000 S 
ATOM     11  O   UNL     1       4.489   4.395  19.455  0.00  0.00    +0.000 OA
ATOM     12  O   UNL     1       3.278   4.419  17.245  0.00  0.00    +0.000 OA
BRANCH  10  13
ATOM     13  N   UNL     1       5.347   5.863  17.576  0.00  0.00    +0.000 NA
ATOM     14  C   UNL     1       5.490   5.914  16.098  0.00  0.00    +0.000 C 
ATOM     15  C   UNL     1       6.444   4.822  15.593  0.00  0.00    +0.000 C 
ATOM     16  O   UNL     1       7.706   4.855  16.273  0.00  0.00    +0.000 OA
ATOM     17  C   UNL     1       7.535   4.710  17.692  0.00  0.00    +0.000 C 
ATOM     18  C   UNL     1       6.665   5.833  18.256  0.00  0.00    +0.000 C 
ENDBRANCH  10  13
ENDBRANCH   6  10
BRANCH   1  20
ATOM     19  C   UNL     1       0.246  10.917  22.041  0.00  0.00    +0.000 C 
ATOM     20  C   UNL     1      -0.263   9.732  21.237  0.00  0.00    +0.000 C 
ENDBRANCH   1  20
BRANCH   2  21
ATOM     21  S   UNL     1      -0.353  11.697  18.663  0.00  0.00    +0.000 S 
BRANCH  21  22
ATOM     22  C   UNL     1      -1.565  11.120  17.438  0.00  0.00    +0.000 C 
BRANCH  22  23
ATOM     23  C   UNL     1      -2.946  10.968  18.065  0.00  0.00    +0.000 C 
ATOM     24  O   UNL     1      -3.601   9.932  17.959  0.00  0.00    +0.000 OA
ATOM     25  N   UNL     1      -3.438  12.103  18.688  0.00  0.00    +0.000 N 
ATOM     26  H   UNL     1      -2.760  12.811  18.943  0.00  0.00    +0.000 HD
BRANCH  25  27
ATOM     27  C   UNL     1      -4.768  12.154  19.293  0.00  0.00    +0.000 C 
ATOM     28  C   UNL     1      -4.765  13.041  20.542  0.00  0.00    +0.000 C 
BRANCH  27  29
ATOM     29  C   UNL     1      -5.861  12.581  18.275  0.00  0.00    +0.000 C 
ATOM     30  C   UNL     1      -7.012  11.580  18.134  0.00  0.00    +0.000 C 
ATOM     31  C   UNL     1      -6.420  13.968  18.612  0.00  0.00    +0.000 C 
ENDBRANCH  27  29
ENDBRANCH  25  27
ENDBRANCH  22  23
ENDBRANCH  21  22
ENDBRANCH   2  21
TORSDOF 8
ENDMDL
MODEL 7
REMARK VINA RESULT:      -7.0      2.834     10.119
REMARK  Name = 
REMARK  12 active torsions:
REMARK  status: ('A' for Active; 'I' for Inactive)
REMARK    1  A    between atoms: C_1  and  C_2
REMARK    2  A    between atoms: C_2  and  N_3
REMARK    3  A    between atoms: C_4  and  S_5
REMARK    4  A    between atoms: S_5  and  C_6
REMARK    5  A    between atoms: C_6  and  C_7
REMARK    6  A    between atoms: N_9  and  C_10
REMARK    7  A    between atoms: C_10  and  C_11
REMARK    8  A    between atoms: C_10  and  C_12
REMARK    9  A    between atoms: C_12  and  C_13
REMARK   10  A    between atoms: C_12  and  C_14
REMARK   11  A    between atoms: C_18  and  S_19
REMARK   12  A    between atoms: S_19  and  N_22
REMARK                            x       y       z     vdW  Elec       q    Type
REMARK                         _______ _______ _______ _____ _____    ______ ____
ROOT
ATOM      1  N   UNL     1       3.046   4.125  18.964  0.00  0.00    +0.000 N 
ATOM      2  C   UNL     1       3.837   4.606  17.953  0.00  0.00    +0.000 A 
ATOM      3  N   UNL     1       3.678   5.905  17.789  0.00  0.00    +0.000 NA
ATOM      4  C   UNL     1       2.810   6.298  18.789  0.00  0.00    +0.000 A 
ATOM      5  C   UNL     1       2.325   7.577  19.128  0.00  0.00    +0.000 A 
ATOM      6  C   UNL     1       1.506   7.693  20.268  0.00  0.00    +0.000 A 
ATOM      7  C   UNL     1       1.212   6.586  21.071  0.00  0.00    +0.000 A 
ATOM      8  C   UNL     1       1.618   5.310  20.696  0.00  0.00    +0.000 A 
ATOM      9  C   UNL     1       2.423   5.205  19.558  0.00  0.00    +0.000 A 
ENDROOT
BRANCH   6  10
ATOM     10  S   UNL     1       0.911   9.283  20.815  0.00  0.00    +0.000 S 
ATOM     11  O   UNL     1      -0.483   9.112  21.159  0.00  0.00    +0.000 OA
ATOM     12  O   UNL     1       1.863   9.783  21.791  0.00  0.00    +0.000 OA
BRANCH  10  13
ATOM     13  N   UNL     1       0.985  10.277  19.454  0.00  0.00    +0.000 NA
ATOM     14  C   UNL     1       1.351  11.711  19.580  0.00  0.00    +0.000 C 
ATOM     15  C   UNL     1       0.104  12.606  19.575  0.00  0.00    +0.000 C 
ATOM     16  O   UNL     1      -0.739  12.346  18.444  0.00  0.00    +0.000 OA
ATOM     17  C   UNL     1      -1.147  10.970  18.406  0.00  0.00    +0.000 C 
ATOM     18  C   UNL     1       0.063  10.042  18.317  0.00  0.00    +0.000 C 
ENDBRANCH  10  13
ENDBRANCH   6  10
BRANCH   1  20
ATOM     19  C   UNL     1       4.053   2.397  20.394  0.00  0.00    +0.000 C 
ATOM     20  C   UNL     1       2.918   2.763  19.452  0.00  0.00    +0.000 C 
ENDBRANCH   1  20
BRANCH   2  21
ATOM     21  S   UNL     1       4.919   3.592  17.044  0.00  0.00    +0.000 S 
BRANCH  21  22
ATOM     22  C   UNL     1       6.131   4.806  16.444  0.00  0.00    +0.000 C 
BRANCH  22  23
ATOM     23  C   UNL     1       5.936   5.086  14.959  0.00  0.00    +0.000 C 
ATOM     24  O   UNL     1       5.504   6.164  14.550  0.00  0.00    +0.000 OA
ATOM     25  N   UNL     1       6.202   4.018  14.118  0.00  0.00    +0.000 N 
ATOM     26  H   UNL     1       6.774   3.273  14.497  0.00  0.00    +0.000 HD
BRANCH  25  27
ATOM     27  C   UNL     1       6.014   4.093  12.669  0.00  0.00    +0.000 C 
ATOM     28  C   UNL     1       7.359   4.251  11.954  0.00  0.00    +0.000 C 
BRANCH  27  29
ATOM     29  C   UNL     1       5.196   2.892  12.121  0.00  0.00    +0.000 C 
ATOM     30  C   UNL     1       4.027   3.291  11.215  0.00  0.00    +0.000 C 
ATOM     31  C   UNL     1       6.102   1.895  11.388  0.00  0.00    +0.000 C 
ENDBRANCH  27  29
ENDBRANCH  25  27
ENDBRANCH  22  23
ENDBRANCH  21  22
ENDBRANCH   2  21
TORSDOF 8
ENDMDL
MODEL 8
REMARK VINA RESULT:      -7.0      2.688      2.895
REMARK  Name = 
REMARK  12 active torsions:
REMARK  status: ('A' for Active; 'I' for Inactive)
REMARK    1  A    between atoms: C_1  and  C_2
REMARK    2  A    between atoms: C_2  and  N_3
REMARK    3  A    between atoms: C_4  and  S_5
REMARK    4  A    between atoms: S_5  and  C_6
REMARK    5  A    between atoms: C_6  and  C_7
REMARK    6  A    between atoms: N_9  and  C_10
REMARK    7  A    between atoms: C_10  and  C_11
REMARK    8  A    between atoms: C_10  and  C_12
REMARK    9  A    between atoms: C_12  and  C_13
REMARK   10  A    between atoms: C_12  and  C_14
REMARK   11  A    between atoms: C_18  and  S_19
REMARK   12  A    between atoms: S_19  and  N_22
REMARK                            x       y       z     vdW  Elec       q    Type
REMARK                         _______ _______ _______ _____ _____    ______ ____
ROOT
ATOM      1  N   UNL     1       1.145   9.095  20.393  0.00  0.00    +0.000 N 
ATOM      2  C   UNL     1       0.994   9.923  19.310  0.00  0.00    +0.000 A 
ATOM      3  N   UNL     1       1.616   9.449  18.248  0.00  0.00    +0.000 NA
ATOM      4  C   UNL     1       2.121   8.223  18.634  0.00  0.00    +0.000 A 
ATOM      5  C   UNL     1       2.831   7.253  17.897  0.00  0.00    +0.000 A 
ATOM      6  C   UNL     1       3.151   6.040  18.537  0.00  0.00    +0.000 A 
ATOM      7  C   UNL     1       2.744   5.778  19.849  0.00  0.00    +0.000 A 
ATOM      8  C   UNL     1       2.118   6.760  20.607  0.00  0.00    +0.000 A 
ATOM      9  C   UNL     1       1.813   7.965  19.966  0.00  0.00    +0.000 A 
ENDROOT
BRANCH   6  10
ATOM     10  S   UNL     1       3.978   4.727  17.657  0.00  0.00    +0.000 S 
ATOM     11  O   UNL     1       4.963   4.175  18.561  0.00  0.00    +0.000 OA
ATOM     12  O   UNL     1       2.948   3.886  17.075  0.00  0.00    +0.000 OA
BRANCH  10  13
ATOM     13  N   UNL     1       4.806   5.488  16.400  0.00  0.00    +0.000 NA
ATOM     14  C   UNL     1       5.391   4.697  15.288  0.00  0.00    +0.000 C 
ATOM     15  C   UNL     1       6.894   4.467  15.499  0.00  0.00    +0.000 C 
ATOM     16  O   UNL     1       7.597   5.695  15.735  0.00  0.00    +0.000 OA
ATOM     17  C   UNL     1       7.063   6.388  16.873  0.00  0.00    +0.000 C 
ATOM     18  C   UNL     1       5.586   6.721  16.668  0.00  0.00    +0.000 C 
ENDBRANCH  10  13
ENDBRANCH   6  10
BRANCH   1  20
ATOM     19  C   UNL     1      -0.756   8.649  21.887  0.00  0.00    +0.000 C 
ATOM     20  C   UNL     1       0.630   9.255  21.742  0.00  0.00    +0.000 C 
ENDBRANCH   1  20
BRANCH   2  21
ATOM     21  S   UNL     1       0.067  11.393  19.373  0.00  0.00    +0.000 S 
BRANCH  21  22
ATOM     22  C   UNL     1      -1.409  10.929  18.422  0.00  0.00    +0.000 C 
BRANCH  22  23
ATOM     23  C   UNL     1      -2.617  11.755  18.849  0.00  0.00    +0.000 C 
ATOM     24  O   UNL     1      -2.569  12.542  19.794  0.00  0.00    +0.000 OA
ATOM     25  N   UNL     1      -3.784  11.496  18.149  0.00  0.00    +0.000 N 
ATOM     26  H   UNL     1      -3.684  11.036  17.253  0.00  0.00    +0.000 HD
BRANCH  25  27
ATOM     27  C   UNL     1      -5.051  12.157  18.462  0.00  0.00    +0.000 C 
ATOM     28  C   UNL     1      -5.794  12.544  17.181  0.00  0.00    +0.000 C 
BRANCH  27  29
ATOM     29  C   UNL     1      -5.935  11.309  19.418  0.00  0.00    +0.000 C 
ATOM     30  C   UNL     1      -6.580  12.112  20.552  0.00  0.00    +0.000 C 
ATOM     31  C   UNL     1      -7.015  10.547  18.643  0.00  0.00    +0.000 C 
ENDBRANCH  27  29
ENDBRANCH  25  27
ENDBRANCH  22  23
ENDBRANCH  21  22
ENDBRANCH   2  21
TORSDOF 8
ENDMDL
MODEL 9
REMARK VINA RESULT:      -6.9      2.897      3.146
REMARK  Name = 
REMARK  12 active torsions:
REMARK  status: ('A' for Active; 'I' for Inactive)
REMARK    1  A    between atoms: C_1  and  C_2
REMARK    2  A    between atoms: C_2  and  N_3
REMARK    3  A    between atoms: C_4  and  S_5
REMARK    4  A    between atoms: S_5  and  C_6
REMARK    5  A    between atoms: C_6  and  C_7
REMARK    6  A    between atoms: N_9  and  C_10
REMARK    7  A    between atoms: C_10  and  C_11
REMARK    8  A    between atoms: C_10  and  C_12
REMARK    9  A    between atoms: C_12  and  C_13
REMARK   10  A    between atoms: C_12  and  C_14
REMARK   11  A    between atoms: C_18  and  S_19
REMARK   12  A    between atoms: S_19  and  N_22
REMARK                            x       y       z     vdW  Elec       q    Type
REMARK                         _______ _______ _______ _____ _____    ______ ____
ROOT
ATOM      1  N   UNL     1       0.195   9.907  19.940  0.00  0.00    +0.000 N 
ATOM      2  C   UNL     1       0.006  10.440  18.691  0.00  0.00    +0.000 A 
ATOM      3  N   UNL     1       0.773   9.855  17.793  0.00  0.00    +0.000 NA
ATOM      4  C   UNL     1       1.427   8.844  18.471  0.00  0.00    +0.000 A 
ATOM      5  C   UNL     1       2.331   7.868  18.006  0.00  0.00    +0.000 A 
ATOM      6  C   UNL     1       2.780   6.894  18.919  0.00  0.00    +0.000 A 
ATOM      7  C   UNL     1       2.317   6.863  20.238  0.00  0.00    +0.000 A 
ATOM      8  C   UNL     1       1.492   7.870  20.725  0.00  0.00    +0.000 A 
ATOM      9  C   UNL     1       1.058   8.837  19.812  0.00  0.00    +0.000 A 
ENDROOT
BRANCH   6  10
ATOM     10  S   UNL     1       3.863   5.576  18.399  0.00  0.00    +0.000 S 
ATOM     11  O   UNL     1       4.415   4.990  19.600  0.00  0.00    +0.000 OA
ATOM     12  O   UNL     1       3.125   4.766  17.447  0.00  0.00    +0.000 OA
BRANCH  10  13
ATOM     13  N   UNL     1       5.123   6.336  17.574  0.00  0.00    +0.000 NA
ATOM     14  C   UNL     1       5.101   6.450  16.093  0.00  0.00    +0.000 C 
ATOM     15  C   UNL     1       5.965   5.363  15.438  0.00  0.00    +0.000 C 
ATOM     16  O   UNL     1       7.296   5.341  15.972  0.00  0.00    +0.000 OA
ATOM     17  C   UNL     1       7.281   5.137  17.393  0.00  0.00    +0.000 C 
ATOM     18  C   UNL     1       6.507   6.250  18.099  0.00  0.00    +0.000 C 
ENDBRANCH  10  13
ENDBRANCH   6  10
BRANCH   1  20
ATOM     19  C   UNL     1       0.086  11.595  21.726  0.00  0.00    +0.000 C 
ATOM     20  C   UNL     1      -0.442  10.272  21.194  0.00  0.00    +0.000 C 
ENDBRANCH   1  20
BRANCH   2  21
ATOM     21  S   UNL     1      -1.136  11.714  18.377  0.00  0.00    +0.000 S 
BRANCH  21  22
ATOM     22  C   UNL     1      -2.155  10.971  17.069  0.00  0.00    +0.000 C 
BRANCH  22  23
ATOM     23  C   UNL     1      -3.619  11.366  17.225  0.00  0.00    +0.000 C 
ATOM     24  O   UNL     1      -4.337  11.601  16.254  0.00  0.00    +0.000 OA
ATOM     25  N   UNL     1      -4.052  11.519  18.531  0.00  0.00    +0.000 N 
ATOM     26  H   UNL     1      -3.492  11.077  19.250  0.00  0.00    +0.000 HD
BRANCH  25  27
ATOM     27  C   UNL     1      -5.410  11.948  18.864  0.00  0.00    +0.000 C 
ATOM     28  C   UNL     1      -6.366  10.752  18.898  0.00  0.00    +0.000 C 
BRANCH  27  29
ATOM     29  C   UNL     1      -5.459  12.775  20.177  0.00  0.00    +0.000 C 
ATOM     30  C   UNL     1      -6.492  12.278  21.193  0.00  0.00    +0.000 C 
ATOM     31  C   UNL     1      -4.077  12.848  20.837  0.00  0.00    +0.000 C 
ENDBRANCH  27  29
ENDBRANCH  25  27
ENDBRANCH  22  23
ENDBRANCH  21  22
ENDBRANCH   2  21
TORSDOF 8
ENDMDL
