MODEL 1
REMARK VINA RESULT:      -8.0      0.000      0.000
REMARK  Name = 
REMARK  5 active torsions:
REMARK  status: ('A' for Active; 'I' for Inactive)
REMARK    1  A    between atoms: C_1  and  C_2
REMARK    2  A    between atoms: C_2  and  C_3
REMARK    3  A    between atoms: C_2  and  C_4
REMARK    4  A    between atoms: C_4  and  C_5
REMARK    5  A    between atoms: C_10  and  O_11
REMARK                            x       y       z     vdW  Elec       q    Type
REMARK                         _______ _______ _______ _____ _____    ______ ____
ROOT
ATOM      1  C   UNL     1       4.038   4.754  17.701  0.00  0.00    +0.000 A 
ATOM      2  N   UNL     1       3.868   6.015  17.228  0.00  0.00    +0.000 NA
ATOM      3  C   UNL     1       3.135   6.811  18.019  0.00  0.00    +0.000 A 
ATOM      4  O   UNL     1       2.853   8.110  17.692  0.00  0.00    +0.000 OA
ATOM      5  C   UNL     1       2.098   8.602  18.707  0.00  0.00    +0.000 A 
ATOM      6  C   UNL     1       1.562   9.861  18.855  0.00  0.00    +0.000 A 
ATOM      7  N   UNL     1       0.843  10.136  19.959  0.00  0.00    +0.000 NA
ATOM      8  C   UNL     1       0.690   9.147  20.862  0.00  0.00    +0.000 A 
ATOM      9  N   UNL     1       1.168   7.889  20.803  0.00  0.00    +0.000 NA
ATOM     10  C   UNL     1       1.886   7.645  19.681  0.00  0.00    +0.000 A 
ATOM     11  C   UNL     1       2.551   6.473  19.235  0.00  0.00    +0.000 A 
ATOM     12  C   UNL     1       2.730   5.162  19.720  0.00  0.00    +0.000 A 
ATOM     13  C   UNL     1       3.530   4.291  18.936  0.00  0.00    +0.000 A 
ATOM     14  C   UNL     1       3.774   2.871  19.406  0.00  0.00    +0.000 C 
ATOM     15  C   UNL     1       3.452   2.639  20.883  0.00  0.00    +0.000 C 
ATOM     16  C   UNL     1       2.091   3.223  21.220  0.00  0.00    +0.000 C 
ATOM     17  C   UNL     1       2.127   4.732  21.035  0.00  0.00    +0.000 C 
ENDROOT
BRANCH   6  18
ATOM     18  O   UNL     1       1.713  10.871  17.943  0.00  0.00    +0.000 OA
ATOM     19  H   UNL     1       2.426  10.584  17.342  0.00  0.00    +0.000 HD
ENDBRANCH   6  18
BRANCH   1  20
ATOM     20  C   UNL     1       4.779   3.839  16.736  0.00  0.00    +0.000 C 
BRANCH  20  22
ATOM     21  C   UNL     1       7.229   4.548  16.754  0.00  0.00    +0.000 C 
ATOM     22  C   UNL     1       5.916   4.549  15.967  0.00  0.00    +0.000 C 
ATOM     23  C   UNL     1       6.148   3.884  14.609  0.00  0.00    +0.000 C 
ENDBRANCH  20  22
ENDBRANCH   1  20
TORSDOF 3
ENDMDL
MODEL 2
REMARK VINA RESULT:      -7.8      3.821      5.084
REMARK  Name = 
REMARK  5 active torsions:
REMARK  status: ('A' for Active; 'I' for Inactive)
REMARK    1  A    between atoms: C_1  and  C_2
REMARK    2  A    between atoms: C_2  and  C_3
REMARK    3  A    between atoms: C_2  and  C_4
REMARK    4  A    between atoms: C_4  and  C_5
REMARK    5  A    between atoms: C_10  and  O_11
REMARK                            x       y       z     vdW  Elec       q    Type
REMARK                         _______ _______ _______ _____ _____    ______ ____
ROOT
ATOM      1  C   UNL     1       5.290   5.119  15.753  0.00  0.00    +0.000 A 
ATOM      2  N   UNL     1       4.128   4.417  15.718  0.00  0.00    +0.000 NA
ATOM      3  C   UNL     1       3.688   4.010  16.916  0.00  0.00    +0.000 A 
ATOM      4  O   UNL     1       2.539   3.280  17.066  0.00  0.00    +0.000 OA
ATOM      5  C   UNL     1       2.408   3.046  18.396  0.00  0.00    +0.000 A 
ATOM      6  C   UNL     1       1.418   2.358  19.060  0.00  0.00    +0.000 A 
ATOM      7  N   UNL     1       1.486   2.253  20.401  0.00  0.00    +0.000 NA
ATOM      8  C   UNL     1       2.534   2.836  21.016  0.00  0.00    +0.000 A 
ATOM      9  N   UNL     1       3.549   3.521  20.456  0.00  0.00    +0.000 NA
ATOM     10  C   UNL     1       3.452   3.608  19.107  0.00  0.00    +0.000 A 
ATOM     11  C   UNL     1       4.293   4.230  18.149  0.00  0.00    +0.000 A 
ATOM     12  C   UNL     1       5.500   4.957  18.180  0.00  0.00    +0.000 A 
ATOM     13  C   UNL     1       5.988   5.443  16.938  0.00  0.00    +0.000 A 
ATOM     14  C   UNL     1       7.274   6.244  16.901  0.00  0.00    +0.000 C 
ATOM     15  C   UNL     1       7.712   6.784  18.263  0.00  0.00    +0.000 C 
ATOM     16  C   UNL     1       7.649   5.683  19.308  0.00  0.00    +0.000 C 
ATOM     17  C   UNL     1       6.206   5.234  19.484  0.00  0.00    +0.000 C 
ENDROOT
BRANCH   6  18
ATOM     18  O   UNL     1       0.351   1.763  18.443  0.00  0.00    +0.000 OA
ATOM     19  H   UNL     1       0.572   0.815  18.382  0.00  0.00    +0.000 HD
ENDBRANCH   6  18
BRANCH   1  20
ATOM     20  C   UNL     1       5.826   5.475  14.374  0.00  0.00    +0.000 C 
BRANCH  20  22
ATOM     21  C   UNL     1       6.040   3.475  12.806  0.00  0.00    +0.000 C 
ATOM     22  C   UNL     1       6.766   4.400  13.785  0.00  0.00    +0.000 C 
ATOM     23  C   UNL     1       7.951   5.052  13.069  0.00  0.00    +0.000 C 
ENDBRANCH  20  22
ENDBRANCH   1  20
TORSDOF 3
ENDMDL
MODEL 3
REMARK VINA RESULT:      -7.4      2.203      5.803
REMARK  Name = 
REMARK  5 active torsions:
REMARK  status: ('A' for Active; 'I' for Inactive)
REMARK    1  A    between atoms: C_1  and  C_2
REMARK    2  A    between atoms: C_2  and  C_3
REMARK    3  A    between atoms: C_2  and  C_4
REMARK    4  A    between atoms: C_4  and  C_5
REMARK    5  A    between atoms: C_10  and  O_11
REMARK                            x       y       z     vdW  Elec       q    Type
REMARK                         _______ _______ _______ _____ _____    ______ ____
ROOT
ATOM      1  C   UNL     1       2.297   5.968  19.730  0.00  0.00    +0.000 A 
ATOM      2  N   UNL     1       3.363   6.702  19.318  0.00  0.00    +0.000 NA
ATOM      3  C   UNL     1       4.161   6.079  18.440  0.00  0.00    +0.000 A 
ATOM      4  O   UNL     1       5.287   6.666  17.928  0.00  0.00    +0.000 OA
ATOM      5  C   UNL     1       5.841   5.756  17.087  0.00  0.00    +0.000 A 
ATOM      6  C   UNL     1       6.983   5.864  16.326  0.00  0.00    +0.000 A 
ATOM      7  N   UNL     1       7.347   4.828  15.548  0.00  0.00    +0.000 NA
ATOM      8  C   UNL     1       6.560   3.734  15.565  0.00  0.00    +0.000 A 
ATOM      9  N   UNL     1       5.433   3.533  16.276  0.00  0.00    +0.000 NA
ATOM     10  C   UNL     1       5.095   4.593  17.048  0.00  0.00    +0.000 A 
ATOM     11  C   UNL     1       4.004   4.793  17.933  0.00  0.00    +0.000 A 
ATOM     12  C   UNL     1       2.898   4.035  18.366  0.00  0.00    +0.000 A 
ATOM     13  C   UNL     1       2.002   4.666  19.268  0.00  0.00    +0.000 A 
ATOM     14  C   UNL     1       0.784   3.912  19.764  0.00  0.00    +0.000 C 
ATOM     15  C   UNL     1       0.432   2.678  18.930  0.00  0.00    +0.000 C 
ATOM     16  C   UNL     1       1.675   1.840  18.687  0.00  0.00    +0.000 C 
ATOM     17  C   UNL     1       2.668   2.635  17.852  0.00  0.00    +0.000 C 
ENDROOT
BRANCH   6  18
ATOM     18  O   UNL     1       7.788   6.972  16.304  0.00  0.00    +0.000 OA
ATOM     19  H   UNL     1       8.645   6.671  15.949  0.00  0.00    +0.000 HD
ENDBRANCH   6  18
BRANCH   1  20
ATOM     20  C   UNL     1       1.469   6.654  20.807  0.00  0.00    +0.000 C 
BRANCH  20  22
ATOM     21  C   UNL     1       1.077   8.840  19.553  0.00  0.00    +0.000 C 
ATOM     22  C   UNL     1       1.633   8.190  20.823  0.00  0.00    +0.000 C 
ATOM     23  C   UNL     1       0.933   8.796  22.041  0.00  0.00    +0.000 C 
ENDBRANCH  20  22
ENDBRANCH   1  20
TORSDOF 3
ENDMDL
MODEL 4
REMARK VINA RESULT:      -7.3      1.761      3.958
REMARK  Name = 
REMARK  5 active torsions:
REMARK  status: ('A' for Active; 'I' for Inactive)
REMARK    1  A    between atoms: C_1  and  C_2
REMARK    2  A    between atoms: C_2  and  C_3
REMARK    3  A    between atoms: C_2  and  C_4
REMARK    4  A    between atoms: C_4  and  C_5
REMARK    5  A    between atoms: C_10  and  O_11
REMARK                            x       y       z     vdW  Elec       q    Type
REMARK                         _______ _______ _______ _____ _____    ______ ____
ROOT
ATOM      1  C   UNL     1       3.217   4.517  19.563  0.00  0.00    +0.000 A 
ATOM      2  N   UNL     1       2.402   5.299  20.316  0.00  0.00    +0.000 NA
ATOM      3  C   UNL     1       2.218   6.536  19.835  0.00  0.00    +0.000 A 
ATOM      4  O   UNL     1       1.436   7.461  20.473  0.00  0.00    +0.000 OA
ATOM      5  C   UNL     1       1.482   8.585  19.714  0.00  0.00    +0.000 A 
ATOM      6  C   UNL     1       0.863   9.797  19.923  0.00  0.00    +0.000 A 
ATOM      7  N   UNL     1       1.044  10.784  19.025  0.00  0.00    +0.000 NA
ATOM      8  C   UNL     1       1.833  10.520  17.965  0.00  0.00    +0.000 A 
ATOM      9  N   UNL     1       2.483   9.375  17.679  0.00  0.00    +0.000 NA
ATOM     10  C   UNL     1       2.280   8.404  18.600  0.00  0.00    +0.000 A 
ATOM     11  C   UNL     1       2.770   7.074  18.678  0.00  0.00    +0.000 A 
ATOM     12  C   UNL     1       3.618   6.259  17.900  0.00  0.00    +0.000 A 
ATOM     13  C   UNL     1       3.814   4.927  18.349  0.00  0.00    +0.000 A 
ATOM     14  C   UNL     1       4.703   3.992  17.553  0.00  0.00    +0.000 C 
ATOM     15  C   UNL     1       4.988   4.466  16.127  0.00  0.00    +0.000 C 
ATOM     16  C   UNL     1       5.402   5.927  16.134  0.00  0.00    +0.000 C 
ATOM     17  C   UNL     1       4.245   6.780  16.632  0.00  0.00    +0.000 C 
ENDROOT
BRANCH   6  18
ATOM     18  O   UNL     1       0.060  10.072  20.997  0.00  0.00    +0.000 OA
ATOM     19  H   UNL     1       0.214   9.352  21.637  0.00  0.00    +0.000 HD
ENDBRANCH   6  18
BRANCH   1  20
ATOM     20  C   UNL     1       3.498   3.157  20.185  0.00  0.00    +0.000 C 
BRANCH  20  22
ATOM     21  C   UNL     1       1.393   2.628  21.524  0.00  0.00    +0.000 C 
ATOM     22  C   UNL     1       2.242   2.265  20.303  0.00  0.00    +0.000 C 
ATOM     23  C   UNL     1       1.379   2.377  19.045  0.00  0.00    +0.000 C 
ENDBRANCH  20  22
ENDBRANCH   1  20
TORSDOF 3
ENDMDL
MODEL 5
REMARK VINA RESULT:      -7.2      3.564      4.765
REMARK  Name = 
REMARK  5 active torsions:
REMARK  status: ('A' for Active; 'I' for Inactive)
REMARK    1  A    between atoms: C_1  and  C_2
REMARK    2  A    between atoms: C_2  and  C_3
REMARK    3  A    between atoms: C_2  and  C_4
REMARK    4  A    between atoms: C_4  and  C_5
REMARK    5  A    between atoms: C_10  and  O_11
REMARK                            x       y       z     vdW  Elec       q    Type
REMARK                         _______ _______ _______ _____ _____    ______ ____
ROOT
ATOM      1  C   UNL     1       5.718   3.886  15.968  0.00  0.00    +0.000 A 
ATOM      2  N   UNL     1       4.503   3.278  15.951  0.00  0.00    +0.000 NA
ATOM      3  C   UNL     1       3.786   3.437  17.071  0.00  0.00    +0.000 A 
ATOM      4  O   UNL     1       2.545   2.883  17.232  0.00  0.00    +0.000 OA
ATOM      5  C   UNL     1       2.125   3.244  18.471  0.00  0.00    +0.000 A 
ATOM      6  C   UNL     1       0.942   2.941  19.106  0.00  0.00    +0.000 A 
ATOM      7  N   UNL     1       0.729   3.417  20.347  0.00  0.00    +0.000 NA
ATOM      8  C   UNL     1       1.703   4.169  20.898  0.00  0.00    +0.000 A 
ATOM      9  N   UNL     1       2.890   4.512  20.362  0.00  0.00    +0.000 NA
ATOM     10  C   UNL     1       3.073   4.018  19.114  0.00  0.00    +0.000 A 
ATOM     11  C   UNL     1       4.161   4.141  18.211  0.00  0.00    +0.000 A 
ATOM     12  C   UNL     1       5.423   4.768  18.225  0.00  0.00    +0.000 A 
ATOM     13  C   UNL     1       6.205   4.659  17.045  0.00  0.00    +0.000 A 
ATOM     14  C   UNL     1       7.568   5.321  16.987  0.00  0.00    +0.000 C 
ATOM     15  C   UNL     1       7.796   6.375  18.071  0.00  0.00    +0.000 C 
ATOM     16  C   UNL     1       7.384   5.829  19.427  0.00  0.00    +0.000 C 
ATOM     17  C   UNL     1       5.888   5.550  19.428  0.00  0.00    +0.000 C 
ENDROOT
BRANCH   6  18
ATOM     18  O   UNL     1      -0.052   2.179  18.554  0.00  0.00    +0.000 OA
ATOM     19  H   UNL     1      -0.412   2.704  17.815  0.00  0.00    +0.000 HD
ENDBRANCH   6  18
BRANCH   1  20
ATOM     20  C   UNL     1       6.557   3.600  14.731  0.00  0.00    +0.000 C 
BRANCH  20  22
ATOM     21  C   UNL     1       7.336   5.108  12.827  0.00  0.00    +0.000 C 
ATOM     22  C   UNL     1       6.137   4.432  13.499  0.00  0.00    +0.000 C 
ATOM     23  C   UNL     1       5.421   3.553  12.472  0.00  0.00    +0.000 C 
ENDBRANCH  20  22
ENDBRANCH   1  20
TORSDOF 3
ENDMDL
MODEL 6
REMARK VINA RESULT:      -7.2      3.691      5.601
REMARK  Name = 
REMARK  5 active torsions:
REMARK  status: ('A' for Active; 'I' for Inactive)
REMARK    1  A    between atoms: C_1  and  C_2
REMARK    2  A    between atoms: C_2  and  C_3
REMARK    3  A    between atoms: C_2  and  C_4
REMARK    4  A    between atoms: C_4  and  C_5
REMARK    5  A    between atoms: C_10  and  O_11
REMARK                            x       y       z     vdW  Elec       q    Type
REMARK                         _______ _______ _______ _____ _____    ______ ____
ROOT
ATOM      1  C   UNL     1       6.827   5.700  18.309  0.00  0.00    +0.000 A 
ATOM      2  N   UNL     1       6.149   5.519  19.471  0.00  0.00    +0.000 NA
ATOM      3  C   UNL     1       5.048   4.762  19.360  0.00  0.00    +0.000 A 
ATOM      4  O   UNL     1       4.238   4.486  20.429  0.00  0.00    +0.000 OA
ATOM      5  C   UNL     1       3.234   3.708  19.953  0.00  0.00    +0.000 A 
ATOM      6  C   UNL     1       2.165   3.165  20.629  0.00  0.00    +0.000 A 
ATOM      7  N   UNL     1       1.281   2.409  19.951  0.00  0.00    +0.000 NA
ATOM      8  C   UNL     1       1.501   2.232  18.633  0.00  0.00    +0.000 A 
ATOM      9  N   UNL     1       2.508   2.724  17.886  0.00  0.00    +0.000 NA
ATOM     10  C   UNL     1       3.378   3.479  18.598  0.00  0.00    +0.000 A 
ATOM     11  C   UNL     1       4.554   4.170  18.203  0.00  0.00    +0.000 A 
ATOM     12  C   UNL     1       5.260   4.363  16.999  0.00  0.00    +0.000 A 
ATOM     13  C   UNL     1       6.454   5.127  17.072  0.00  0.00    +0.000 A 
ATOM     14  C   UNL     1       7.270   5.363  15.817  0.00  0.00    +0.000 C 
ATOM     15  C   UNL     1       6.928   4.418  14.664  0.00  0.00    +0.000 C 
ATOM     16  C   UNL     1       5.422   4.351  14.471  0.00  0.00    +0.000 C 
ATOM     17  C   UNL     1       4.779   3.745  15.710  0.00  0.00    +0.000 C 
ENDROOT
BRANCH   6  18
ATOM     18  O   UNL     1       1.935   3.340  21.968  0.00  0.00    +0.000 OA
ATOM     19  H   UNL     1       0.966   3.393  22.067  0.00  0.00    +0.000 HD
ENDBRANCH   6  18
BRANCH   1  20
ATOM     20  C   UNL     1       8.009   6.651  18.438  0.00  0.00    +0.000 C 
BRANCH  20  22
ATOM     21  C   UNL     1       6.346   8.328  17.474  0.00  0.00    +0.000 C 
ATOM     22  C   UNL     1       7.823   7.969  17.654  0.00  0.00    +0.000 C 
ATOM     23  C   UNL     1       8.534   9.124  18.364  0.00  0.00    +0.000 C 
ENDBRANCH  20  22
ENDBRANCH   1  20
TORSDOF 3
ENDMDL
MODEL 7
REMARK VINA RESULT:      -7.1      1.050      1.335
REMARK  Name = 
REMARK  5 active torsions:
REMARK  status: ('A' for Active; 'I' for Inactive)
REMARK    1  A    between atoms: C_1  and  C_2
REMARK    2  A    between atoms: C_2  and  C_3
REMARK    3  A    between atoms: C_2  and  C_4
REMARK    4  A    between atoms: C_4  and  C_5
REMARK    5  A    between atoms: C_10  and  O_11
REMARK                            x       y       z     vdW  Elec       q    Type
REMARK                         _______ _______ _______ _____ _____    ______ ____
ROOT
ATOM      1  C   UNL     1       3.879   5.869  17.516  0.00  0.00    +0.000 A 
ATOM      2  N   UNL     1       3.739   7.157  17.110  0.00  0.00    +0.000 NA
ATOM      3  C   UNL     1       2.931   7.898  17.880  0.00  0.00    +0.000 A 
ATOM      4  O   UNL     1       2.667   9.215  17.611  0.00  0.00    +0.000 OA
ATOM      5  C   UNL     1       1.821   9.638  18.584  0.00  0.00    +0.000 A 
ATOM      6  C   UNL     1       1.261  10.883  18.762  0.00  0.00    +0.000 A 
ATOM      7  N   UNL     1       0.445  11.086  19.813  0.00  0.00    +0.000 NA
ATOM      8  C   UNL     1       0.222  10.041  20.635  0.00  0.00    +0.000 A 
ATOM      9  N   UNL     1       0.715   8.791  20.540  0.00  0.00    +0.000 NA
ATOM     10  C   UNL     1       1.532   8.621  19.473  0.00  0.00    +0.000 A 
ATOM     11  C   UNL     1       2.246   7.482  19.016  0.00  0.00    +0.000 A 
ATOM     12  C   UNL     1       2.393   6.143  19.432  0.00  0.00    +0.000 A 
ATOM     13  C   UNL     1       3.268   5.328  18.669  0.00  0.00    +0.000 A 
ATOM     14  C   UNL     1       3.483   3.881  19.069  0.00  0.00    +0.000 C 
ATOM     15  C   UNL     1       3.033   3.555  20.494  0.00  0.00    +0.000 C 
ATOM     16  C   UNL     1       1.641   4.111  20.744  0.00  0.00    +0.000 C 
ATOM     17  C   UNL     1       1.679   5.630  20.658  0.00  0.00    +0.000 C 
ENDROOT
BRANCH   6  18
ATOM     18  O   UNL     1       1.483  11.950  17.932  0.00  0.00    +0.000 OA
ATOM     19  H   UNL     1       1.745  11.569  17.073  0.00  0.00    +0.000 HD
ENDBRANCH   6  18
BRANCH   1  20
ATOM     20  C   UNL     1       4.711   5.020  16.566  0.00  0.00    +0.000 C 
BRANCH  20  22
ATOM     21  C   UNL     1       7.085   4.437  15.837  0.00  0.00    +0.000 C 
ATOM     22  C   UNL     1       6.191   4.892  16.993  0.00  0.00    +0.000 C 
ATOM     23  C   UNL     1       6.714   6.223  17.535  0.00  0.00    +0.000 C 
ENDBRANCH  20  22
ENDBRANCH   1  20
TORSDOF 3
ENDMDL
MODEL 8
REMARK VINA RESULT:      -6.9      3.742      7.024
REMARK  Name = 
REMARK  5 active torsions:
REMARK  status: ('A' for Active; 'I' for Inactive)
REMARK    1  A    between atoms: C_1  and  C_2
REMARK    2  A    between atoms: C_2  and  C_3
REMARK    3  A    between atoms: C_2  and  C_4
REMARK    4  A    between atoms: C_4  and  C_5
REMARK    5  A    between atoms: C_10  and  O_11
REMARK                            x       y       z     vdW  Elec       q    Type
REMARK                         _______ _______ _______ _____ _____    ______ ____
ROOT
ATOM      1  C   UNL     1       4.771   3.968  18.018  0.00  0.00    +0.000 A 
ATOM      2  N   UNL     1       4.412   3.421  16.828  0.00  0.00    +0.000 NA
ATOM      3  C   UNL     1       5.187   3.780  15.796  0.00  0.00    +0.000 A 
ATOM      4  O   UNL     1       4.963   3.332  14.521  0.00  0.00    +0.000 OA
ATOM      5  C   UNL     1       5.925   3.894  13.747  0.00  0.00    +0.000 A 
ATOM      6  C   UNL     1       6.136   3.758  12.393  0.00  0.00    +0.000 A 
ATOM      7  N   UNL     1       7.169   4.409  11.827  0.00  0.00    +0.000 NA
ATOM      8  C   UNL     1       7.941   5.166  12.632  0.00  0.00    +0.000 A 
ATOM      9  N   UNL     1       7.811   5.366  13.957  0.00  0.00    +0.000 NA
ATOM     10  C   UNL     1       6.764   4.698  14.496  0.00  0.00    +0.000 A 
ATOM     11  C   UNL     1       6.283   4.634  15.830  0.00  0.00    +0.000 A 
ATOM     12  C   UNL     1       6.650   5.201  17.068  0.00  0.00    +0.000 A 
ATOM     13  C   UNL     1       5.882   4.822  18.199  0.00  0.00    +0.000 A 
ATOM     14  C   UNL     1       6.230   5.384  19.563  0.00  0.00    +0.000 C 
ATOM     15  C   UNL     1       7.627   6.003  19.645  0.00  0.00    +0.000 C 
ATOM     16  C   UNL     1       7.856   6.934  18.467  0.00  0.00    +0.000 C 
ATOM     17  C   UNL     1       7.832   6.133  17.174  0.00  0.00    +0.000 C 
ENDROOT
BRANCH   6  18
ATOM     18  O   UNL     1       5.357   2.991  11.569  0.00  0.00    +0.000 OA
ATOM     19  H   UNL     1       5.858   2.898  10.738  0.00  0.00    +0.000 HD
ENDBRANCH   6  18
BRANCH   1  20
ATOM     20  C   UNL     1       3.813   3.633  19.153  0.00  0.00    +0.000 C 
BRANCH  20  22
ATOM     21  C   UNL     1       1.428   3.752  20.050  0.00  0.00    +0.000 C 
ATOM     22  C   UNL     1       2.371   4.131  18.906  0.00  0.00    +0.000 C 
ATOM     23  C   UNL     1       2.348   5.650  18.723  0.00  0.00    +0.000 C 
ENDBRANCH  20  22
ENDBRANCH   1  20
TORSDOF 3
ENDMDL
MODEL 9
REMARK VINA RESULT:      -6.8      2.102      4.374
REMARK  Name = 
REMARK  5 active torsions:
REMARK  status: ('A' for Active; 'I' for Inactive)
REMARK    1  A    between atoms: C_1  and  C_2
REMARK    2  A    between atoms: C_2  and  C_3
REMARK    3  A    between atoms: C_2  and  C_4
REMARK    4  A    between atoms: C_4  and  C_5
REMARK    5  A    between atoms: C_10  and  O_11
REMARK                            x       y       z     vdW  Elec       q    Type
REMARK                         _______ _______ _______ _____ _____    ______ ____
ROOT
ATOM      1  C   UNL     1       2.345   5.567  20.165  0.00  0.00    +0.000 A 
ATOM      2  N   UNL     1       1.527   6.397  20.863  0.00  0.00    +0.000 NA
ATOM      3  C   UNL     1       1.428   7.634  20.358  0.00  0.00    +0.000 A 
ATOM      4  O   UNL     1       0.657   8.604  20.940  0.00  0.00    +0.000 OA
ATOM      5  C   UNL     1       0.797   9.713  20.170  0.00  0.00    +0.000 A 
ATOM      6  C   UNL     1       0.224  10.955  20.330  0.00  0.00    +0.000 A 
ATOM      7  N   UNL     1       0.500  11.919  19.433  0.00  0.00    +0.000 NA
ATOM      8  C   UNL     1       1.333  11.604  18.421  0.00  0.00    +0.000 A 
ATOM      9  N   UNL     1       1.944  10.426  18.185  0.00  0.00    +0.000 NA
ATOM     10  C   UNL     1       1.645   9.479  19.105  0.00  0.00    +0.000 A 
ATOM     11  C   UNL     1       2.067   8.129  19.226  0.00  0.00    +0.000 A 
ATOM     12  C   UNL     1       2.917   7.264  18.506  0.00  0.00    +0.000 A 
ATOM     13  C   UNL     1       3.025   5.931  18.981  0.00  0.00    +0.000 A 
ATOM     14  C   UNL     1       3.912   4.945  18.247  0.00  0.00    +0.000 C 
ATOM     15  C   UNL     1       4.296   5.384  16.833  0.00  0.00    +0.000 C 
ATOM     16  C   UNL     1       4.778   6.825  16.845  0.00  0.00    +0.000 C 
ATOM     17  C   UNL     1       3.636   7.737  17.268  0.00  0.00    +0.000 C 
ENDROOT
BRANCH   6  18
ATOM     18  O   UNL     1      -0.622  11.283  21.355  0.00  0.00    +0.000 OA
ATOM     19  H   UNL     1      -1.173  10.493  21.509  0.00  0.00    +0.000 HD
ENDBRANCH   6  18
BRANCH   1  20
ATOM     20  C   UNL     1       2.528   4.205  20.818  0.00  0.00    +0.000 C 
BRANCH  20  22
ATOM     21  C   UNL     1       0.875   2.757  19.521  0.00  0.00    +0.000 C 
ATOM     22  C   UNL     1       1.226   3.374  20.878  0.00  0.00    +0.000 C 
ATOM     23  C   UNL     1       1.345   2.257  21.917  0.00  0.00    +0.000 C 
ENDBRANCH  20  22
ENDBRANCH   1  20
TORSDOF 3
ENDMDL
