MODEL 1
REMARK VINA RESULT:      -7.3      0.000      0.000
REMARK  Name = 
REMARK  5 active torsions:
REMARK  status: ('A' for Active; 'I' for Inactive)
REMARK    1  A    between atoms: C_2  and  C_13
REMARK    2  A    between atoms: N_3  and  N_4
REMARK    3  A    between atoms: C_5  and  C_6
REMARK    4  A    between atoms: C_9  and  O_10
REMARK    5  A    between atoms: C_18  and  O_19
REMARK                            x       y       z     vdW  Elec       q    Type
REMARK                         _______ _______ _______ _____ _____    ______ ____
ROOT
ATOM      1  O   UNL     1       7.870   6.248  18.974  0.00  0.00    +0.000 OA
ATOM      2  C   UNL     1       7.331   6.660  17.953  0.00  0.00    +0.000 C 
ATOM      3  N   UNL     1       7.509   7.954  17.509  0.00  0.00    +0.000 N 
ATOM      4  H   UNL     1       7.056   8.308  16.676  0.00  0.00    +0.000 HD
ENDROOT
BRANCH   2   5
ATOM      5  C   UNL     1       6.357   5.772  17.298  0.00  0.00    +0.000 A 
ATOM      6  C   UNL     1       5.313   5.309  18.104  0.00  0.00    +0.000 A 
ATOM      7  C   UNL     1       4.465   4.305  17.637  0.00  0.00    +0.000 A 
ATOM      8  C   UNL     1       4.681   3.724  16.387  0.00  0.00    +0.000 A 
ATOM      9  C   UNL     1       5.744   4.148  15.593  0.00  0.00    +0.000 A 
ATOM     10  C   UNL     1       6.574   5.181  16.040  0.00  0.00    +0.000 A 
BRANCH  10  11
ATOM     11  O   UNL     1       7.581   5.605  15.215  0.00  0.00    +0.000 OA
ATOM     12  H   UNL     1       7.886   6.486  15.496  0.00  0.00    +0.000 HD
ENDBRANCH  10  11
ENDBRANCH   2   5
BRANCH   3  13
ATOM     13  N   UNL     1       8.512   8.668  18.126  0.00  0.00    +0.000 NA
ATOM     14  C   UNL     1       8.457   9.951  18.024  0.00  0.00    +0.000 C 
BRANCH  14  15
ATOM     15  C   UNL     1       9.557  10.828  18.489  0.00  0.00    +0.000 A 
ATOM     16  C   UNL     1      10.391  11.537  17.607  0.00  0.00    +0.000 A 
ATOM     17  C   UNL     1      11.344  12.429  18.123  0.00  0.00    +0.000 A 
ATOM     18  C   UNL     1      11.450  12.609  19.499  0.00  0.00    +0.000 A 
ATOM     19  C   UNL     1      10.631  11.899  20.372  0.00  0.00    +0.000 A 
ATOM     20  C   UNL     1       9.690  11.009  19.870  0.00  0.00    +0.000 A 
BRANCH  18  21
ATOM     21  O   UNL     1      12.333  13.489  20.050  0.00  0.00    +0.000 OA
ATOM     22  H   UNL     1      11.933  14.373  20.062  0.00  0.00    +0.000 HD
ENDBRANCH  18  21
ENDBRANCH  14  15
ENDBRANCH   3  13
TORSDOF 5
ENDMDL
MODEL 2
REMARK VINA RESULT:      -7.3      0.296      1.123
REMARK  Name = 
REMARK  5 active torsions:
REMARK  status: ('A' for Active; 'I' for Inactive)
REMARK    1  A    between atoms: C_2  and  C_13
REMARK    2  A    between atoms: N_3  and  N_4
REMARK    3  A    between atoms: C_5  and  C_6
REMARK    4  A    between atoms: C_9  and  O_10
REMARK    5  A    between atoms: C_18  and  O_19
REMARK                            x       y       z     vdW  Elec       q    Type
REMARK                         _______ _______ _______ _____ _____    ______ ____
ROOT
ATOM      1  O   UNL     1       7.911   6.380  18.883  0.00  0.00    +0.000 OA
ATOM      2  C   UNL     1       7.385   6.748  17.838  0.00  0.00    +0.000 C 
ATOM      3  N   UNL     1       7.542   8.033  17.360  0.00  0.00    +0.000 N 
ATOM      4  H   UNL     1       7.100   8.350  16.507  0.00  0.00    +0.000 HD
ENDROOT
BRANCH   2   5
ATOM      5  C   UNL     1       6.450   5.816  17.188  0.00  0.00    +0.000 A 
ATOM      6  C   UNL     1       5.397   5.354  17.983  0.00  0.00    +0.000 A 
ATOM      7  C   UNL     1       4.584   4.316  17.528  0.00  0.00    +0.000 A 
ATOM      8  C   UNL     1       4.845   3.701  16.303  0.00  0.00    +0.000 A 
ATOM      9  C   UNL     1       5.918   4.125  15.522  0.00  0.00    +0.000 A 
ATOM     10  C   UNL     1       6.713   5.191  15.955  0.00  0.00    +0.000 A 
BRANCH  10  11
ATOM     11  O   UNL     1       7.729   5.613  15.143  0.00  0.00    +0.000 OA
ATOM     12  H   UNL     1       7.624   6.562  14.951  0.00  0.00    +0.000 HD
ENDBRANCH  10  11
ENDBRANCH   2   5
BRANCH   3  13
ATOM     13  N   UNL     1       8.512   8.790  17.978  0.00  0.00    +0.000 NA
ATOM     14  C   UNL     1       8.235  10.031  18.183  0.00  0.00    +0.000 C 
BRANCH  14  15
ATOM     15  C   UNL     1       9.247  10.994  18.678  0.00  0.00    +0.000 A 
ATOM     16  C   UNL     1       9.737  10.976  19.996  0.00  0.00    +0.000 A 
ATOM     17  C   UNL     1      10.770  11.853  20.361  0.00  0.00    +0.000 A 
ATOM     18  C   UNL     1      11.304  12.725  19.417  0.00  0.00    +0.000 A 
ATOM     19  C   UNL     1      10.811  12.750  18.116  0.00  0.00    +0.000 A 
ATOM     20  C   UNL     1       9.784  11.891  17.747  0.00  0.00    +0.000 A 
BRANCH  18  21
ATOM     21  O   UNL     1      12.332  13.571  19.710  0.00  0.00    +0.000 OA
ATOM     22  H   UNL     1      12.880  13.689  18.918  0.00  0.00    +0.000 HD
ENDBRANCH  18  21
ENDBRANCH  14  15
ENDBRANCH   3  13
TORSDOF 5
ENDMDL
MODEL 3
REMARK VINA RESULT:      -7.2      6.394      8.803
REMARK  Name = 
REMARK  5 active torsions:
REMARK  status: ('A' for Active; 'I' for Inactive)
REMARK    1  A    between atoms: C_2  and  C_13
REMARK    2  A    between atoms: N_3  and  N_4
REMARK    3  A    between atoms: C_5  and  C_6
REMARK    4  A    between atoms: C_9  and  O_10
REMARK    5  A    between atoms: C_18  and  O_19
REMARK                            x       y       z     vdW  Elec       q    Type
REMARK                         _______ _______ _______ _____ _____    ______ ____
ROOT
ATOM      1  O   UNL     1       4.807   5.440  16.062  0.00  0.00    +0.000 OA
ATOM      2  C   UNL     1       5.335   4.411  15.655  0.00  0.00    +0.000 C 
ATOM      3  N   UNL     1       5.556   3.331  16.485  0.00  0.00    +0.000 N 
ATOM      4  H   UNL     1       6.004   2.483  16.161  0.00  0.00    +0.000 HD
ENDROOT
BRANCH   2   5
ATOM      5  C   UNL     1       5.870   4.423  14.284  0.00  0.00    +0.000 A 
ATOM      6  C   UNL     1       5.184   3.638  13.353  0.00  0.00    +0.000 A 
ATOM      7  C   UNL     1       5.729   3.420  12.088  0.00  0.00    +0.000 A 
ATOM      8  C   UNL     1       6.982   3.941  11.762  0.00  0.00    +0.000 A 
ATOM      9  C   UNL     1       7.694   4.690  12.697  0.00  0.00    +0.000 A 
ATOM     10  C   UNL     1       7.135   4.944  13.953  0.00  0.00    +0.000 A 
BRANCH  10  11
ATOM     11  O   UNL     1       7.839   5.721  14.831  0.00  0.00    +0.000 OA
ATOM     12  H   UNL     1       7.644   5.445  15.744  0.00  0.00    +0.000 HD
ENDBRANCH  10  11
ENDBRANCH   2   5
BRANCH   3  13
ATOM     13  N   UNL     1       4.930   3.377  17.710  0.00  0.00    +0.000 NA
ATOM     14  C   UNL     1       3.865   2.665  17.844  0.00  0.00    +0.000 C 
BRANCH  14  15
ATOM     15  C   UNL     1       3.001   2.755  19.045  0.00  0.00    +0.000 A 
ATOM     16  C   UNL     1       1.609   2.940  18.971  0.00  0.00    +0.000 A 
ATOM     17  C   UNL     1       0.844   2.910  20.147  0.00  0.00    +0.000 A 
ATOM     18  C   UNL     1       1.467   2.692  21.373  0.00  0.00    +0.000 A 
ATOM     19  C   UNL     1       2.846   2.521  21.446  0.00  0.00    +0.000 A 
ATOM     20  C   UNL     1       3.612   2.555  20.288  0.00  0.00    +0.000 A 
BRANCH  18  21
ATOM     21  O   UNL     1       0.766   2.618  22.540  0.00  0.00    +0.000 OA
ATOM     22  H   UNL     1      -0.145   2.348  22.345  0.00  0.00    +0.000 HD
ENDBRANCH  18  21
ENDBRANCH  14  15
ENDBRANCH   3  13
TORSDOF 5
ENDMDL
MODEL 4
REMARK VINA RESULT:      -7.1      0.992      1.924
REMARK  Name = 
REMARK  5 active torsions:
REMARK  status: ('A' for Active; 'I' for Inactive)
REMARK    1  A    between atoms: C_2  and  C_13
REMARK    2  A    between atoms: N_3  and  N_4
REMARK    3  A    between atoms: C_5  and  C_6
REMARK    4  A    between atoms: C_9  and  O_10
REMARK    5  A    between atoms: C_18  and  O_19
REMARK                            x       y       z     vdW  Elec       q    Type
REMARK                         _______ _______ _______ _____ _____    ______ ____
ROOT
ATOM      1  O   UNL     1       7.916   6.215  19.141  0.00  0.00    +0.000 OA
ATOM      2  C   UNL     1       7.502   6.530  18.030  0.00  0.00    +0.000 C 
ATOM      3  N   UNL     1       7.654   7.808  17.534  0.00  0.00    +0.000 N 
ATOM      4  H   UNL     1       7.303   8.081  16.625  0.00  0.00    +0.000 HD
ENDROOT
BRANCH   2   5
ATOM      5  C   UNL     1       6.695   5.537  17.303  0.00  0.00    +0.000 A 
ATOM      6  C   UNL     1       6.967   5.408  15.939  0.00  0.00    +0.000 A 
ATOM      7  C   UNL     1       6.122   4.651  15.127  0.00  0.00    +0.000 A 
ATOM      8  C   UNL     1       4.976   4.060  15.661  0.00  0.00    +0.000 A 
ATOM      9  C   UNL     1       4.671   4.217  17.012  0.00  0.00    +0.000 A 
ATOM     10  C   UNL     1       5.536   4.943  17.837  0.00  0.00    +0.000 A 
BRANCH  10  11
ATOM     11  O   UNL     1       5.232   5.039  19.167  0.00  0.00    +0.000 OA
ATOM     12  H   UNL     1       5.737   5.768  19.568  0.00  0.00    +0.000 HD
ENDBRANCH  10  11
ENDBRANCH   2   5
BRANCH   3  13
ATOM     13  N   UNL     1       8.507   8.628  18.239  0.00  0.00    +0.000 NA
ATOM     14  C   UNL     1       8.379   9.896  18.051  0.00  0.00    +0.000 C 
BRANCH  14  15
ATOM     15  C   UNL     1       9.339  10.878  18.608  0.00  0.00    +0.000 A 
ATOM     16  C   UNL     1       9.590  11.001  19.986  0.00  0.00    +0.000 A 
ATOM     17  C   UNL     1      10.590  11.881  20.431  0.00  0.00    +0.000 A 
ATOM     18  C   UNL     1      11.326  12.616  19.506  0.00  0.00    +0.000 A 
ATOM     19  C   UNL     1      11.069  12.501  18.143  0.00  0.00    +0.000 A 
ATOM     20  C   UNL     1      10.078  11.638  17.694  0.00  0.00    +0.000 A 
BRANCH  18  21
ATOM     21  O   UNL     1      12.331  13.456  19.882  0.00  0.00    +0.000 OA
ATOM     22  H   UNL     1      13.184  13.039  19.681  0.00  0.00    +0.000 HD
ENDBRANCH  18  21
ENDBRANCH  14  15
ENDBRANCH   3  13
TORSDOF 5
ENDMDL
MODEL 5
REMARK VINA RESULT:      -7.0      1.402      2.285
REMARK  Name = 
REMARK  5 active torsions:
REMARK  status: ('A' for Active; 'I' for Inactive)
REMARK    1  A    between atoms: C_2  and  C_13
REMARK    2  A    between atoms: N_3  and  N_4
REMARK    3  A    between atoms: C_5  and  C_6
REMARK    4  A    between atoms: C_9  and  O_10
REMARK    5  A    between atoms: C_18  and  O_19
REMARK                            x       y       z     vdW  Elec       q    Type
REMARK                         _______ _______ _______ _____ _____    ______ ____
ROOT
ATOM      1  O   UNL     1       7.799   6.561  16.127  0.00  0.00    +0.000 OA
ATOM      2  C   UNL     1       7.179   6.598  17.185  0.00  0.00    +0.000 C 
ATOM      3  N   UNL     1       7.371   7.608  18.104  0.00  0.00    +0.000 N 
ATOM      4  H   UNL     1       6.875   7.639  18.986  0.00  0.00    +0.000 HD
ENDROOT
BRANCH   2   5
ATOM      5  C   UNL     1       6.335   5.438  17.513  0.00  0.00    +0.000 A 
ATOM      6  C   UNL     1       5.524   4.960  16.480  0.00  0.00    +0.000 A 
ATOM      7  C   UNL     1       4.543   4.005  16.748  0.00  0.00    +0.000 A 
ATOM      8  C   UNL     1       4.332   3.559  18.053  0.00  0.00    +0.000 A 
ATOM      9  C   UNL     1       5.106   4.060  19.098  0.00  0.00    +0.000 A 
ATOM     10  C   UNL     1       6.116   4.988  18.829  0.00  0.00    +0.000 A 
BRANCH  10  11
ATOM     11  O   UNL     1       6.888   5.425  19.870  0.00  0.00    +0.000 OA
ATOM     12  H   UNL     1       6.580   5.020  20.701  0.00  0.00    +0.000 HD
ENDBRANCH  10  11
ENDBRANCH   2   5
BRANCH   3  13
ATOM     13  N   UNL     1       8.097   8.692  17.663  0.00  0.00    +0.000 NA
ATOM     14  C   UNL     1       8.593   9.464  18.567  0.00  0.00    +0.000 C 
BRANCH  14  15
ATOM     15  C   UNL     1       9.244  10.753  18.234  0.00  0.00    +0.000 A 
ATOM     16  C   UNL     1      10.640  10.919  18.214  0.00  0.00    +0.000 A 
ATOM     17  C   UNL     1      11.185  12.140  17.787  0.00  0.00    +0.000 A 
ATOM     18  C   UNL     1      10.341  13.170  17.382  0.00  0.00    +0.000 A 
ATOM     19  C   UNL     1       8.959  13.009  17.412  0.00  0.00    +0.000 A 
ATOM     20  C   UNL     1       8.411  11.806  17.839  0.00  0.00    +0.000 A 
BRANCH  18  21
ATOM     21  O   UNL     1      10.819  14.363  16.925  0.00  0.00    +0.000 OA
ATOM     22  H   UNL     1      11.601  14.199  16.373  0.00  0.00    +0.000 HD
ENDBRANCH  18  21
ENDBRANCH  14  15
ENDBRANCH   3  13
TORSDOF 5
ENDMDL
MODEL 6
REMARK VINA RESULT:      -7.0      1.100      1.629
REMARK  Name = 
REMARK  5 active torsions:
REMARK  status: ('A' for Active; 'I' for Inactive)
REMARK    1  A    between atoms: C_2  and  C_13
REMARK    2  A    between atoms: N_3  and  N_4
REMARK    3  A    between atoms: C_5  and  C_6
REMARK    4  A    between atoms: C_9  and  O_10
REMARK    5  A    between atoms: C_18  and  O_19
REMARK                            x       y       z     vdW  Elec       q    Type
REMARK                         _______ _______ _______ _____ _____    ______ ____
ROOT
ATOM      1  O   UNL     1       8.141   6.281  18.987  0.00  0.00    +0.000 OA
ATOM      2  C   UNL     1       7.535   6.584  17.964  0.00  0.00    +0.000 C 
ATOM      3  N   UNL     1       7.521   7.877  17.485  0.00  0.00    +0.000 N 
ATOM      4  H   UNL     1       7.011   8.139  16.650  0.00  0.00    +0.000 HD
ENDROOT
BRANCH   2   5
ATOM      5  C   UNL     1       6.689   5.548  17.349  0.00  0.00    +0.000 A 
ATOM      6  C   UNL     1       6.561   5.610  15.959  0.00  0.00    +0.000 A 
ATOM      7  C   UNL     1       5.623   4.808  15.309  0.00  0.00    +0.000 A 
ATOM      8  C   UNL     1       4.776   3.977  16.043  0.00  0.00    +0.000 A 
ATOM      9  C   UNL     1       4.866   3.939  17.434  0.00  0.00    +0.000 A 
ATOM     10  C   UNL     1       5.831   4.712  18.087  0.00  0.00    +0.000 A 
BRANCH  10  11
ATOM     11  O   UNL     1       5.924   4.616  19.448  0.00  0.00    +0.000 OA
ATOM     12  H   UNL     1       6.641   5.190  19.770  0.00  0.00    +0.000 HD
ENDBRANCH  10  11
ENDBRANCH   2   5
BRANCH   3  13
ATOM     13  N   UNL     1       8.419   8.743  18.066  0.00  0.00    +0.000 NA
ATOM     14  C   UNL     1       8.161  10.001  17.963  0.00  0.00    +0.000 C 
BRANCH  14  15
ATOM     15  C   UNL     1       9.125  11.043  18.389  0.00  0.00    +0.000 A 
ATOM     16  C   UNL     1       9.267  12.270  17.718  0.00  0.00    +0.000 A 
ATOM     17  C   UNL     1      10.126  13.249  18.242  0.00  0.00    +0.000 A 
ATOM     18  C   UNL     1      10.823  12.999  19.421  0.00  0.00    +0.000 A 
ATOM     19  C   UNL     1      10.690  11.779  20.078  0.00  0.00    +0.000 A 
ATOM     20  C   UNL     1       9.847  10.802  19.563  0.00  0.00    +0.000 A 
BRANCH  18  21
ATOM     21  O   UNL     1      11.642  13.928  19.990  0.00  0.00    +0.000 OA
ATOM     22  H   UNL     1      12.032  13.554  20.796  0.00  0.00    +0.000 HD
ENDBRANCH  18  21
ENDBRANCH  14  15
ENDBRANCH   3  13
TORSDOF 5
ENDMDL
MODEL 7
REMARK VINA RESULT:      -6.9      2.096      8.125
REMARK  Name = 
REMARK  5 active torsions:
REMARK  status: ('A' for Active; 'I' for Inactive)
REMARK    1  A    between atoms: C_2  and  C_13
REMARK    2  A    between atoms: N_3  and  N_4
REMARK    3  A    between atoms: C_5  and  C_6
REMARK    4  A    between atoms: C_9  and  O_10
REMARK    5  A    between atoms: C_18  and  O_19
REMARK                            x       y       z     vdW  Elec       q    Type
REMARK                         _______ _______ _______ _____ _____    ______ ____
ROOT
ATOM      1  O   UNL     1       9.450  10.986  20.098  0.00  0.00    +0.000 OA
ATOM      2  C   UNL     1       9.448  11.267  18.904  0.00  0.00    +0.000 C 
ATOM      3  N   UNL     1       9.107  10.340  17.941  0.00  0.00    +0.000 N 
ATOM      4  H   UNL     1       9.117  10.558  16.953  0.00  0.00    +0.000 HD
ENDROOT
BRANCH   2   5
ATOM      5  C   UNL     1       9.974  12.586  18.519  0.00  0.00    +0.000 A 
ATOM      6  C   UNL     1       9.148  13.679  18.796  0.00  0.00    +0.000 A 
ATOM      7  C   UNL     1       9.462  14.938  18.286  0.00  0.00    +0.000 A 
ATOM      8  C   UNL     1      10.573  15.106  17.458  0.00  0.00    +0.000 A 
ATOM      9  C   UNL     1      11.380  14.015  17.140  0.00  0.00    +0.000 A 
ATOM     10  C   UNL     1      11.091  12.759  17.681  0.00  0.00    +0.000 A 
BRANCH  10  11
ATOM     11  O   UNL     1      11.930  11.719  17.386  0.00  0.00    +0.000 OA
ATOM     12  H   UNL     1      12.753  11.806  17.899  0.00  0.00    +0.000 HD
ENDBRANCH  10  11
ENDBRANCH   2   5
BRANCH   3  13
ATOM     13  N   UNL     1       8.534   9.177  18.404  0.00  0.00    +0.000 NA
ATOM     14  C   UNL     1       8.082   8.360  17.515  0.00  0.00    +0.000 C 
BRANCH  14  15
ATOM     15  C   UNL     1       7.291   7.160  17.875  0.00  0.00    +0.000 A 
ATOM     16  C   UNL     1       6.106   6.799  17.208  0.00  0.00    +0.000 A 
ATOM     17  C   UNL     1       5.469   5.593  17.535  0.00  0.00    +0.000 A 
ATOM     18  C   UNL     1       6.016   4.764  18.510  0.00  0.00    +0.000 A 
ATOM     19  C   UNL     1       7.181   5.126  19.177  0.00  0.00    +0.000 A 
ATOM     20  C   UNL     1       7.816   6.321  18.864  0.00  0.00    +0.000 A 
BRANCH  18  21
ATOM     21  O   UNL     1       5.455   3.565  18.840  0.00  0.00    +0.000 OA
ATOM     22  H   UNL     1       6.080   3.065  19.389  0.00  0.00    +0.000 HD
ENDBRANCH  18  21
ENDBRANCH  14  15
ENDBRANCH   3  13
TORSDOF 5
ENDMDL
MODEL 8
REMARK VINA RESULT:      -6.9      1.407      2.257
REMARK  Name = 
REMARK  5 active torsions:
REMARK  status: ('A' for Active; 'I' for Inactive)
REMARK    1  A    between atoms: C_2  and  C_13
REMARK    2  A    between atoms: N_3  and  N_4
REMARK    3  A    between atoms: C_5  and  C_6
REMARK    4  A    between atoms: C_9  and  O_10
REMARK    5  A    between atoms: C_18  and  O_19
REMARK                            x       y       z     vdW  Elec       q    Type
REMARK                         _______ _______ _______ _____ _____    ______ ____
ROOT
ATOM      1  O   UNL     1       7.703   6.668  16.179  0.00  0.00    +0.000 OA
ATOM      2  C   UNL     1       7.178   6.728  17.286  0.00  0.00    +0.000 C 
ATOM      3  N   UNL     1       7.552   7.675  18.216  0.00  0.00    +0.000 N 
ATOM      4  H   UNL     1       7.135   7.723  19.137  0.00  0.00    +0.000 HD
ENDROOT
BRANCH   2   5
ATOM      5  C   UNL     1       6.241   5.653  17.648  0.00  0.00    +0.000 A 
ATOM      6  C   UNL     1       5.260   5.352  16.699  0.00  0.00    +0.000 A 
ATOM      7  C   UNL     1       4.206   4.500  17.030  0.00  0.00    +0.000 A 
ATOM      8  C   UNL     1       4.098   3.984  18.322  0.00  0.00    +0.000 A 
ATOM      9  C   UNL     1       5.047   4.311  19.289  0.00  0.00    +0.000 A 
ATOM     10  C   UNL     1       6.126   5.134  18.951  0.00  0.00    +0.000 A 
BRANCH  10  11
ATOM     11  O   UNL     1       7.064   5.398  19.910  0.00  0.00    +0.000 OA
ATOM     12  H   UNL     1       6.692   5.220  20.792  0.00  0.00    +0.000 HD
ENDBRANCH  10  11
ENDBRANCH   2   5
BRANCH   3  13
ATOM     13  N   UNL     1       8.355   8.692  17.749  0.00  0.00    +0.000 NA
ATOM     14  C   UNL     1       8.538   9.694  18.538  0.00  0.00    +0.000 C 
BRANCH  14  15
ATOM     15  C   UNL     1       9.232  10.928  18.099  0.00  0.00    +0.000 A 
ATOM     16  C   UNL     1       8.551  12.122  17.802  0.00  0.00    +0.000 A 
ATOM     17  C   UNL     1       9.285  13.278  17.494  0.00  0.00    +0.000 A 
ATOM     18  C   UNL     1      10.676  13.234  17.493  0.00  0.00    +0.000 A 
ATOM     19  C   UNL     1      11.349  12.050  17.777  0.00  0.00    +0.000 A 
ATOM     20  C   UNL     1      10.631  10.899  18.076  0.00  0.00    +0.000 A 
BRANCH  18  21
ATOM     21  O   UNL     1      11.436  14.337  17.236  0.00  0.00    +0.000 OA
ATOM     22  H   UNL     1      11.075  15.091  17.729  0.00  0.00    +0.000 HD
ENDBRANCH  18  21
ENDBRANCH  14  15
ENDBRANCH   3  13
TORSDOF 5
ENDMDL
MODEL 9
REMARK VINA RESULT:      -6.8      1.516      2.288
REMARK  Name = 
REMARK  5 active torsions:
REMARK  status: ('A' for Active; 'I' for Inactive)
REMARK    1  A    between atoms: C_2  and  C_13
REMARK    2  A    between atoms: N_3  and  N_4
REMARK    3  A    between atoms: C_5  and  C_6
REMARK    4  A    between atoms: C_9  and  O_10
REMARK    5  A    between atoms: C_18  and  O_19
REMARK                            x       y       z     vdW  Elec       q    Type
REMARK                         _______ _______ _______ _____ _____    ______ ____
ROOT
ATOM      1  O   UNL     1       5.747   7.336  16.339  0.00  0.00    +0.000 OA
ATOM      2  C   UNL     1       6.266   6.687  17.241  0.00  0.00    +0.000 C 
ATOM      3  N   UNL     1       7.448   7.083  17.833  0.00  0.00    +0.000 N 
ATOM      4  H   UNL     1       7.891   6.546  18.568  0.00  0.00    +0.000 HD
ENDROOT
BRANCH   2   5
ATOM      5  C   UNL     1       5.666   5.383  17.566  0.00  0.00    +0.000 A 
ATOM      6  C   UNL     1       4.768   4.872  16.625  0.00  0.00    +0.000 A 
ATOM      7  C   UNL     1       3.995   3.753  16.934  0.00  0.00    +0.000 A 
ATOM      8  C   UNL     1       4.077   3.168  18.199  0.00  0.00    +0.000 A 
ATOM      9  C   UNL     1       4.938   3.695  19.159  0.00  0.00    +0.000 A 
ATOM     10  C   UNL     1       5.743   4.793  18.841  0.00  0.00    +0.000 A 
BRANCH  10  11
ATOM     11  O   UNL     1       6.611   5.256  19.791  0.00  0.00    +0.000 OA
ATOM     12  H   UNL     1       6.730   6.217  19.687  0.00  0.00    +0.000 HD
ENDBRANCH  10  11
ENDBRANCH   2   5
BRANCH   3  13
ATOM     13  N   UNL     1       7.871   8.359  17.535  0.00  0.00    +0.000 NA
ATOM     14  C   UNL     1       8.583   8.956  18.428  0.00  0.00    +0.000 C 
BRANCH  14  15
ATOM     15  C   UNL     1       8.957  10.385  18.313  0.00  0.00    +0.000 A 
ATOM     16  C   UNL     1       8.197  11.316  17.583  0.00  0.00    +0.000 A 
ATOM     17  C   UNL     1       8.556  12.672  17.607  0.00  0.00    +0.000 A 
ATOM     18  C   UNL     1       9.655  13.084  18.356  0.00  0.00    +0.000 A 
ATOM     19  C   UNL     1      10.413  12.161  19.069  0.00  0.00    +0.000 A 
ATOM     20  C   UNL     1      10.069  10.815  19.046  0.00  0.00    +0.000 A 
BRANCH  18  21
ATOM     21  O   UNL     1      10.025  14.394  18.442  0.00  0.00    +0.000 OA
ATOM     22  H   UNL     1       9.554  14.900  17.761  0.00  0.00    +0.000 HD
ENDBRANCH  18  21
ENDBRANCH  14  15
ENDBRANCH   3  13
TORSDOF 5
ENDMDL
