MODEL 1
REMARK VINA RESULT:      -8.6      0.000      0.000
REMARK  Name = 
REMARK  8 active torsions:
REMARK  status: ('A' for Active; 'I' for Inactive)
REMARK    1  A    between atoms: C_1  and  C_2
REMARK    2  A    between atoms: C_8  and  C_9
REMARK    3  A    between atoms: C_12  and  C_13
REMARK    4  A    between atoms: C_16  and  C_17
REMARK    5  A    between atoms: C_17  and  N_18
REMARK    6  A    between atoms: N_18  and  C_19
REMARK    7  A    between atoms: C_19  and  C_20
REMARK    8  A    between atoms: N_23  and  C_24
REMARK                            x       y       z     vdW  Elec       q    Type
REMARK                         _______ _______ _______ _____ _____    ______ ____
ROOT
ATOM      1  C   UNL     1       0.198  11.191  20.875  0.00  0.00    +0.000 A 
ATOM      2  C   UNL     1      -0.549  10.640  21.927  0.00  0.00    +0.000 A 
ATOM      3  C   UNL     1      -1.189  11.458  22.864  0.00  0.00    +0.000 A 
ATOM      4  C   UNL     1      -1.102  12.853  22.774  0.00  0.00    +0.000 A 
ATOM      5  C   UNL     1      -0.367  13.411  21.725  0.00  0.00    +0.000 A 
ATOM      6  C   UNL     1       0.275  12.589  20.788  0.00  0.00    +0.000 A 
ENDROOT
BRANCH   1  10
ATOM      7  C   UNL     1       2.018   8.454  18.717  0.00  0.00    +0.000 A 
ATOM      8  C   UNL     1       1.952   9.586  17.934  0.00  0.00    +0.000 A 
ATOM      9  C   UNL     1       1.305  10.671  18.599  0.00  0.00    +0.000 A 
ATOM     10  C   UNL     1       0.885  10.346  19.878  0.00  0.00    +0.000 A 
ATOM     11  S   UNL     1       1.312   8.725  20.251  0.00  0.00    +0.000 S 
BRANCH   7  19
ATOM     12  C   UNL     1       5.803   5.719  15.624  0.00  0.00    +0.000 C 
ATOM     13  C   UNL     1       4.863   5.031  16.563  0.00  0.00    +0.000 A 
ATOM     14  C   UNL     1       4.869   3.632  16.716  0.00  0.00    +0.000 A 
ATOM     15  C   UNL     1       3.993   2.980  17.590  0.00  0.00    +0.000 A 
ATOM     16  C   UNL     1       3.066   3.703  18.351  0.00  0.00    +0.000 A 
ATOM     17  C   UNL     1       3.032   5.096  18.218  0.00  0.00    +0.000 A 
ATOM     18  N   UNL     1       2.223   6.020  18.840  0.00  0.00    +0.000 NA
ATOM     19  C   UNL     1       2.591   7.191  18.359  0.00  0.00    +0.000 A 
ATOM     20  N   UNL     1       3.612   7.045  17.453  0.00  0.00    +0.000 N 
ATOM     21  C   UNL     1       3.917   5.714  17.340  0.00  0.00    +0.000 A 
ATOM     22  H   UNL     1       4.048   7.804  16.953  0.00  0.00    +0.000 HD
ENDBRANCH   7  19
ENDBRANCH   1  10
BRANCH   4  23
ATOM     23  C   UNL     1      -1.800  13.729  23.788  0.00  0.00    +0.000 C 
BRANCH  23  24
ATOM     24  N   UNL     1      -3.243  13.520  23.740  0.00  0.00    +0.000 NA
ATOM     25  H   UNL     1      -3.649  13.783  24.640  0.00  0.00    +0.000 HD
BRANCH  24  26
ATOM     26  C   UNL     1      -3.875  14.331  22.702  0.00  0.00    +0.000 C 
BRANCH  26  27
ATOM     27  C   UNL     1      -4.305  13.408  21.612  0.00  0.00    +0.000 A 
ATOM     28  C   UNL     1      -5.560  12.809  21.430  0.00  0.00    +0.000 A 
ATOM     29  N   UNL     1      -5.577  12.110  20.296  0.00  0.00    +0.000 NA
ATOM     30  N   UNL     1      -4.317  12.307  19.816  0.00  0.00    +0.000 N 
ATOM     31  N   UNL     1      -3.499  13.075  20.592  0.00  0.00    +0.000 NA
BRANCH  30  32
ATOM     32  C   UNL     1      -3.882  11.713  18.602  0.00  0.00    +0.000 A 
ATOM     33  C   UNL     1      -2.564  11.246  18.490  0.00  0.00    +0.000 A 
ATOM     34  C   UNL     1      -2.115  10.706  17.284  0.00  0.00    +0.000 A 
ATOM     35  C   UNL     1      -2.974  10.634  16.189  0.00  0.00    +0.000 A 
ATOM     36  C   UNL     1      -4.291  11.080  16.301  0.00  0.00    +0.000 A 
ATOM     37  C   UNL     1      -4.752  11.613  17.508  0.00  0.00    +0.000 A 
ENDBRANCH  30  32
ENDBRANCH  26  27
ENDBRANCH  24  26
ENDBRANCH  23  24
ENDBRANCH   4  23
TORSDOF 7
ENDMDL
MODEL 2
REMARK VINA RESULT:      -8.6      1.615      2.240
REMARK  Name = 
REMARK  8 active torsions:
REMARK  status: ('A' for Active; 'I' for Inactive)
REMARK    1  A    between atoms: C_1  and  C_2
REMARK    2  A    between atoms: C_8  and  C_9
REMARK    3  A    between atoms: C_12  and  C_13
REMARK    4  A    between atoms: C_16  and  C_17
REMARK    5  A    between atoms: C_17  and  N_18
REMARK    6  A    between atoms: N_18  and  C_19
REMARK    7  A    between atoms: C_19  and  C_20
REMARK    8  A    between atoms: N_23  and  C_24
REMARK                            x       y       z     vdW  Elec       q    Type
REMARK                         _______ _______ _______ _____ _____    ______ ____
ROOT
ATOM      1  C   UNL     1       0.419   9.253  21.448  0.00  0.00    +0.000 A 
ATOM      2  C   UNL     1       0.428  10.474  20.759  0.00  0.00    +0.000 A 
ATOM      3  C   UNL     1      -0.228  11.599  21.271  0.00  0.00    +0.000 A 
ATOM      4  C   UNL     1      -0.910  11.534  22.493  0.00  0.00    +0.000 A 
ATOM      5  C   UNL     1      -0.917  10.323  23.192  0.00  0.00    +0.000 A 
ATOM      6  C   UNL     1      -0.261   9.198  22.674  0.00  0.00    +0.000 A 
ENDROOT
BRANCH   1  10
ATOM      7  C   UNL     1       2.562   6.504  19.629  0.00  0.00    +0.000 A 
ATOM      8  C   UNL     1       1.755   5.838  20.525  0.00  0.00    +0.000 A 
ATOM      9  C   UNL     1       0.915   6.724  21.265  0.00  0.00    +0.000 A 
ATOM     10  C   UNL     1       1.100   8.053  20.923  0.00  0.00    +0.000 A 
ATOM     11  S   UNL     1       2.281   8.189  19.683  0.00  0.00    +0.000 S 
BRANCH   7  19
ATOM     12  C   UNL     1       7.956   5.379  18.626  0.00  0.00    +0.000 C 
ATOM     13  C   UNL     1       6.854   5.006  17.684  0.00  0.00    +0.000 A 
ATOM     14  C   UNL     1       7.117   4.350  16.468  0.00  0.00    +0.000 A 
ATOM     15  C   UNL     1       6.094   3.999  15.581  0.00  0.00    +0.000 A 
ATOM     16  C   UNL     1       4.757   4.292  15.874  0.00  0.00    +0.000 A 
ATOM     17  C   UNL     1       4.463   4.948  17.075  0.00  0.00    +0.000 A 
ATOM     18  N   UNL     1       3.249   5.348  17.585  0.00  0.00    +0.000 NA
ATOM     19  C   UNL     1       3.523   5.925  18.738  0.00  0.00    +0.000 A 
ATOM     20  N   UNL     1       4.874   5.903  18.983  0.00  0.00    +0.000 N 
ATOM     21  C   UNL     1       5.503   5.283  17.935  0.00  0.00    +0.000 A 
ATOM     22  H   UNL     1       5.315   6.292  19.801  0.00  0.00    +0.000 HD
ENDBRANCH   7  19
ENDBRANCH   1  10
BRANCH   4  23
ATOM     23  C   UNL     1      -1.612  12.754  23.042  0.00  0.00    +0.000 C 
BRANCH  23  24
ATOM     24  N   UNL     1      -2.085  13.605  21.956  0.00  0.00    +0.000 NA
ATOM     25  H   UNL     1      -1.792  13.202  21.065  0.00  0.00    +0.000 HD
BRANCH  24  26
ATOM     26  C   UNL     1      -3.542  13.715  21.949  0.00  0.00    +0.000 C 
BRANCH  26  27
ATOM     27  C   UNL     1      -4.042  12.958  20.765  0.00  0.00    +0.000 A 
ATOM     28  C   UNL     1      -5.372  12.744  20.373  0.00  0.00    +0.000 A 
ATOM     29  N   UNL     1      -5.410  12.082  19.218  0.00  0.00    +0.000 NA
ATOM     30  N   UNL     1      -4.088  11.911  18.937  0.00  0.00    +0.000 N 
ATOM     31  N   UNL     1      -3.216  12.410  19.860  0.00  0.00    +0.000 NA
BRANCH  30  32
ATOM     32  C   UNL     1      -3.656  11.221  17.774  0.00  0.00    +0.000 A 
ATOM     33  C   UNL     1      -2.509  10.416  17.829  0.00  0.00    +0.000 A 
ATOM     34  C   UNL     1      -2.051   9.774  16.678  0.00  0.00    +0.000 A 
ATOM     35  C   UNL     1      -2.730   9.935  15.471  0.00  0.00    +0.000 A 
ATOM     36  C   UNL     1      -3.882  10.721  15.416  0.00  0.00    +0.000 A 
ATOM     37  C   UNL     1      -4.353  11.359  16.566  0.00  0.00    +0.000 A 
ENDBRANCH  30  32
ENDBRANCH  26  27
ENDBRANCH  24  26
ENDBRANCH  23  24
ENDBRANCH   4  23
TORSDOF 7
ENDMDL
MODEL 3
REMARK VINA RESULT:      -8.5      1.051      1.818
REMARK  Name = 
REMARK  8 active torsions:
REMARK  status: ('A' for Active; 'I' for Inactive)
REMARK    1  A    between atoms: C_1  and  C_2
REMARK    2  A    between atoms: C_8  and  C_9
REMARK    3  A    between atoms: C_12  and  C_13
REMARK    4  A    between atoms: C_16  and  C_17
REMARK    5  A    between atoms: C_17  and  N_18
REMARK    6  A    between atoms: N_18  and  C_19
REMARK    7  A    between atoms: C_19  and  C_20
REMARK    8  A    between atoms: N_23  and  C_24
REMARK                            x       y       z     vdW  Elec       q    Type
REMARK                         _______ _______ _______ _____ _____    ______ ____
ROOT
ATOM      1  C   UNL     1       0.137  10.349  21.442  0.00  0.00    +0.000 A 
ATOM      2  C   UNL     1      -0.742  10.320  22.535  0.00  0.00    +0.000 A 
ATOM      3  C   UNL     1      -1.390  11.481  22.972  0.00  0.00    +0.000 A 
ATOM      4  C   UNL     1      -1.180  12.705  22.324  0.00  0.00    +0.000 A 
ATOM      5  C   UNL     1      -0.313  12.741  21.229  0.00  0.00    +0.000 A 
ATOM      6  C   UNL     1       0.337  11.578  20.795  0.00  0.00    +0.000 A 
ENDROOT
BRANCH   1  10
ATOM      7  C   UNL     1       2.145   7.504  19.617  0.00  0.00    +0.000 A 
ATOM      8  C   UNL     1       1.686   6.960  20.797  0.00  0.00    +0.000 A 
ATOM      9  C   UNL     1       0.934   7.895  21.571  0.00  0.00    +0.000 A 
ATOM     10  C   UNL     1       0.835   9.138  20.968  0.00  0.00    +0.000 A 
ATOM     11  S   UNL     1       1.644   9.131  19.453  0.00  0.00    +0.000 S 
BRANCH   7  19
ATOM     12  C   UNL     1       3.814   2.646  17.383  0.00  0.00    +0.000 C 
ATOM     13  C   UNL     1       4.265   3.979  16.873  0.00  0.00    +0.000 A 
ATOM     14  C   UNL     1       5.158   4.088  15.791  0.00  0.00    +0.000 A 
ATOM     15  C   UNL     1       5.587   5.329  15.309  0.00  0.00    +0.000 A 
ATOM     16  C   UNL     1       5.139   6.521  15.892  0.00  0.00    +0.000 A 
ATOM     17  C   UNL     1       4.252   6.445  16.973  0.00  0.00    +0.000 A 
ATOM     18  N   UNL     1       3.679   7.454  17.712  0.00  0.00    +0.000 NA
ATOM     19  C   UNL     1       2.933   6.850  18.615  0.00  0.00    +0.000 A 
ATOM     20  N   UNL     1       3.007   5.486  18.473  0.00  0.00    +0.000 N 
ATOM     21  C   UNL     1       3.846   5.196  17.429  0.00  0.00    +0.000 A 
ATOM     22  H   UNL     1       2.525   4.821  19.056  0.00  0.00    +0.000 HD
ENDBRANCH   7  19
ENDBRANCH   1  10
BRANCH   4  23
ATOM     23  C   UNL     1      -1.887  13.952  22.800  0.00  0.00    +0.000 C 
BRANCH  23  24
ATOM     24  N   UNL     1      -3.325  13.724  22.888  0.00  0.00    +0.000 NA
ATOM     25  H   UNL     1      -3.667  14.095  23.776  0.00  0.00    +0.000 HD
BRANCH  24  26
ATOM     26  C   UNL     1      -4.048  14.392  21.808  0.00  0.00    +0.000 C 
BRANCH  26  27
ATOM     27  C   UNL     1      -4.388  13.356  20.790  0.00  0.00    +0.000 A 
ATOM     28  C   UNL     1      -5.629  12.747  20.555  0.00  0.00    +0.000 A 
ATOM     29  N   UNL     1      -5.550  11.927  19.509  0.00  0.00    +0.000 NA
ATOM     30  N   UNL     1      -4.247  12.063  19.132  0.00  0.00    +0.000 N 
ATOM     31  N   UNL     1      -3.494  12.907  19.894  0.00  0.00    +0.000 NA
BRANCH  30  32
ATOM     32  C   UNL     1      -3.709  11.336  18.038  0.00  0.00    +0.000 A 
ATOM     33  C   UNL     1      -2.483  10.669  18.182  0.00  0.00    +0.000 A 
ATOM     34  C   UNL     1      -1.923   9.994  17.097  0.00  0.00    +0.000 A 
ATOM     35  C   UNL     1      -2.580   9.984  15.867  0.00  0.00    +0.000 A 
ATOM     36  C   UNL     1      -3.808  10.631  15.724  0.00  0.00    +0.000 A 
ATOM     37  C   UNL     1      -4.380  11.301  16.809  0.00  0.00    +0.000 A 
ENDBRANCH  30  32
ENDBRANCH  26  27
ENDBRANCH  24  26
ENDBRANCH  23  24
ENDBRANCH   4  23
TORSDOF 7
ENDMDL
MODEL 4
REMARK VINA RESULT:      -8.3      3.466     11.118
REMARK  Name = 
REMARK  8 active torsions:
REMARK  status: ('A' for Active; 'I' for Inactive)
REMARK    1  A    between atoms: C_1  and  C_2
REMARK    2  A    between atoms: C_8  and  C_9
REMARK    3  A    between atoms: C_12  and  C_13
REMARK    4  A    between atoms: C_16  and  C_17
REMARK    5  A    between atoms: C_17  and  N_18
REMARK    6  A    between atoms: N_18  and  C_19
REMARK    7  A    between atoms: C_19  and  C_20
REMARK    8  A    between atoms: N_23  and  C_24
REMARK                            x       y       z     vdW  Elec       q    Type
REMARK                         _______ _______ _______ _____ _____    ______ ____
ROOT
ATOM      1  C   UNL     1       1.237   9.088  19.820  0.00  0.00    +0.000 A 
ATOM      2  C   UNL     1       1.766   8.664  18.592  0.00  0.00    +0.000 A 
ATOM      3  C   UNL     1       2.315   7.386  18.445  0.00  0.00    +0.000 A 
ATOM      4  C   UNL     1       2.348   6.492  19.523  0.00  0.00    +0.000 A 
ATOM      5  C   UNL     1       1.816   6.903  20.749  0.00  0.00    +0.000 A 
ATOM      6  C   UNL     1       1.268   8.185  20.894  0.00  0.00    +0.000 A 
ENDROOT
BRANCH   1  10
ATOM      7  C   UNL     1       0.145  12.865  19.802  0.00  0.00    +0.000 A 
ATOM      8  C   UNL     1      -0.610  12.247  20.774  0.00  0.00    +0.000 A 
ATOM      9  C   UNL     1      -0.316  10.855  20.889  0.00  0.00    +0.000 A 
ATOM     10  C   UNL     1       0.658  10.434  19.999  0.00  0.00    +0.000 A 
ATOM     11  S   UNL     1       1.212  11.757  19.054  0.00  0.00    +0.000 S 
BRANCH   7  19
ATOM     12  C   UNL     1       2.754  17.132  17.280  0.00  0.00    +0.000 C 
ATOM     13  C   UNL     1       1.403  17.258  17.912  0.00  0.00    +0.000 A 
ATOM     14  C   UNL     1       0.704  18.479  17.918  0.00  0.00    +0.000 A 
ATOM     15  C   UNL     1      -0.557  18.607  18.508  0.00  0.00    +0.000 A 
ATOM     16  C   UNL     1      -1.178  17.513  19.122  0.00  0.00    +0.000 A 
ATOM     17  C   UNL     1      -0.506  16.283  19.136  0.00  0.00    +0.000 A 
ATOM     18  N   UNL     1      -0.893  15.077  19.673  0.00  0.00    +0.000 NA
ATOM     19  C   UNL     1       0.099  14.246  19.422  0.00  0.00    +0.000 A 
ATOM     20  N   UNL     1       1.106  14.883  18.739  0.00  0.00    +0.000 N 
ATOM     21  C   UNL     1       0.747  16.190  18.541  0.00  0.00    +0.000 A 
ATOM     22  H   UNL     1       1.967  14.447  18.447  0.00  0.00    +0.000 HD
ENDBRANCH   7  19
ENDBRANCH   1  10
BRANCH   4  23
ATOM     23  C   UNL     1       2.939   5.112  19.355  0.00  0.00    +0.000 C 
BRANCH  23  24
ATOM     24  N   UNL     1       4.387   5.150  19.526  0.00  0.00    +0.000 NA
ATOM     25  H   UNL     1       4.603   5.249  20.519  0.00  0.00    +0.000 HD
BRANCH  24  26
ATOM     26  C   UNL     1       5.023   3.926  19.041  0.00  0.00    +0.000 C 
BRANCH  26  27
ATOM     27  C   UNL     1       5.897   4.301  17.892  0.00  0.00    +0.000 A 
ATOM     28  C   UNL     1       7.183   4.860  17.928  0.00  0.00    +0.000 A 
ATOM     29  N   UNL     1       7.668   4.980  16.694  0.00  0.00    +0.000 NA
ATOM     30  N   UNL     1       6.652   4.484  15.934  0.00  0.00    +0.000 N 
ATOM     31  N   UNL     1       5.544   4.076  16.617  0.00  0.00    +0.000 NA
BRANCH  30  32
ATOM     32  C   UNL     1       6.736   4.436  14.517  0.00  0.00    +0.000 A 
ATOM     33  C   UNL     1       5.921   3.546  13.802  0.00  0.00    +0.000 A 
ATOM     34  C   UNL     1       6.034   3.459  12.414  0.00  0.00    +0.000 A 
ATOM     35  C   UNL     1       6.958   4.252  11.737  0.00  0.00    +0.000 A 
ATOM     36  C   UNL     1       7.758   5.152  12.442  0.00  0.00    +0.000 A 
ATOM     37  C   UNL     1       7.645   5.253  13.831  0.00  0.00    +0.000 A 
ENDBRANCH  30  32
ENDBRANCH  26  27
ENDBRANCH  24  26
ENDBRANCH  23  24
ENDBRANCH   4  23
TORSDOF 7
ENDMDL
MODEL 5
REMARK VINA RESULT:      -8.3      2.537     11.251
REMARK  Name = 
REMARK  8 active torsions:
REMARK  status: ('A' for Active; 'I' for Inactive)
REMARK    1  A    between atoms: C_1  and  C_2
REMARK    2  A    between atoms: C_8  and  C_9
REMARK    3  A    between atoms: C_12  and  C_13
REMARK    4  A    between atoms: C_16  and  C_17
REMARK    5  A    between atoms: C_17  and  N_18
REMARK    6  A    between atoms: N_18  and  C_19
REMARK    7  A    between atoms: C_19  and  C_20
REMARK    8  A    between atoms: N_23  and  C_24
REMARK                            x       y       z     vdW  Elec       q    Type
REMARK                         _______ _______ _______ _____ _____    ______ ____
ROOT
ATOM      1  C   UNL     1       1.522   8.166  19.764  0.00  0.00    +0.000 A 
ATOM      2  C   UNL     1       1.502   7.159  20.740  0.00  0.00    +0.000 A 
ATOM      3  C   UNL     1       2.014   5.885  20.475  0.00  0.00    +0.000 A 
ATOM      4  C   UNL     1       2.565   5.582  19.223  0.00  0.00    +0.000 A 
ATOM      5  C   UNL     1       2.598   6.582  18.246  0.00  0.00    +0.000 A 
ATOM      6  C   UNL     1       2.081   7.857  18.515  0.00  0.00    +0.000 A 
ENDROOT
BRANCH   1  10
ATOM      7  C   UNL     1      -0.141  11.489  21.050  0.00  0.00    +0.000 A 
ATOM      8  C   UNL     1       0.363  11.766  19.798  0.00  0.00    +0.000 A 
ATOM      9  C   UNL     1       1.005  10.635  19.207  0.00  0.00    +0.000 A 
ATOM     10  C   UNL     1       0.982   9.516  20.021  0.00  0.00    +0.000 A 
ATOM     11  S   UNL     1       0.154   9.862  21.486  0.00  0.00    +0.000 S 
BRANCH   7  19
ATOM     12  C   UNL     1      -5.028  13.832  22.462  0.00  0.00    +0.000 C 
ATOM     13  C   UNL     1      -3.742  14.138  23.163  0.00  0.00    +0.000 A 
ATOM     14  C   UNL     1      -3.684  15.056  24.228  0.00  0.00    +0.000 A 
ATOM     15  C   UNL     1      -2.487  15.349  24.888  0.00  0.00    +0.000 A 
ATOM     16  C   UNL     1      -1.287  14.735  24.508  0.00  0.00    +0.000 A 
ATOM     17  C   UNL     1      -1.310  13.820  23.448  0.00  0.00    +0.000 A 
ATOM     18  N   UNL     1      -0.282  13.097  22.888  0.00  0.00    +0.000 NA
ATOM     19  C   UNL     1      -0.833  12.393  21.920  0.00  0.00    +0.000 A 
ATOM     20  N   UNL     1      -2.182  12.639  21.846  0.00  0.00    +0.000 N 
ATOM     21  C   UNL     1      -2.518  13.550  22.813  0.00  0.00    +0.000 A 
ATOM     22  H   UNL     1      -2.807  12.218  21.177  0.00  0.00    +0.000 HD
ENDBRANCH   7  19
ENDBRANCH   1  10
BRANCH   4  23
ATOM     23  C   UNL     1       3.121   4.204  18.946  0.00  0.00    +0.000 C 
BRANCH  23  24
ATOM     24  N   UNL     1       4.496   4.101  19.421  0.00  0.00    +0.000 NA
ATOM     25  H   UNL     1       4.963   3.337  18.928  0.00  0.00    +0.000 HD
BRANCH  24  26
ATOM     26  C   UNL     1       5.249   5.329  19.174  0.00  0.00    +0.000 C 
BRANCH  26  27
ATOM     27  C   UNL     1       6.140   5.081  18.004  0.00  0.00    +0.000 A 
ATOM     28  C   UNL     1       7.514   4.801  18.005  0.00  0.00    +0.000 A 
ATOM     29  N   UNL     1       7.938   4.565  16.765  0.00  0.00    +0.000 NA
ATOM     30  N   UNL     1       6.795   4.708  16.036  0.00  0.00    +0.000 N 
ATOM     31  N   UNL     1       5.678   5.041  16.744  0.00  0.00    +0.000 NA
BRANCH  30  32
ATOM     32  C   UNL     1       6.788   4.556  14.624  0.00  0.00    +0.000 A 
ATOM     33  C   UNL     1       5.872   3.679  14.025  0.00  0.00    +0.000 A 
ATOM     34  C   UNL     1       5.892   3.487  12.643  0.00  0.00    +0.000 A 
ATOM     35  C   UNL     1       6.824   4.163  11.858  0.00  0.00    +0.000 A 
ATOM     36  C   UNL     1       7.725   5.050  12.448  0.00  0.00    +0.000 A 
ATOM     37  C   UNL     1       7.706   5.256  13.830  0.00  0.00    +0.000 A 
ENDBRANCH  30  32
ENDBRANCH  26  27
ENDBRANCH  24  26
ENDBRANCH  23  24
ENDBRANCH   4  23
TORSDOF 7
ENDMDL
MODEL 6
REMARK VINA RESULT:      -8.2      1.628      2.705
REMARK  Name = 
REMARK  8 active torsions:
REMARK  status: ('A' for Active; 'I' for Inactive)
REMARK    1  A    between atoms: C_1  and  C_2
REMARK    2  A    between atoms: C_8  and  C_9
REMARK    3  A    between atoms: C_12  and  C_13
REMARK    4  A    between atoms: C_16  and  C_17
REMARK    5  A    between atoms: C_17  and  N_18
REMARK    6  A    between atoms: N_18  and  C_19
REMARK    7  A    between atoms: C_19  and  C_20
REMARK    8  A    between atoms: N_23  and  C_24
REMARK                            x       y       z     vdW  Elec       q    Type
REMARK                         _______ _______ _______ _____ _____    ______ ____
ROOT
ATOM      1  C   UNL     1       0.125  11.486  21.317  0.00  0.00    +0.000 A 
ATOM      2  C   UNL     1       0.459  12.844  21.207  0.00  0.00    +0.000 A 
ATOM      3  C   UNL     1      -0.119  13.801  22.048  0.00  0.00    +0.000 A 
ATOM      4  C   UNL     1      -1.047  13.425  23.028  0.00  0.00    +0.000 A 
ATOM      5  C   UNL     1      -1.381  12.073  23.150  0.00  0.00    +0.000 A 
ATOM      6  C   UNL     1      -0.802  11.117  22.304  0.00  0.00    +0.000 A 
ENDROOT
BRANCH   1  10
ATOM      7  C   UNL     1       1.724   8.362  19.544  0.00  0.00    +0.000 A 
ATOM      8  C   UNL     1       1.617   9.343  18.582  0.00  0.00    +0.000 A 
ATOM      9  C   UNL     1       1.043  10.546  19.092  0.00  0.00    +0.000 A 
ATOM     10  C   UNL     1       0.718  10.461  20.436  0.00  0.00    +0.000 A 
ATOM     11  S   UNL     1       1.145   8.916  21.054  0.00  0.00    +0.000 S 
BRANCH   7  19
ATOM     12  C   UNL     1       2.211   3.196  21.651  0.00  0.00    +0.000 C 
ATOM     13  C   UNL     1       2.814   3.606  20.345  0.00  0.00    +0.000 A 
ATOM     14  C   UNL     1       3.561   2.705  19.564  0.00  0.00    +0.000 A 
ATOM     15  C   UNL     1       4.130   3.080  18.343  0.00  0.00    +0.000 A 
ATOM     16  C   UNL     1       3.978   4.381  17.848  0.00  0.00    +0.000 A 
ATOM     17  C   UNL     1       3.244   5.303  18.604  0.00  0.00    +0.000 A 
ATOM     18  N   UNL     1       2.959   6.624  18.345  0.00  0.00    +0.000 NA
ATOM     19  C   UNL     1       2.246   7.039  19.372  0.00  0.00    +0.000 A 
ATOM     20  N   UNL     1       2.062   6.024  20.279  0.00  0.00    +0.000 N 
ATOM     21  C   UNL     1       2.691   4.898  19.814  0.00  0.00    +0.000 A 
ATOM     22  H   UNL     1       1.554   6.112  21.144  0.00  0.00    +0.000 HD
ENDBRANCH   7  19
ENDBRANCH   1  10
BRANCH   4  23
ATOM     23  C   UNL     1      -1.663  14.464  23.935  0.00  0.00    +0.000 C 
BRANCH  23  24
ATOM     24  N   UNL     1      -2.633  15.273  23.205  0.00  0.00    +0.000 NA
ATOM     25  H   UNL     1      -2.740  14.895  22.262  0.00  0.00    +0.000 HD
BRANCH  24  26
ATOM     26  C   UNL     1      -3.944  15.263  23.851  0.00  0.00    +0.000 C 
BRANCH  26  27
ATOM     27  C   UNL     1      -4.740  14.164  23.231  0.00  0.00    +0.000 A 
ATOM     28  C   UNL     1      -5.701  13.343  23.838  0.00  0.00    +0.000 A 
ATOM     29  N   UNL     1      -6.247  12.529  22.937  0.00  0.00    +0.000 NA
ATOM     30  N   UNL     1      -5.595  12.883  21.794  0.00  0.00    +0.000 N 
ATOM     31  N   UNL     1      -4.654  13.861  21.927  0.00  0.00    +0.000 NA
BRANCH  30  32
ATOM     32  C   UNL     1      -5.860  12.240  20.556  0.00  0.00    +0.000 A 
ATOM     33  C   UNL     1      -6.827  11.225  20.492  0.00  0.00    +0.000 A 
ATOM     34  C   UNL     1      -7.057  10.555  19.290  0.00  0.00    +0.000 A 
ATOM     35  C   UNL     1      -6.325  10.891  18.153  0.00  0.00    +0.000 A 
ATOM     36  C   UNL     1      -5.375  11.912  18.207  0.00  0.00    +0.000 A 
ATOM     37  C   UNL     1      -5.145  12.594  19.404  0.00  0.00    +0.000 A 
ENDBRANCH  30  32
ENDBRANCH  26  27
ENDBRANCH  24  26
ENDBRANCH  23  24
ENDBRANCH   4  23
TORSDOF 7
ENDMDL
MODEL 7
REMARK VINA RESULT:      -8.1      3.336     11.284
REMARK  Name = 
REMARK  8 active torsions:
REMARK  status: ('A' for Active; 'I' for Inactive)
REMARK    1  A    between atoms: C_1  and  C_2
REMARK    2  A    between atoms: C_8  and  C_9
REMARK    3  A    between atoms: C_12  and  C_13
REMARK    4  A    between atoms: C_16  and  C_17
REMARK    5  A    between atoms: C_17  and  N_18
REMARK    6  A    between atoms: N_18  and  C_19
REMARK    7  A    between atoms: C_19  and  C_20
REMARK    8  A    between atoms: N_23  and  C_24
REMARK                            x       y       z     vdW  Elec       q    Type
REMARK                         _______ _______ _______ _____ _____    ______ ____
ROOT
ATOM      1  C   UNL     1       1.433   9.134  19.252  0.00  0.00    +0.000 A 
ATOM      2  C   UNL     1       1.611   8.182  20.268  0.00  0.00    +0.000 A 
ATOM      3  C   UNL     1       2.245   6.962  20.012  0.00  0.00    +0.000 A 
ATOM      4  C   UNL     1       2.724   6.659  18.731  0.00  0.00    +0.000 A 
ATOM      5  C   UNL     1       2.559   7.604  17.714  0.00  0.00    +0.000 A 
ATOM      6  C   UNL     1       1.921   8.825  17.973  0.00  0.00    +0.000 A 
ENDROOT
BRANCH   1  10
ATOM      7  C   UNL     1       0.133  12.837  19.489  0.00  0.00    +0.000 A 
ATOM      8  C   UNL     1      -0.681  12.086  20.309  0.00  0.00    +0.000 A 
ATOM      9  C   UNL     1      -0.320  10.705  20.317  0.00  0.00    +0.000 A 
ATOM     10  C   UNL     1       0.762  10.425  19.499  0.00  0.00    +0.000 A 
ATOM     11  S   UNL     1       1.332  11.864  18.754  0.00  0.00    +0.000 S 
BRANCH   7  19
ATOM     12  C   UNL     1      -3.010  17.465  19.749  0.00  0.00    +0.000 C 
ATOM     13  C   UNL     1      -1.609  17.457  19.223  0.00  0.00    +0.000 A 
ATOM     14  C   UNL     1      -0.996  18.629  18.745  0.00  0.00    +0.000 A 
ATOM     15  C   UNL     1       0.312  18.631  18.249  0.00  0.00    +0.000 A 
ATOM     16  C   UNL     1       1.066  17.452  18.208  0.00  0.00    +0.000 A 
ATOM     17  C   UNL     1       0.483  16.267  18.673  0.00  0.00    +0.000 A 
ATOM     18  N   UNL     1       1.004  14.995  18.734  0.00  0.00    +0.000 NA
ATOM     19  C   UNL     1       0.046  14.246  19.244  0.00  0.00    +0.000 A 
ATOM     20  N   UNL     1      -1.069  15.000  19.515  0.00  0.00    +0.000 N 
ATOM     21  C   UNL     1      -0.820  16.300  19.160  0.00  0.00    +0.000 A 
ATOM     22  H   UNL     1      -1.926  14.639  19.902  0.00  0.00    +0.000 HD
ENDBRANCH   7  19
ENDBRANCH   1  10
BRANCH   4  23
ATOM     23  C   UNL     1       3.412   5.341  18.464  0.00  0.00    +0.000 C 
BRANCH  23  24
ATOM     24  N   UNL     1       4.440   5.086  19.468  0.00  0.00    +0.000 NA
ATOM     25  H   UNL     1       4.005   4.662  20.290  0.00  0.00    +0.000 HD
BRANCH  24  26
ATOM     26  C   UNL     1       5.467   4.172  18.973  0.00  0.00    +0.000 C 
BRANCH  26  27
ATOM     27  C   UNL     1       5.993   4.737  17.698  0.00  0.00    +0.000 A 
ATOM     28  C   UNL     1       6.702   5.932  17.507  0.00  0.00    +0.000 A 
ATOM     29  N   UNL     1       7.066   6.054  16.232  0.00  0.00    +0.000 NA
ATOM     30  N   UNL     1       6.562   4.917  15.677  0.00  0.00    +0.000 N 
ATOM     31  N   UNL     1       5.883   4.092  16.526  0.00  0.00    +0.000 NA
BRANCH  30  32
ATOM     32  C   UNL     1       6.707   4.636  14.292  0.00  0.00    +0.000 A 
ATOM     33  C   UNL     1       5.827   3.739  13.670  0.00  0.00    +0.000 A 
ATOM     34  C   UNL     1       5.994   3.420  12.321  0.00  0.00    +0.000 A 
ATOM     35  C   UNL     1       7.036   3.991  11.593  0.00  0.00    +0.000 A 
ATOM     36  C   UNL     1       7.903   4.898  12.204  0.00  0.00    +0.000 A 
ATOM     37  C   UNL     1       7.737   5.230  13.551  0.00  0.00    +0.000 A 
ENDBRANCH  30  32
ENDBRANCH  26  27
ENDBRANCH  24  26
ENDBRANCH  23  24
ENDBRANCH   4  23
TORSDOF 7
ENDMDL
MODEL 8
REMARK VINA RESULT:      -8.0      1.109      2.147
REMARK  Name = 
REMARK  8 active torsions:
REMARK  status: ('A' for Active; 'I' for Inactive)
REMARK    1  A    between atoms: C_1  and  C_2
REMARK    2  A    between atoms: C_8  and  C_9
REMARK    3  A    between atoms: C_12  and  C_13
REMARK    4  A    between atoms: C_16  and  C_17
REMARK    5  A    between atoms: C_17  and  N_18
REMARK    6  A    between atoms: N_18  and  C_19
REMARK    7  A    between atoms: C_19  and  C_20
REMARK    8  A    between atoms: N_23  and  C_24
REMARK                            x       y       z     vdW  Elec       q    Type
REMARK                         _______ _______ _______ _____ _____    ______ ____
ROOT
ATOM      1  C   UNL     1      -0.222  11.047  21.347  0.00  0.00    +0.000 A 
ATOM      2  C   UNL     1      -0.055  12.230  20.611  0.00  0.00    +0.000 A 
ATOM      3  C   UNL     1      -0.776  13.386  20.926  0.00  0.00    +0.000 A 
ATOM      4  C   UNL     1      -1.685  13.394  21.992  0.00  0.00    +0.000 A 
ATOM      5  C   UNL     1      -1.853  12.223  22.737  0.00  0.00    +0.000 A 
ATOM      6  C   UNL     1      -1.130  11.065  22.417  0.00  0.00    +0.000 A 
ENDROOT
BRANCH   1  10
ATOM      7  C   UNL     1       1.837   8.045  19.864  0.00  0.00    +0.000 A 
ATOM      8  C   UNL     1       1.523   7.698  21.160  0.00  0.00    +0.000 A 
ATOM      9  C   UNL     1       0.770   8.711  21.827  0.00  0.00    +0.000 A 
ATOM     10  C   UNL     1       0.524   9.815  21.028  0.00  0.00    +0.000 A 
ATOM     11  S   UNL     1       1.201   9.581  19.467  0.00  0.00    +0.000 S 
BRANCH   7  19
ATOM     12  C   UNL     1       2.876   2.971  17.731  0.00  0.00    +0.000 C 
ATOM     13  C   UNL     1       3.573   4.212  17.266  0.00  0.00    +0.000 A 
ATOM     14  C   UNL     1       4.552   4.172  16.257  0.00  0.00    +0.000 A 
ATOM     15  C   UNL     1       5.209   5.326  15.818  0.00  0.00    +0.000 A 
ATOM     16  C   UNL     1       4.914   6.577  16.374  0.00  0.00    +0.000 A 
ATOM     17  C   UNL     1       3.946   6.649  17.383  0.00  0.00    +0.000 A 
ATOM     18  N   UNL     1       3.486   7.741  18.083  0.00  0.00    +0.000 NA
ATOM     19  C   UNL     1       2.585   7.268  18.921  0.00  0.00    +0.000 A 
ATOM     20  N   UNL     1       2.452   5.909  18.776  0.00  0.00    +0.000 N 
ATOM     21  C   UNL     1       3.311   5.483  17.797  0.00  0.00    +0.000 A 
ATOM     22  H   UNL     1       1.826   5.333  19.315  0.00  0.00    +0.000 HD
ENDBRANCH   7  19
ENDBRANCH   1  10
BRANCH   4  23
ATOM     23  C   UNL     1      -2.457  14.649  22.329  0.00  0.00    +0.000 C 
BRANCH  23  24
ATOM     24  N   UNL     1      -3.852  14.331  22.616  0.00  0.00    +0.000 NA
ATOM     25  H   UNL     1      -4.155  14.867  23.431  0.00  0.00    +0.000 HD
BRANCH  24  26
ATOM     26  C   UNL     1      -4.727  14.672  21.496  0.00  0.00    +0.000 C 
BRANCH  26  27
ATOM     27  C   UNL     1      -4.839  13.462  20.631  0.00  0.00    +0.000 A 
ATOM     28  C   UNL     1      -5.872  12.514  20.598  0.00  0.00    +0.000 A 
ATOM     29  N   UNL     1      -5.646  11.621  19.637  0.00  0.00    +0.000 NA
ATOM     30  N   UNL     1      -4.469  12.056  19.107  0.00  0.00    +0.000 N 
ATOM     31  N   UNL     1      -3.928  13.163  19.691  0.00  0.00    +0.000 NA
BRANCH  30  32
ATOM     32  C   UNL     1      -3.835  11.370  18.037  0.00  0.00    +0.000 A 
ATOM     33  C   UNL     1      -4.473  11.283  16.791  0.00  0.00    +0.000 A 
ATOM     34  C   UNL     1      -3.879  10.569  15.750  0.00  0.00    +0.000 A 
ATOM     35  C   UNL     1      -2.652   9.938  15.949  0.00  0.00    +0.000 A 
ATOM     36  C   UNL     1      -2.005  10.036  17.181  0.00  0.00    +0.000 A 
ATOM     37  C   UNL     1      -2.589  10.758  18.226  0.00  0.00    +0.000 A 
ENDBRANCH  30  32
ENDBRANCH  26  27
ENDBRANCH  24  26
ENDBRANCH  23  24
ENDBRANCH   4  23
TORSDOF 7
ENDMDL
MODEL 9
REMARK VINA RESULT:      -8.0      0.984      2.057
REMARK  Name = 
REMARK  8 active torsions:
REMARK  status: ('A' for Active; 'I' for Inactive)
REMARK    1  A    between atoms: C_1  and  C_2
REMARK    2  A    between atoms: C_8  and  C_9
REMARK    3  A    between atoms: C_12  and  C_13
REMARK    4  A    between atoms: C_16  and  C_17
REMARK    5  A    between atoms: C_17  and  N_18
REMARK    6  A    between atoms: N_18  and  C_19
REMARK    7  A    between atoms: C_19  and  C_20
REMARK    8  A    between atoms: N_23  and  C_24
REMARK                            x       y       z     vdW  Elec       q    Type
REMARK                         _______ _______ _______ _____ _____    ______ ____
ROOT
ATOM      1  C   UNL     1      -0.045  11.036  20.924  0.00  0.00    +0.000 A 
ATOM      2  C   UNL     1      -0.324  12.409  20.850  0.00  0.00    +0.000 A 
ATOM      3  C   UNL     1      -1.102  13.043  21.825  0.00  0.00    +0.000 A 
ATOM      4  C   UNL     1      -1.622  12.320  22.906  0.00  0.00    +0.000 A 
ATOM      5  C   UNL     1      -1.342  10.953  22.994  0.00  0.00    +0.000 A 
ATOM      6  C   UNL     1      -0.564  10.320  22.014  0.00  0.00    +0.000 A 
ENDROOT
BRANCH   1  10
ATOM      7  C   UNL     1       2.090   8.655  18.637  0.00  0.00    +0.000 A 
ATOM      8  C   UNL     1       2.042   9.872  17.994  0.00  0.00    +0.000 A 
ATOM      9  C   UNL     1       1.287  10.843  18.719  0.00  0.00    +0.000 A 
ATOM     10  C   UNL     1       0.769  10.347  19.904  0.00  0.00    +0.000 A 
ATOM     11  S   UNL     1       1.237   8.708  20.118  0.00  0.00    +0.000 S 
BRANCH   7  19
ATOM     12  C   UNL     1       1.924   3.076  18.169  0.00  0.00    +0.000 C 
ATOM     13  C   UNL     1       3.071   3.904  17.681  0.00  0.00    +0.000 A 
ATOM     14  C   UNL     1       4.197   3.316  17.076  0.00  0.00    +0.000 A 
ATOM     15  C   UNL     1       5.275   4.081  16.619  0.00  0.00    +0.000 A 
ATOM     16  C   UNL     1       5.274   5.475  16.749  0.00  0.00    +0.000 A 
ATOM     17  C   UNL     1       4.168   6.091  17.350  0.00  0.00    +0.000 A 
ATOM     18  N   UNL     1       3.930   7.423  17.597  0.00  0.00    +0.000 NA
ATOM     19  C   UNL     1       2.752   7.467  18.187  0.00  0.00    +0.000 A 
ATOM     20  N   UNL     1       2.228   6.205  18.322  0.00  0.00    +0.000 N 
ATOM     21  C   UNL     1       3.113   5.301  17.794  0.00  0.00    +0.000 A 
ATOM     22  H   UNL     1       1.341   5.994  18.749  0.00  0.00    +0.000 HD
ENDBRANCH   7  19
ENDBRANCH   1  10
BRANCH   4  23
ATOM     23  C   UNL     1      -2.457  13.012  23.957  0.00  0.00    +0.000 C 
BRANCH  23  24
ATOM     24  N   UNL     1      -3.670  12.250  24.233  0.00  0.00    +0.000 NA
ATOM     25  H   UNL     1      -3.610  11.856  25.173  0.00  0.00    +0.000 HD
BRANCH  24  26
ATOM     26  C   UNL     1      -4.865  13.088  24.167  0.00  0.00    +0.000 C 
BRANCH  26  27
ATOM     27  C   UNL     1      -5.307  13.127  22.743  0.00  0.00    +0.000 A 
ATOM     28  C   UNL     1      -6.382  13.837  22.189  0.00  0.00    +0.000 A 
ATOM     29  N   UNL     1      -6.408  13.676  20.867  0.00  0.00    +0.000 NA
ATOM     30  N   UNL     1      -5.336  12.863  20.653  0.00  0.00    +0.000 N 
ATOM     31  N   UNL     1      -4.646  12.486  21.767  0.00  0.00    +0.000 NA
BRANCH  30  32
ATOM     32  C   UNL     1      -4.992  12.412  19.351  0.00  0.00    +0.000 A 
ATOM     33  C   UNL     1      -5.945  12.463  18.323  0.00  0.00    +0.000 A 
ATOM     34  C   UNL     1      -5.630  11.976  17.054  0.00  0.00    +0.000 A 
ATOM     35  C   UNL     1      -4.368  11.436  16.808  0.00  0.00    +0.000 A 
ATOM     36  C   UNL     1      -3.411  11.401  17.822  0.00  0.00    +0.000 A 
ATOM     37  C   UNL     1      -3.715  11.895  19.093  0.00  0.00    +0.000 A 
ENDBRANCH  30  32
ENDBRANCH  26  27
ENDBRANCH  24  26
ENDBRANCH  23  24
ENDBRANCH   4  23
TORSDOF 7
ENDMDL
