MODEL 1
REMARK VINA RESULT:      -9.1      0.000      0.000
REMARK  Name = 
REMARK  5 active torsions:
REMARK  status: ('A' for Active; 'I' for Inactive)
REMARK    1  A    between atoms: C_1  and  N_2
REMARK    2  A    between atoms: N_2  and  C_3
REMARK    3  A    between atoms: C_10  and  N_11
REMARK    4  A    between atoms: C_16  and  C_17
REMARK    5  A    between atoms: C_20  and  C_21
REMARK                            x       y       z     vdW  Elec       q    Type
REMARK                         _______ _______ _______ _____ _____    ______ ____
ROOT
ATOM      1  N   UNL     1      -0.264  11.155  20.559  0.00  0.00    +0.000 N 
ATOM      2  N   UNL     1       0.064  11.552  19.274  0.00  0.00    +0.000 NA
ATOM      3  C   UNL     1       0.789  10.764  18.547  0.00  0.00    +0.000 A 
ATOM      4  C   UNL     1       1.296   9.477  18.999  0.00  0.00    +0.000 A 
ATOM      5  C   UNL     1       2.097   8.680  18.185  0.00  0.00    +0.000 A 
ATOM      6  C   UNL     1       2.586   7.448  18.661  0.00  0.00    +0.000 A 
ATOM      7  C   UNL     1       2.219   7.042  19.958  0.00  0.00    +0.000 A 
ATOM      8  C   UNL     1       1.414   7.843  20.761  0.00  0.00    +0.000 A 
ATOM      9  C   UNL     1       0.967   9.072  20.277  0.00  0.00    +0.000 A 
ATOM     10  C   UNL     1       0.181   9.958  21.134  0.00  0.00    +0.000 A 
ATOM     11  O   UNL     1       0.020   9.580  22.293  0.00  0.00    +0.000 OA
ENDROOT
BRANCH   1  19
ATOM     12  C   UNL     1      -5.299  16.029  24.066  0.00  0.00    +0.000 C 
ATOM     13  C   UNL     1      -4.088  16.281  24.971  0.00  0.00    +0.000 C 
ATOM     14  C   UNL     1      -2.878  16.053  24.082  0.00  0.00    +0.000 C 
ATOM     15  N   UNL     1      -3.331  15.032  23.160  0.00  0.00    +0.000 N 
ATOM     16  C   UNL     1      -2.560  14.074  22.571  0.00  0.00    +0.000 A 
ATOM     17  C   UNL     1      -1.188  14.031  22.756  0.00  0.00    +0.000 A 
ATOM     18  C   UNL     1      -0.426  13.044  22.138  0.00  0.00    +0.000 A 
ATOM     19  C   UNL     1      -1.024  12.111  21.298  0.00  0.00    +0.000 A 
ATOM     20  C   UNL     1      -2.407  12.193  21.200  0.00  0.00    +0.000 A 
ATOM     21  N   UNL     1      -3.172  13.142  21.806  0.00  0.00    +0.000 NA
ATOM     22  C   UNL     1      -4.778  15.029  22.999  0.00  0.00    +0.000 C 
BRANCH  12  24
ATOM     23  C   UNL     1      -5.873  17.461  22.132  0.00  0.00    +0.000 C 
ATOM     24  N   UNL     1      -5.971  17.244  23.567  0.00  0.00    +0.000 NA
ATOM     25  H   UNL     1      -6.958  17.186  23.818  0.00  0.00    +0.000 HD
ENDBRANCH  12  24
ENDBRANCH   1  19
BRANCH   6  26
ATOM     26  C   UNL     1       3.450   6.597  17.826  0.00  0.00    +0.000 A 
ATOM     27  C   UNL     1       4.454   7.155  17.018  0.00  0.00    +0.000 A 
ATOM     28  C   UNL     1       5.241   6.354  16.192  0.00  0.00    +0.000 A 
ATOM     29  C   UNL     1       5.057   4.966  16.159  0.00  0.00    +0.000 A 
ATOM     30  C   UNL     1       4.091   4.393  16.995  0.00  0.00    +0.000 A 
ATOM     31  C   UNL     1       3.297   5.201  17.813  0.00  0.00    +0.000 A 
BRANCH  29  32
ATOM     32  C   UNL     1       5.864   4.090  15.237  0.00  0.00    +0.000 C 
ATOM     33  F   UNL     1       5.365   4.028  13.972  0.00  0.00    +0.000 F 
ATOM     34  F   UNL     1       7.153   4.509  15.112  0.00  0.00    +0.000 F 
ATOM     35  F   UNL     1       5.927   2.803  15.677  0.00  0.00    +0.000 F 
ENDBRANCH  29  32
ENDBRANCH   6  26
TORSDOF 4
ENDMDL
MODEL 2
REMARK VINA RESULT:      -9.1      0.162      1.083
REMARK  Name = 
REMARK  5 active torsions:
REMARK  status: ('A' for Active; 'I' for Inactive)
REMARK    1  A    between atoms: C_1  and  N_2
REMARK    2  A    between atoms: N_2  and  C_3
REMARK    3  A    between atoms: C_10  and  N_11
REMARK    4  A    between atoms: C_16  and  C_17
REMARK    5  A    between atoms: C_20  and  C_21
REMARK                            x       y       z     vdW  Elec       q    Type
REMARK                         _______ _______ _______ _____ _____    ______ ____
ROOT
ATOM      1  N   UNL     1      -0.278  11.194  20.555  0.00  0.00    +0.000 N 
ATOM      2  N   UNL     1       0.009  11.576  19.255  0.00  0.00    +0.000 NA
ATOM      3  C   UNL     1       0.722  10.785  18.520  0.00  0.00    +0.000 A 
ATOM      4  C   UNL     1       1.255   9.510  18.975  0.00  0.00    +0.000 A 
ATOM      5  C   UNL     1       2.040   8.710  18.149  0.00  0.00    +0.000 A 
ATOM      6  C   UNL     1       2.555   7.490  18.628  0.00  0.00    +0.000 A 
ATOM      7  C   UNL     1       2.231   7.098  19.940  0.00  0.00    +0.000 A 
ATOM      8  C   UNL     1       1.441   7.903  20.755  0.00  0.00    +0.000 A 
ATOM      9  C   UNL     1       0.967   9.120  20.267  0.00  0.00    +0.000 A 
ATOM     10  C   UNL     1       0.197  10.010  21.134  0.00  0.00    +0.000 A 
ATOM     11  O   UNL     1       0.073   9.647  22.302  0.00  0.00    +0.000 OA
ENDROOT
BRANCH   1  19
ATOM     12  C   UNL     1      -5.252  16.105  24.098  0.00  0.00    +0.000 C 
ATOM     13  C   UNL     1      -4.042  16.326  25.012  0.00  0.00    +0.000 C 
ATOM     14  C   UNL     1      -2.831  16.089  24.126  0.00  0.00    +0.000 C 
ATOM     15  N   UNL     1      -3.295  15.087  23.190  0.00  0.00    +0.000 N 
ATOM     16  C   UNL     1      -2.537  14.124  22.593  0.00  0.00    +0.000 A 
ATOM     17  C   UNL     1      -1.167  14.057  22.784  0.00  0.00    +0.000 A 
ATOM     18  C   UNL     1      -0.417  13.066  22.157  0.00  0.00    +0.000 A 
ATOM     19  C   UNL     1      -1.026  12.153  21.302  0.00  0.00    +0.000 A 
ATOM     20  C   UNL     1      -2.407  12.259  21.198  0.00  0.00    +0.000 A 
ATOM     21  N   UNL     1      -3.159  13.212  21.812  0.00  0.00    +0.000 NA
ATOM     22  C   UNL     1      -4.742  15.110  23.021  0.00  0.00    +0.000 C 
BRANCH  12  24
ATOM     23  C   UNL     1      -5.980  17.464  22.164  0.00  0.00    +0.000 C 
ATOM     24  N   UNL     1      -5.902  17.336  23.611  0.00  0.00    +0.000 NA
ATOM     25  H   UNL     1      -6.849  17.366  23.990  0.00  0.00    +0.000 HD
ENDBRANCH  12  24
ENDBRANCH   1  19
BRANCH   6  26
ATOM     26  C   UNL     1       3.405   6.636  17.780  0.00  0.00    +0.000 A 
ATOM     27  C   UNL     1       3.287   5.237  17.810  0.00  0.00    +0.000 A 
ATOM     28  C   UNL     1       4.123   4.429  17.042  0.00  0.00    +0.000 A 
ATOM     29  C   UNL     1       5.095   4.995  16.208  0.00  0.00    +0.000 A 
ATOM     30  C   UNL     1       5.191   6.390  16.134  0.00  0.00    +0.000 A 
ATOM     31  C   UNL     1       4.359   7.196  16.914  0.00  0.00    +0.000 A 
BRANCH  29  32
ATOM     32  C   UNL     1       6.040   4.136  15.409  0.00  0.00    +0.000 C 
ATOM     33  F   UNL     1       7.353   4.407  15.646  0.00  0.00    +0.000 F 
ATOM     34  F   UNL     1       5.879   2.808  15.660  0.00  0.00    +0.000 F 
ATOM     35  F   UNL     1       5.863   4.290  14.068  0.00  0.00    +0.000 F 
ENDBRANCH  29  32
ENDBRANCH   6  26
TORSDOF 4
ENDMDL
MODEL 3
REMARK VINA RESULT:      -8.7      1.184      1.769
REMARK  Name = 
REMARK  5 active torsions:
REMARK  status: ('A' for Active; 'I' for Inactive)
REMARK    1  A    between atoms: C_1  and  N_2
REMARK    2  A    between atoms: N_2  and  C_3
REMARK    3  A    between atoms: C_10  and  N_11
REMARK    4  A    between atoms: C_16  and  C_17
REMARK    5  A    between atoms: C_20  and  C_21
REMARK                            x       y       z     vdW  Elec       q    Type
REMARK                         _______ _______ _______ _____ _____    ______ ____
ROOT
ATOM      1  N   UNL     1       0.052  11.166  20.655  0.00  0.00    +0.000 N 
ATOM      2  N   UNL     1       0.406  11.596  19.387  0.00  0.00    +0.000 NA
ATOM      3  C   UNL     1       1.092  10.801  18.632  0.00  0.00    +0.000 A 
ATOM      4  C   UNL     1       1.530   9.473  19.033  0.00  0.00    +0.000 A 
ATOM      5  C   UNL     1       2.291   8.667  18.190  0.00  0.00    +0.000 A 
ATOM      6  C   UNL     1       2.714   7.394  18.618  0.00  0.00    +0.000 A 
ATOM      7  C   UNL     1       2.322   6.957  19.897  0.00  0.00    +0.000 A 
ATOM      8  C   UNL     1       1.556   7.767  20.730  0.00  0.00    +0.000 A 
ATOM      9  C   UNL     1       1.176   9.035  20.294  0.00  0.00    +0.000 A 
ATOM     10  C   UNL     1       0.433   9.927  21.183  0.00  0.00    +0.000 A 
ATOM     11  O   UNL     1       0.248   9.512  22.326  0.00  0.00    +0.000 OA
ENDROOT
BRANCH   1  19
ATOM     12  C   UNL     1      -3.165  17.195  24.491  0.00  0.00    +0.000 C 
ATOM     13  C   UNL     1      -4.244  16.148  24.790  0.00  0.00    +0.000 C 
ATOM     14  C   UNL     1      -3.509  14.819  24.804  0.00  0.00    +0.000 C 
ATOM     15  N   UNL     1      -2.448  15.016  23.839  0.00  0.00    +0.000 N 
ATOM     16  C   UNL     1      -1.885  14.059  23.048  0.00  0.00    +0.000 A 
ATOM     17  C   UNL     1      -2.248  12.726  23.151  0.00  0.00    +0.000 A 
ATOM     18  C   UNL     1      -1.653  11.770  22.334  0.00  0.00    +0.000 A 
ATOM     19  C   UNL     1      -0.660  12.131  21.430  0.00  0.00    +0.000 A 
ATOM     20  C   UNL     1      -0.384  13.491  21.355  0.00  0.00    +0.000 A 
ATOM     21  N   UNL     1      -0.964  14.443  22.135  0.00  0.00    +0.000 NA
ATOM     22  C   UNL     1      -2.094  16.419  23.679  0.00  0.00    +0.000 C 
BRANCH  12  24
ATOM     23  C   UNL     1      -1.376  17.578  26.155  0.00  0.00    +0.000 C 
ATOM     24  N   UNL     1      -2.691  17.957  25.662  0.00  0.00    +0.000 NA
ATOM     25  H   UNL     1      -2.669  18.945  25.409  0.00  0.00    +0.000 HD
ENDBRANCH  12  24
ENDBRANCH   1  19
BRANCH   6  26
ATOM     26  C   UNL     1       3.536   6.533  17.751  0.00  0.00    +0.000 A 
ATOM     27  C   UNL     1       4.480   7.082  16.869  0.00  0.00    +0.000 A 
ATOM     28  C   UNL     1       5.225   6.270  16.016  0.00  0.00    +0.000 A 
ATOM     29  C   UNL     1       5.058   4.879  16.028  0.00  0.00    +0.000 A 
ATOM     30  C   UNL     1       4.154   4.317  16.937  0.00  0.00    +0.000 A 
ATOM     31  C   UNL     1       3.401   5.135  17.782  0.00  0.00    +0.000 A 
BRANCH  29  32
ATOM     32  C   UNL     1       5.818   3.991  15.079  0.00  0.00    +0.000 C 
ATOM     33  F   UNL     1       7.121   4.353  14.920  0.00  0.00    +0.000 F 
ATOM     34  F   UNL     1       5.837   2.690  15.480  0.00  0.00    +0.000 F 
ATOM     35  F   UNL     1       5.276   3.992  13.830  0.00  0.00    +0.000 F 
ENDBRANCH  29  32
ENDBRANCH   6  26
TORSDOF 4
ENDMDL
MODEL 4
REMARK VINA RESULT:      -8.7      1.312      1.969
REMARK  Name = 
REMARK  5 active torsions:
REMARK  status: ('A' for Active; 'I' for Inactive)
REMARK    1  A    between atoms: C_1  and  N_2
REMARK    2  A    between atoms: N_2  and  C_3
REMARK    3  A    between atoms: C_10  and  N_11
REMARK    4  A    between atoms: C_16  and  C_17
REMARK    5  A    between atoms: C_20  and  C_21
REMARK                            x       y       z     vdW  Elec       q    Type
REMARK                         _______ _______ _______ _____ _____    ______ ____
ROOT
ATOM      1  N   UNL     1       0.174  11.236  20.690  0.00  0.00    +0.000 N 
ATOM      2  N   UNL     1       0.536  11.679  19.429  0.00  0.00    +0.000 NA
ATOM      3  C   UNL     1       1.194  10.877  18.655  0.00  0.00    +0.000 A 
ATOM      4  C   UNL     1       1.590   9.528  19.029  0.00  0.00    +0.000 A 
ATOM      5  C   UNL     1       2.323   8.715  18.167  0.00  0.00    +0.000 A 
ATOM      6  C   UNL     1       2.706   7.421  18.569  0.00  0.00    +0.000 A 
ATOM      7  C   UNL     1       2.304   6.971  19.841  0.00  0.00    +0.000 A 
ATOM      8  C   UNL     1       1.568   7.789  20.692  0.00  0.00    +0.000 A 
ATOM      9  C   UNL     1       1.227   9.078  20.282  0.00  0.00    +0.000 A 
ATOM     10  C   UNL     1       0.517   9.974  21.193  0.00  0.00    +0.000 A 
ATOM     11  O   UNL     1       0.322   9.544  22.328  0.00  0.00    +0.000 OA
ENDROOT
BRANCH   1  19
ATOM     12  C   UNL     1      -2.807  17.279  24.691  0.00  0.00    +0.000 C 
ATOM     13  C   UNL     1      -3.949  16.283  24.921  0.00  0.00    +0.000 C 
ATOM     14  C   UNL     1      -3.290  14.915  24.898  0.00  0.00    +0.000 C 
ATOM     15  N   UNL     1      -2.194  15.090  23.968  0.00  0.00    +0.000 N 
ATOM     16  C   UNL     1      -1.664  14.135  23.152  0.00  0.00    +0.000 A 
ATOM     17  C   UNL     1      -2.103  12.822  23.191  0.00  0.00    +0.000 A 
ATOM     18  C   UNL     1      -1.540  11.867  22.350  0.00  0.00    +0.000 A 
ATOM     19  C   UNL     1      -0.504  12.207  21.486  0.00  0.00    +0.000 A 
ATOM     20  C   UNL     1      -0.152  13.551  21.474  0.00  0.00    +0.000 A 
ATOM     21  N   UNL     1      -0.698  14.502  22.278  0.00  0.00    +0.000 NA
ATOM     22  C   UNL     1      -1.759  16.477  23.875  0.00  0.00    +0.000 C 
BRANCH  12  24
ATOM     23  C   UNL     1      -1.080  17.445  26.455  0.00  0.00    +0.000 C 
ATOM     24  N   UNL     1      -2.322  17.965  25.904  0.00  0.00    +0.000 NA
ATOM     25  H   UNL     1      -2.188  18.951  25.678  0.00  0.00    +0.000 HD
ENDBRANCH  12  24
ENDBRANCH   1  19
BRANCH   6  26
ATOM     26  C   UNL     1       3.497   6.551  17.682  0.00  0.00    +0.000 A 
ATOM     27  C   UNL     1       3.372   5.154  17.736  0.00  0.00    +0.000 A 
ATOM     28  C   UNL     1       4.155   4.330  16.929  0.00  0.00    +0.000 A 
ATOM     29  C   UNL     1       5.080   4.880  16.032  0.00  0.00    +0.000 A 
ATOM     30  C   UNL     1       5.181   6.273  15.936  0.00  0.00    +0.000 A 
ATOM     31  C   UNL     1       4.402   7.095  16.755  0.00  0.00    +0.000 A 
BRANCH  29  32
ATOM     32  C   UNL     1       5.970   4.005  15.189  0.00  0.00    +0.000 C 
ATOM     33  F   UNL     1       5.711   4.091  13.855  0.00  0.00    +0.000 F 
ATOM     34  F   UNL     1       7.290   4.303  15.336  0.00  0.00    +0.000 F 
ATOM     35  F   UNL     1       5.844   2.687  15.509  0.00  0.00    +0.000 F 
ENDBRANCH  29  32
ENDBRANCH   6  26
TORSDOF 4
ENDMDL
MODEL 5
REMARK VINA RESULT:      -8.6      1.970      2.905
REMARK  Name = 
REMARK  5 active torsions:
REMARK  status: ('A' for Active; 'I' for Inactive)
REMARK    1  A    between atoms: C_1  and  N_2
REMARK    2  A    between atoms: N_2  and  C_3
REMARK    3  A    between atoms: C_10  and  N_11
REMARK    4  A    between atoms: C_16  and  C_17
REMARK    5  A    between atoms: C_20  and  C_21
REMARK                            x       y       z     vdW  Elec       q    Type
REMARK                         _______ _______ _______ _____ _____    ______ ____
ROOT
ATOM      1  N   UNL     1      -0.726  11.875  22.489  0.00  0.00    +0.000 N 
ATOM      2  N   UNL     1      -0.624  10.850  23.414  0.00  0.00    +0.000 NA
ATOM      3  C   UNL     1      -0.062   9.742  23.052  0.00  0.00    +0.000 A 
ATOM      4  C   UNL     1       0.468   9.495  21.720  0.00  0.00    +0.000 A 
ATOM      5  C   UNL     1       1.038   8.273  21.374  0.00  0.00    +0.000 A 
ATOM      6  C   UNL     1       1.526   8.062  20.070  0.00  0.00    +0.000 A 
ATOM      7  C   UNL     1       1.444   9.123  19.148  0.00  0.00    +0.000 A 
ATOM      8  C   UNL     1       0.877  10.342  19.505  0.00  0.00    +0.000 A 
ATOM      9  C   UNL     1       0.376  10.516  20.795  0.00  0.00    +0.000 A 
ATOM     10  C   UNL     1      -0.288  11.765  21.164  0.00  0.00    +0.000 A 
ATOM     11  O   UNL     1      -0.430  12.585  20.259  0.00  0.00    +0.000 OA
ENDROOT
BRANCH   1  19
ATOM     12  C   UNL     1      -5.363  17.676  24.992  0.00  0.00    +0.000 C 
ATOM     13  C   UNL     1      -4.016  18.291  25.385  0.00  0.00    +0.000 C 
ATOM     14  C   UNL     1      -3.022  17.740  24.377  0.00  0.00    +0.000 C 
ATOM     15  N   UNL     1      -3.551  16.427  24.073  0.00  0.00    +0.000 N 
ATOM     16  C   UNL     1      -2.828  15.324  23.726  0.00  0.00    +0.000 A 
ATOM     17  C   UNL     1      -1.454  15.380  23.556  0.00  0.00    +0.000 A 
ATOM     18  C   UNL     1      -0.743  14.240  23.196  0.00  0.00    +0.000 A 
ATOM     19  C   UNL     1      -1.404  13.037  22.967  0.00  0.00    +0.000 A 
ATOM     20  C   UNL     1      -2.773  13.052  23.202  0.00  0.00    +0.000 A 
ATOM     21  N   UNL     1      -3.485  14.152  23.566  0.00  0.00    +0.000 NA
ATOM     22  C   UNL     1      -4.986  16.338  24.302  0.00  0.00    +0.000 C 
BRANCH  12  24
ATOM     23  C   UNL     1      -7.278  17.907  23.442  0.00  0.00    +0.000 C 
ATOM     24  N   UNL     1      -6.269  18.574  24.250  0.00  0.00    +0.000 NA
ATOM     25  H   UNL     1      -6.741  19.176  24.926  0.00  0.00    +0.000 HD
ENDBRANCH  12  24
ENDBRANCH   1  19
BRANCH   6  26
ATOM     26  C   UNL     1       2.115   6.771  19.675  0.00  0.00    +0.000 A 
ATOM     27  C   UNL     1       1.897   5.612  20.437  0.00  0.00    +0.000 A 
ATOM     28  C   UNL     1       2.493   4.401  20.089  0.00  0.00    +0.000 A 
ATOM     29  C   UNL     1       3.315   4.308  18.959  0.00  0.00    +0.000 A 
ATOM     30  C   UNL     1       3.502   5.446  18.166  0.00  0.00    +0.000 A 
ATOM     31  C   UNL     1       2.912   6.661  18.524  0.00  0.00    +0.000 A 
BRANCH  29  32
ATOM     32  C   UNL     1       4.007   3.020  18.597  0.00  0.00    +0.000 C 
ATOM     33  F   UNL     1       4.510   3.011  17.332  0.00  0.00    +0.000 F 
ATOM     34  F   UNL     1       5.054   2.739  19.420  0.00  0.00    +0.000 F 
ATOM     35  F   UNL     1       3.169   1.950  18.673  0.00  0.00    +0.000 F 
ENDBRANCH  29  32
ENDBRANCH   6  26
TORSDOF 4
ENDMDL
MODEL 6
REMARK VINA RESULT:      -8.5      0.900      1.354
REMARK  Name = 
REMARK  5 active torsions:
REMARK  status: ('A' for Active; 'I' for Inactive)
REMARK    1  A    between atoms: C_1  and  N_2
REMARK    2  A    between atoms: N_2  and  C_3
REMARK    3  A    between atoms: C_10  and  N_11
REMARK    4  A    between atoms: C_16  and  C_17
REMARK    5  A    between atoms: C_20  and  C_21
REMARK                            x       y       z     vdW  Elec       q    Type
REMARK                         _______ _______ _______ _____ _____    ______ ____
ROOT
ATOM      1  N   UNL     1      -0.507  11.143  20.374  0.00  0.00    +0.000 N 
ATOM      2  N   UNL     1      -0.261  11.448  19.045  0.00  0.00    +0.000 NA
ATOM      3  C   UNL     1       0.488  10.651  18.355  0.00  0.00    +0.000 A 
ATOM      4  C   UNL     1       1.104   9.446  18.889  0.00  0.00    +0.000 A 
ATOM      5  C   UNL     1       1.925   8.637  18.108  0.00  0.00    +0.000 A 
ATOM      6  C   UNL     1       2.520   7.486  18.662  0.00  0.00    +0.000 A 
ATOM      7  C   UNL     1       2.237   7.171  20.004  0.00  0.00    +0.000 A 
ATOM      8  C   UNL     1       1.410   7.983  20.774  0.00  0.00    +0.000 A 
ATOM      9  C   UNL     1       0.857   9.132  20.210  0.00  0.00    +0.000 A 
ATOM     10  C   UNL     1       0.046  10.034  21.025  0.00  0.00    +0.000 A 
ATOM     11  O   UNL     1      -0.041   9.748  22.218  0.00  0.00    +0.000 OA
ENDROOT
BRANCH   1  19
ATOM     12  C   UNL     1      -4.472  17.158  23.458  0.00  0.00    +0.000 C 
ATOM     13  C   UNL     1      -5.180  16.024  24.208  0.00  0.00    +0.000 C 
ATOM     14  C   UNL     1      -4.138  14.928  24.340  0.00  0.00    +0.000 C 
ATOM     15  N   UNL     1      -3.340  15.083  23.141  0.00  0.00    +0.000 N 
ATOM     16  C   UNL     1      -2.691  14.091  22.467  0.00  0.00    +0.000 A 
ATOM     17  C   UNL     1      -2.678  12.786  22.931  0.00  0.00    +0.000 A 
ATOM     18  C   UNL     1      -2.004  11.795  22.225  0.00  0.00    +0.000 A 
ATOM     19  C   UNL     1      -1.302  12.107  21.064  0.00  0.00    +0.000 A 
ATOM     20  C   UNL     1      -1.401  13.426  20.641  0.00  0.00    +0.000 A 
ATOM     21  N   UNL     1      -2.066  14.406  21.310  0.00  0.00    +0.000 NA
ATOM     22  C   UNL     1      -3.390  16.438  22.611  0.00  0.00    +0.000 C 
BRANCH  12  24
ATOM     23  C   UNL     1      -2.587  18.327  24.553  0.00  0.00    +0.000 C 
ATOM     24  N   UNL     1      -4.019  18.280  24.302  0.00  0.00    +0.000 NA
ATOM     25  H   UNL     1      -4.297  19.150  23.848  0.00  0.00    +0.000 HD
ENDBRANCH  12  24
ENDBRANCH   1  19
BRANCH   6  26
ATOM     26  C   UNL     1       3.408   6.627  17.861  0.00  0.00    +0.000 A 
ATOM     27  C   UNL     1       4.421   7.177  17.060  0.00  0.00    +0.000 A 
ATOM     28  C   UNL     1       5.231   6.366  16.267  0.00  0.00    +0.000 A 
ATOM     29  C   UNL     1       5.061   4.976  16.260  0.00  0.00    +0.000 A 
ATOM     30  C   UNL     1       4.085   4.412  17.090  0.00  0.00    +0.000 A 
ATOM     31  C   UNL     1       3.268   5.229  17.875  0.00  0.00    +0.000 A 
BRANCH  29  32
ATOM     32  C   UNL     1       5.893   4.089  15.372  0.00  0.00    +0.000 C 
ATOM     33  F   UNL     1       5.907   2.785  15.765  0.00  0.00    +0.000 F 
ATOM     34  F   UNL     1       5.462   4.087  14.081  0.00  0.00    +0.000 F 
ATOM     35  F   UNL     1       7.197   4.481  15.333  0.00  0.00    +0.000 F 
ENDBRANCH  29  32
ENDBRANCH   6  26
TORSDOF 4
ENDMDL
MODEL 7
REMARK VINA RESULT:      -8.5      0.940      1.664
REMARK  Name = 
REMARK  5 active torsions:
REMARK  status: ('A' for Active; 'I' for Inactive)
REMARK    1  A    between atoms: C_1  and  N_2
REMARK    2  A    between atoms: N_2  and  C_3
REMARK    3  A    between atoms: C_10  and  N_11
REMARK    4  A    between atoms: C_16  and  C_17
REMARK    5  A    between atoms: C_20  and  C_21
REMARK                            x       y       z     vdW  Elec       q    Type
REMARK                         _______ _______ _______ _____ _____    ______ ____
ROOT
ATOM      1  N   UNL     1      -0.480  11.343  20.088  0.00  0.00    +0.000 N 
ATOM      2  N   UNL     1      -0.152  11.636  18.774  0.00  0.00    +0.000 NA
ATOM      3  C   UNL     1       0.621  10.822  18.132  0.00  0.00    +0.000 A 
ATOM      4  C   UNL     1       1.182   9.608  18.705  0.00  0.00    +0.000 A 
ATOM      5  C   UNL     1       2.032   8.780  17.976  0.00  0.00    +0.000 A 
ATOM      6  C   UNL     1       2.572   7.622  18.569  0.00  0.00    +0.000 A 
ATOM      7  C   UNL     1       2.206   7.319  19.894  0.00  0.00    +0.000 A 
ATOM      8  C   UNL     1       1.352   8.150  20.612  0.00  0.00    +0.000 A 
ATOM      9  C   UNL     1       0.854   9.306  20.012  0.00  0.00    +0.000 A 
ATOM     10  C   UNL     1       0.014  10.228  20.775  0.00  0.00    +0.000 A 
ATOM     11  O   UNL     1      -0.146   9.949  21.962  0.00  0.00    +0.000 OA
ENDROOT
BRANCH   1  19
ATOM     12  C   UNL     1      -4.020  17.202  23.902  0.00  0.00    +0.000 C 
ATOM     13  C   UNL     1      -5.253  16.629  23.194  0.00  0.00    +0.000 C 
ATOM     14  C   UNL     1      -4.961  15.147  23.034  0.00  0.00    +0.000 C 
ATOM     15  N   UNL     1      -3.522  15.106  22.878  0.00  0.00    +0.000 N 
ATOM     16  C   UNL     1      -2.812  14.194  22.156  0.00  0.00    +0.000 A 
ATOM     17  C   UNL     1      -3.430  13.123  21.530  0.00  0.00    +0.000 A 
ATOM     18  C   UNL     1      -2.678  12.204  20.804  0.00  0.00    +0.000 A 
ATOM     19  C   UNL     1      -1.295  12.325  20.727  0.00  0.00    +0.000 A 
ATOM     20  C   UNL     1      -0.756  13.448  21.343  0.00  0.00    +0.000 A 
ATOM     21  N   UNL     1      -1.474  14.365  22.046  0.00  0.00    +0.000 NA
ATOM     22  C   UNL     1      -2.864  16.256  23.483  0.00  0.00    +0.000 C 
BRANCH  12  24
ATOM     23  C   UNL     1      -5.274  18.351  25.698  0.00  0.00    +0.000 C 
ATOM     24  N   UNL     1      -4.187  17.451  25.346  0.00  0.00    +0.000 NA
ATOM     25  H   UNL     1      -4.349  16.554  25.805  0.00  0.00    +0.000 HD
ENDBRANCH  12  24
ENDBRANCH   1  19
BRANCH   6  26
ATOM     26  C   UNL     1       3.488   6.741  17.825  0.00  0.00    +0.000 A 
ATOM     27  C   UNL     1       3.351   5.345  17.871  0.00  0.00    +0.000 A 
ATOM     28  C   UNL     1       4.247   4.512  17.204  0.00  0.00    +0.000 A 
ATOM     29  C   UNL     1       5.302   5.050  16.458  0.00  0.00    +0.000 A 
ATOM     30  C   UNL     1       5.422   6.442  16.365  0.00  0.00    +0.000 A 
ATOM     31  C   UNL     1       4.528   7.273  17.045  0.00  0.00    +0.000 A 
BRANCH  29  32
ATOM     32  C   UNL     1       6.309   4.164  15.772  0.00  0.00    +0.000 C 
ATOM     33  F   UNL     1       6.612   4.565  14.506  0.00  0.00    +0.000 F 
ATOM     34  F   UNL     1       7.493   4.102  16.440  0.00  0.00    +0.000 F 
ATOM     35  F   UNL     1       5.870   2.880  15.661  0.00  0.00    +0.000 F 
ENDBRANCH  29  32
ENDBRANCH   6  26
TORSDOF 4
ENDMDL
MODEL 8
REMARK VINA RESULT:      -8.4      1.330      1.933
REMARK  Name = 
REMARK  5 active torsions:
REMARK  status: ('A' for Active; 'I' for Inactive)
REMARK    1  A    between atoms: C_1  and  N_2
REMARK    2  A    between atoms: N_2  and  C_3
REMARK    3  A    between atoms: C_10  and  N_11
REMARK    4  A    between atoms: C_16  and  C_17
REMARK    5  A    between atoms: C_20  and  C_21
REMARK                            x       y       z     vdW  Elec       q    Type
REMARK                         _______ _______ _______ _____ _____    ______ ____
ROOT
ATOM      1  N   UNL     1      -0.596  11.682  21.563  0.00  0.00    +0.000 N 
ATOM      2  N   UNL     1      -0.181  10.688  22.433  0.00  0.00    +0.000 NA
ATOM      3  C   UNL     1       0.525   9.710  21.967  0.00  0.00    +0.000 A 
ATOM      4  C   UNL     1       0.911   9.578  20.570  0.00  0.00    +0.000 A 
ATOM      5  C   UNL     1       1.650   8.489  20.115  0.00  0.00    +0.000 A 
ATOM      6  C   UNL     1       1.990   8.384  18.752  0.00  0.00    +0.000 A 
ATOM      7  C   UNL     1       1.590   9.416  17.884  0.00  0.00    +0.000 A 
ATOM      8  C   UNL     1       0.856  10.503  18.350  0.00  0.00    +0.000 A 
ATOM      9  C   UNL     1       0.507  10.568  19.698  0.00  0.00    +0.000 A 
ATOM     10  C   UNL     1      -0.325  11.666  20.189  0.00  0.00    +0.000 A 
ATOM     11  O   UNL     1      -0.737  12.451  19.336  0.00  0.00    +0.000 OA
ENDROOT
BRANCH   1  19
ATOM     12  C   UNL     1      -5.911  16.699  24.389  0.00  0.00    +0.000 C 
ATOM     13  C   UNL     1      -4.706  17.178  25.205  0.00  0.00    +0.000 C 
ATOM     14  C   UNL     1      -3.498  16.893  24.329  0.00  0.00    +0.000 C 
ATOM     15  N   UNL     1      -3.892  15.707  23.598  0.00  0.00    +0.000 N 
ATOM     16  C   UNL     1      -3.064  14.722  23.148  0.00  0.00    +0.000 A 
ATOM     17  C   UNL     1      -1.689  14.805  23.296  0.00  0.00    +0.000 A 
ATOM     18  C   UNL     1      -0.868  13.786  22.822  0.00  0.00    +0.000 A 
ATOM     19  C   UNL     1      -1.411  12.690  22.161  0.00  0.00    +0.000 A 
ATOM     20  C   UNL     1      -2.798  12.659  22.092  0.00  0.00    +0.000 A 
ATOM     21  N   UNL     1      -3.619  13.638  22.559  0.00  0.00    +0.000 NA
ATOM     22  C   UNL     1      -5.337  15.578  23.482  0.00  0.00    +0.000 C 
BRANCH  12  24
ATOM     23  C   UNL     1      -6.885  17.582  22.293  0.00  0.00    +0.000 C 
ATOM     24  N   UNL     1      -6.679  17.767  23.722  0.00  0.00    +0.000 NA
ATOM     25  H   UNL     1      -7.591  17.832  24.174  0.00  0.00    +0.000 HD
ENDBRANCH  12  24
ENDBRANCH   1  19
BRANCH   6  26
ATOM     26  C   UNL     1       2.754   7.231  18.245  0.00  0.00    +0.000 A 
ATOM     27  C   UNL     1       3.934   7.411  17.506  0.00  0.00    +0.000 A 
ATOM     28  C   UNL     1       4.630   6.322  16.986  0.00  0.00    +0.000 A 
ATOM     29  C   UNL     1       4.175   5.015  17.201  0.00  0.00    +0.000 A 
ATOM     30  C   UNL     1       3.025   4.820  17.976  0.00  0.00    +0.000 A 
ATOM     31  C   UNL     1       2.324   5.916  18.486  0.00  0.00    +0.000 A 
BRANCH  29  32
ATOM     32  C   UNL     1       4.886   3.829  16.605  0.00  0.00    +0.000 C 
ATOM     33  F   UNL     1       4.396   2.631  17.028  0.00  0.00    +0.000 F 
ATOM     34  F   UNL     1       4.817   3.804  15.246  0.00  0.00    +0.000 F 
ATOM     35  F   UNL     1       6.213   3.818  16.915  0.00  0.00    +0.000 F 
ENDBRANCH  29  32
ENDBRANCH   6  26
TORSDOF 4
ENDMDL
MODEL 9
REMARK VINA RESULT:      -8.4      0.895      1.292
REMARK  Name = 
REMARK  5 active torsions:
REMARK  status: ('A' for Active; 'I' for Inactive)
REMARK    1  A    between atoms: C_1  and  N_2
REMARK    2  A    between atoms: N_2  and  C_3
REMARK    3  A    between atoms: C_10  and  N_11
REMARK    4  A    between atoms: C_16  and  C_17
REMARK    5  A    between atoms: C_20  and  C_21
REMARK                            x       y       z     vdW  Elec       q    Type
REMARK                         _______ _______ _______ _____ _____    ______ ____
ROOT
ATOM      1  N   UNL     1      -0.570  11.083  20.319  0.00  0.00    +0.000 N 
ATOM      2  N   UNL     1      -0.240  11.437  19.021  0.00  0.00    +0.000 NA
ATOM      3  C   UNL     1       0.556  10.667  18.352  0.00  0.00    +0.000 A 
ATOM      4  C   UNL     1       1.141   9.445  18.880  0.00  0.00    +0.000 A 
ATOM      5  C   UNL     1       2.016   8.667  18.125  0.00  0.00    +0.000 A 
ATOM      6  C   UNL     1       2.578   7.498  18.675  0.00  0.00    +0.000 A 
ATOM      7  C   UNL     1       2.211   7.133  19.983  0.00  0.00    +0.000 A 
ATOM      8  C   UNL     1       1.332   7.915  20.727  0.00  0.00    +0.000 A 
ATOM      9  C   UNL     1       0.812   9.082  20.171  0.00  0.00    +0.000 A 
ATOM     10  C   UNL     1      -0.055   9.952  20.964  0.00  0.00    +0.000 A 
ATOM     11  O   UNL     1      -0.217   9.622  22.138  0.00  0.00    +0.000 OA
ENDROOT
BRANCH   1  19
ATOM     12  C   UNL     1      -5.252  16.740  23.054  0.00  0.00    +0.000 C 
ATOM     13  C   UNL     1      -5.336  15.791  24.254  0.00  0.00    +0.000 C 
ATOM     14  C   UNL     1      -4.005  15.059  24.271  0.00  0.00    +0.000 C 
ATOM     15  N   UNL     1      -3.650  14.983  22.869  0.00  0.00    +0.000 N 
ATOM     16  C   UNL     1      -2.928  13.994  22.270  0.00  0.00    +0.000 A 
ATOM     17  C   UNL     1      -2.378  12.953  23.000  0.00  0.00    +0.000 A 
ATOM     18  C   UNL     1      -1.640  11.960  22.362  0.00  0.00    +0.000 A 
ATOM     19  C   UNL     1      -1.413  12.018  20.991  0.00  0.00    +0.000 A 
ATOM     20  C   UNL     1      -2.034  13.068  20.325  0.00  0.00    +0.000 A 
ATOM     21  N   UNL     1      -2.769  14.040  20.928  0.00  0.00    +0.000 NA
ATOM     22  C   UNL     1      -4.267  16.040  22.080  0.00  0.00    +0.000 C 
BRANCH  12  24
ATOM     23  C   UNL     1      -3.618  18.597  23.084  0.00  0.00    +0.000 C 
ATOM     24  N   UNL     1      -4.968  18.149  23.389  0.00  0.00    +0.000 NA
ATOM     25  H   UNL     1      -5.627  18.735  22.876  0.00  0.00    +0.000 HD
ENDBRANCH  12  24
ENDBRANCH   1  19
BRANCH   6  26
ATOM     26  C   UNL     1       3.521   6.671  17.902  0.00  0.00    +0.000 A 
ATOM     27  C   UNL     1       3.684   5.305  18.182  0.00  0.00    +0.000 A 
ATOM     28  C   UNL     1       4.610   4.533  17.482  0.00  0.00    +0.000 A 
ATOM     29  C   UNL     1       5.393   5.102  16.469  0.00  0.00    +0.000 A 
ATOM     30  C   UNL     1       5.205   6.451  16.150  0.00  0.00    +0.000 A 
ATOM     31  C   UNL     1       4.285   7.224  16.861  0.00  0.00    +0.000 A 
BRANCH  29  32
ATOM     32  C   UNL     1       6.432   4.295  15.737  0.00  0.00    +0.000 C 
ATOM     33  F   UNL     1       6.823   4.854  14.558  0.00  0.00    +0.000 F 
ATOM     34  F   UNL     1       7.569   4.121  16.465  0.00  0.00    +0.000 F 
ATOM     35  F   UNL     1       5.988   3.046  15.427  0.00  0.00    +0.000 F 
ENDBRANCH  29  32
ENDBRANCH   6  26
TORSDOF 4
ENDMDL
