MODEL 1
REMARK VINA RESULT:      -7.2      0.000      0.000
REMARK  Name = 
REMARK  8 active torsions:
REMARK  status: ('A' for Active; 'I' for Inactive)
REMARK    1  A    between atoms: C_1  and  C_2
REMARK    2  A    between atoms: C_2  and  C_3
REMARK    3  A    between atoms: C_3  and  N_4
REMARK    4  A    between atoms: C_6  and  N_7
REMARK    5  A    between atoms: C_13  and  C_14
REMARK    6  A    between atoms: N_15  and  C_16
REMARK    7  A    between atoms: C_16  and  C_17
REMARK    8  A    between atoms: C_16  and  C_18
REMARK                            x       y       z     vdW  Elec       q    Type
REMARK                         _______ _______ _______ _____ _____    ______ ____
ROOT
ATOM      1  N   UNL     1       4.263   4.667  18.910  0.00  0.00    +0.000 N 
ATOM      2  C   UNL     1       3.522   4.136  19.923  0.00  0.00    +0.000 C 
ATOM      3  O   UNL     1       3.710   2.999  20.353  0.00  0.00    +0.000 OA
ATOM      4  N   UNL     1       2.581   4.945  20.483  0.00  0.00    +0.000 N 
ATOM      5  C   UNL     1       2.253   6.208  20.087  0.00  0.00    +0.000 A 
ATOM      6  N   UNL     1       2.707   6.744  18.912  0.00  0.00    +0.000 NA
ATOM      7  C   UNL     1       2.199   7.954  18.894  0.00  0.00    +0.000 A 
ATOM      8  C   UNL     1       2.322   8.935  17.792  0.00  0.00    +0.000 C 
ATOM      9  N   UNL     1       1.545   8.167  20.080  0.00  0.00    +0.000 N 
ATOM     10  N   UNL     1       1.497   7.031  20.812  0.00  0.00    +0.000 NA
ATOM     11  H   UNL     1       4.044   5.629  18.658  0.00  0.00    +0.000 HD
ATOM     12  H   UNL     1       2.108   4.604  21.302  0.00  0.00    +0.000 HD
ENDROOT
BRANCH   1  15
ATOM     13  N   UNL     1       5.671   4.938  16.143  0.00  0.00    +0.000 N 
ATOM     14  C   UNL     1       5.138   3.752  16.774  0.00  0.00    +0.000 C 
ATOM     15  C   UNL     1       5.376   3.990  18.264  0.00  0.00    +0.000 C 
ATOM     16  C   UNL     1       6.638   4.858  18.285  0.00  0.00    +0.000 C 
ATOM     17  C   UNL     1       6.615   5.562  16.948  0.00  0.00    +0.000 C 
ATOM     18  O   UNL     1       7.355   6.478  16.633  0.00  0.00    +0.000 OA
BRANCH  13  19
ATOM     19  C   UNL     1       5.557   5.179  14.716  0.00  0.00    +0.000 C 
BRANCH  19  21
ATOM     20  C   UNL     1       5.874   3.548  12.799  0.00  0.00    +0.000 C 
ATOM     21  C   UNL     1       6.553   4.380  13.877  0.00  0.00    +0.000 C 
ENDBRANCH  19  21
ENDBRANCH  13  19
ENDBRANCH   1  15
BRANCH   9  22
ATOM     22  C   UNL     1       1.051   9.423  20.625  0.00  0.00    +0.000 C 
ATOM     23  C   UNL     1      -0.326   9.775  20.072  0.00  0.00    +0.000 C 
ATOM     24  C   UNL     1       1.058   9.397  22.155  0.00  0.00    +0.000 C 
ENDBRANCH   9  22
TORSDOF 4
ENDMDL
MODEL 2
REMARK VINA RESULT:      -7.1      2.275      4.573
REMARK  Name = 
REMARK  8 active torsions:
REMARK  status: ('A' for Active; 'I' for Inactive)
REMARK    1  A    between atoms: C_1  and  C_2
REMARK    2  A    between atoms: C_2  and  C_3
REMARK    3  A    between atoms: C_3  and  N_4
REMARK    4  A    between atoms: C_6  and  N_7
REMARK    5  A    between atoms: C_13  and  C_14
REMARK    6  A    between atoms: N_15  and  C_16
REMARK    7  A    between atoms: C_16  and  C_17
REMARK    8  A    between atoms: C_16  and  C_18
REMARK                            x       y       z     vdW  Elec       q    Type
REMARK                         _______ _______ _______ _____ _____    ______ ____
ROOT
ATOM      1  N   UNL     1       4.041   5.879  18.044  0.00  0.00    +0.000 N 
ATOM      2  C   UNL     1       4.289   6.794  17.063  0.00  0.00    +0.000 C 
ATOM      3  O   UNL     1       5.092   6.586  16.155  0.00  0.00    +0.000 OA
ATOM      4  N   UNL     1       3.566   7.946  17.103  0.00  0.00    +0.000 N 
ATOM      5  C   UNL     1       2.669   8.313  18.063  0.00  0.00    +0.000 A 
ATOM      6  N   UNL     1       2.546   7.629  19.243  0.00  0.00    +0.000 NA
ATOM      7  C   UNL     1       1.590   8.263  19.881  0.00  0.00    +0.000 A 
ATOM      8  C   UNL     1       1.117   7.972  21.254  0.00  0.00    +0.000 C 
ATOM      9  N   UNL     1       1.088   9.235  19.056  0.00  0.00    +0.000 N 
ATOM     10  N   UNL     1       1.826   9.335  17.927  0.00  0.00    +0.000 NA
ATOM     11  H   UNL     1       3.332   6.143  18.725  0.00  0.00    +0.000 HD
ATOM     12  H   UNL     1       3.659   8.576  16.325  0.00  0.00    +0.000 HD
ENDROOT
BRANCH   1  15
ATOM     13  N   UNL     1       3.170   3.144  19.256  0.00  0.00    +0.000 N 
ATOM     14  C   UNL     1       4.410   3.863  19.446  0.00  0.00    +0.000 C 
ATOM     15  C   UNL     1       4.641   4.557  18.104  0.00  0.00    +0.000 C 
ATOM     16  C   UNL     1       3.984   3.606  17.099  0.00  0.00    +0.000 C 
ATOM     17  C   UNL     1       2.930   2.891  17.912  0.00  0.00    +0.000 C 
ATOM     18  O   UNL     1       2.065   2.170  17.446  0.00  0.00    +0.000 OA
BRANCH  13  19
ATOM     19  C   UNL     1       2.518   2.420  20.331  0.00  0.00    +0.000 C 
BRANCH  19  21
ATOM     20  C   UNL     1       0.906   4.377  20.409  0.00  0.00    +0.000 C 
ATOM     21  C   UNL     1       1.621   3.295  21.205  0.00  0.00    +0.000 C 
ENDBRANCH  19  21
ENDBRANCH  13  19
ENDBRANCH   1  15
BRANCH   9  22
ATOM     22  C   UNL     1      -0.131  10.014  19.216  0.00  0.00    +0.000 C 
ATOM     23  C   UNL     1       0.159  11.411  19.755  0.00  0.00    +0.000 C 
ATOM     24  C   UNL     1      -0.926  10.064  17.910  0.00  0.00    +0.000 C 
ENDBRANCH   9  22
TORSDOF 4
ENDMDL
MODEL 3
REMARK VINA RESULT:      -6.7      1.147      1.183
REMARK  Name = 
REMARK  8 active torsions:
REMARK  status: ('A' for Active; 'I' for Inactive)
REMARK    1  A    between atoms: C_1  and  C_2
REMARK    2  A    between atoms: C_2  and  C_3
REMARK    3  A    between atoms: C_3  and  N_4
REMARK    4  A    between atoms: C_6  and  N_7
REMARK    5  A    between atoms: C_13  and  C_14
REMARK    6  A    between atoms: N_15  and  C_16
REMARK    7  A    between atoms: C_16  and  C_17
REMARK    8  A    between atoms: C_16  and  C_18
REMARK                            x       y       z     vdW  Elec       q    Type
REMARK                         _______ _______ _______ _____ _____    ______ ____
ROOT
ATOM      1  N   UNL     1       3.596   5.405  19.418  0.00  0.00    +0.000 N 
ATOM      2  C   UNL     1       2.781   4.955  20.414  0.00  0.00    +0.000 C 
ATOM      3  O   UNL     1       2.889   3.828  20.897  0.00  0.00    +0.000 OA
ATOM      4  N   UNL     1       1.859   5.833  20.894  0.00  0.00    +0.000 N 
ATOM      5  C   UNL     1       1.616   7.093  20.434  0.00  0.00    +0.000 A 
ATOM      6  N   UNL     1       2.152   7.556  19.263  0.00  0.00    +0.000 NA
ATOM      7  C   UNL     1       1.710   8.789  19.173  0.00  0.00    +0.000 A 
ATOM      8  C   UNL     1       1.935   9.715  18.041  0.00  0.00    +0.000 C 
ATOM      9  N   UNL     1       1.013   9.083  20.316  0.00  0.00    +0.000 N 
ATOM     10  N   UNL     1       0.871   7.983  21.088  0.00  0.00    +0.000 NA
ATOM     11  H   UNL     1       3.440   6.366  19.119  0.00  0.00    +0.000 HD
ATOM     12  H   UNL     1       1.330   5.550  21.702  0.00  0.00    +0.000 HD
ENDROOT
BRANCH   1  15
ATOM     13  N   UNL     1       5.262   5.604  16.792  0.00  0.00    +0.000 N 
ATOM     14  C   UNL     1       4.577   4.456  17.344  0.00  0.00    +0.000 C 
ATOM     15  C   UNL     1       4.701   4.646  18.855  0.00  0.00    +0.000 C 
ATOM     16  C   UNL     1       6.024   5.402  19.007  0.00  0.00    +0.000 C 
ATOM     17  C   UNL     1       6.180   6.129  17.692  0.00  0.00    +0.000 C 
ATOM     18  O   UNL     1       7.020   6.984  17.465  0.00  0.00    +0.000 OA
BRANCH  13  19
ATOM     19  C   UNL     1       5.296   5.878  15.368  0.00  0.00    +0.000 C 
BRANCH  19  21
ATOM     20  C   UNL     1       7.169   4.689  14.139  0.00  0.00    +0.000 C 
ATOM     21  C   UNL     1       5.695   4.673  14.518  0.00  0.00    +0.000 C 
ENDBRANCH  19  21
ENDBRANCH  13  19
ENDBRANCH   1  15
BRANCH   9  22
ATOM     22  C   UNL     1       0.560  10.384  20.787  0.00  0.00    +0.000 C 
ATOM     23  C   UNL     1      -0.513  10.972  19.875  0.00  0.00    +0.000 C 
ATOM     24  C   UNL     1       0.089  10.308  22.240  0.00  0.00    +0.000 C 
ENDBRANCH   9  22
TORSDOF 4
ENDMDL
MODEL 4
REMARK VINA RESULT:      -6.4      2.441      4.728
REMARK  Name = 
REMARK  8 active torsions:
REMARK  status: ('A' for Active; 'I' for Inactive)
REMARK    1  A    between atoms: C_1  and  C_2
REMARK    2  A    between atoms: C_2  and  C_3
REMARK    3  A    between atoms: C_3  and  N_4
REMARK    4  A    between atoms: C_6  and  N_7
REMARK    5  A    between atoms: C_13  and  C_14
REMARK    6  A    between atoms: N_15  and  C_16
REMARK    7  A    between atoms: C_16  and  C_17
REMARK    8  A    between atoms: C_16  and  C_18
REMARK                            x       y       z     vdW  Elec       q    Type
REMARK                         _______ _______ _______ _____ _____    ______ ____
ROOT
ATOM      1  N   UNL     1       3.503   6.501  18.561  0.00  0.00    +0.000 N 
ATOM      2  C   UNL     1       3.718   7.361  17.525  0.00  0.00    +0.000 C 
ATOM      3  O   UNL     1       4.536   7.132  16.635  0.00  0.00    +0.000 OA
ATOM      4  N   UNL     1       2.944   8.480  17.488  0.00  0.00    +0.000 N 
ATOM      5  C   UNL     1       2.025   8.867  18.418  0.00  0.00    +0.000 A 
ATOM      6  N   UNL     1       1.922   8.255  19.638  0.00  0.00    +0.000 NA
ATOM      7  C   UNL     1       0.935   8.885  20.231  0.00  0.00    +0.000 A 
ATOM      8  C   UNL     1       0.465   8.662  21.616  0.00  0.00    +0.000 C 
ATOM      9  N   UNL     1       0.397   9.779  19.342  0.00  0.00    +0.000 N 
ATOM     10  N   UNL     1       1.138   9.840  18.213  0.00  0.00    +0.000 NA
ATOM     11  H   UNL     1       2.777   6.775  19.220  0.00  0.00    +0.000 HD
ATOM     12  H   UNL     1       3.015   9.063  16.671  0.00  0.00    +0.000 HD
ENDROOT
BRANCH   1  15
ATOM     13  N   UNL     1       2.503   3.569  18.898  0.00  0.00    +0.000 N 
ATOM     14  C   UNL     1       3.452   4.299  19.707  0.00  0.00    +0.000 C 
ATOM     15  C   UNL     1       4.160   5.213  18.708  0.00  0.00    +0.000 C 
ATOM     16  C   UNL     1       4.109   4.414  17.403  0.00  0.00    +0.000 C 
ATOM     17  C   UNL     1       2.893   3.531  17.566  0.00  0.00    +0.000 C 
ATOM     18  O   UNL     1       2.398   2.860  16.677  0.00  0.00    +0.000 OA
BRANCH  13  19
ATOM     19  C   UNL     1       1.536   2.651  19.471  0.00  0.00    +0.000 C 
BRANCH  19  21
ATOM     20  C   UNL     1       1.596   2.490  22.002  0.00  0.00    +0.000 C 
ATOM     21  C   UNL     1       0.937   3.135  20.791  0.00  0.00    +0.000 C 
ENDBRANCH  19  21
ENDBRANCH  13  19
ENDBRANCH   1  15
BRANCH   9  22
ATOM     22  C   UNL     1      -0.857  10.512  19.447  0.00  0.00    +0.000 C 
ATOM     23  C   UNL     1      -0.623  12.013  19.585  0.00  0.00    +0.000 C 
ATOM     24  C   UNL     1      -1.781  10.188  18.271  0.00  0.00    +0.000 C 
ENDBRANCH   9  22
TORSDOF 4
ENDMDL
MODEL 5
REMARK VINA RESULT:      -6.3      1.710      2.692
REMARK  Name = 
REMARK  8 active torsions:
REMARK  status: ('A' for Active; 'I' for Inactive)
REMARK    1  A    between atoms: C_1  and  C_2
REMARK    2  A    between atoms: C_2  and  C_3
REMARK    3  A    between atoms: C_3  and  N_4
REMARK    4  A    between atoms: C_6  and  N_7
REMARK    5  A    between atoms: C_13  and  C_14
REMARK    6  A    between atoms: N_15  and  C_16
REMARK    7  A    between atoms: C_16  and  C_17
REMARK    8  A    between atoms: C_16  and  C_18
REMARK                            x       y       z     vdW  Elec       q    Type
REMARK                         _______ _______ _______ _____ _____    ______ ____
ROOT
ATOM      1  N   UNL     1       4.067   5.459  18.459  0.00  0.00    +0.000 N 
ATOM      2  C   UNL     1       3.483   4.830  19.518  0.00  0.00    +0.000 C 
ATOM      3  O   UNL     1       3.780   3.684  19.851  0.00  0.00    +0.000 OA
ATOM      4  N   UNL     1       2.575   5.549  20.233  0.00  0.00    +0.000 N 
ATOM      5  C   UNL     1       2.136   6.811  19.958  0.00  0.00    +0.000 A 
ATOM      6  N   UNL     1       2.416   7.437  18.773  0.00  0.00    +0.000 NA
ATOM      7  C   UNL     1       1.847   8.614  18.891  0.00  0.00    +0.000 A 
ATOM      8  C   UNL     1       1.785   9.660  17.845  0.00  0.00    +0.000 C 
ATOM      9  N   UNL     1       1.331   8.721  20.156  0.00  0.00    +0.000 N 
ATOM     10  N   UNL     1       1.431   7.546  20.816  0.00  0.00    +0.000 NA
ATOM     11  H   UNL     1       3.770   6.419  18.296  0.00  0.00    +0.000 HD
ATOM     12  H   UNL     1       2.223   5.135  21.079  0.00  0.00    +0.000 HD
ENDROOT
BRANCH   1  15
ATOM     13  N   UNL     1       6.916   6.399  17.615  0.00  0.00    +0.000 N 
ATOM     14  C   UNL     1       5.835   5.927  16.779  0.00  0.00    +0.000 C 
ATOM     15  C   UNL     1       5.128   4.887  17.646  0.00  0.00    +0.000 C 
ATOM     16  C   UNL     1       6.256   4.333  18.522  0.00  0.00    +0.000 C 
ATOM     17  C   UNL     1       7.256   5.465  18.583  0.00  0.00    +0.000 C 
ATOM     18  O   UNL     1       8.224   5.496  19.323  0.00  0.00    +0.000 OA
BRANCH  13  19
ATOM     19  C   UNL     1       7.791   7.486  17.214  0.00  0.00    +0.000 C 
BRANCH  19  21
ATOM     20  C   UNL     1       8.648   9.565  18.387  0.00  0.00    +0.000 C 
ATOM     21  C   UNL     1       7.431   8.829  17.846  0.00  0.00    +0.000 C 
ENDBRANCH  19  21
ENDBRANCH  13  19
ENDBRANCH   1  15
BRANCH   9  22
ATOM     22  C   UNL     1       0.841   9.914  20.833  0.00  0.00    +0.000 C 
ATOM     23  C   UNL     1      -0.487  10.386  20.251  0.00  0.00    +0.000 C 
ATOM     24  C   UNL     1       0.751   9.689  22.344  0.00  0.00    +0.000 C 
ENDBRANCH   9  22
TORSDOF 4
ENDMDL
MODEL 6
REMARK VINA RESULT:      -6.3      3.108      5.388
REMARK  Name = 
REMARK  8 active torsions:
REMARK  status: ('A' for Active; 'I' for Inactive)
REMARK    1  A    between atoms: C_1  and  C_2
REMARK    2  A    between atoms: C_2  and  C_3
REMARK    3  A    between atoms: C_3  and  N_4
REMARK    4  A    between atoms: C_6  and  N_7
REMARK    5  A    between atoms: C_13  and  C_14
REMARK    6  A    between atoms: N_15  and  C_16
REMARK    7  A    between atoms: C_16  and  C_17
REMARK    8  A    between atoms: C_16  and  C_18
REMARK                            x       y       z     vdW  Elec       q    Type
REMARK                         _______ _______ _______ _____ _____    ______ ____
ROOT
ATOM      1  N   UNL     1       2.471   7.668  18.842  0.00  0.00    +0.000 N 
ATOM      2  C   UNL     1       2.560   8.470  17.743  0.00  0.00    +0.000 C 
ATOM      3  O   UNL     1       3.300   8.211  16.796  0.00  0.00    +0.000 OA
ATOM      4  N   UNL     1       1.749   9.562  17.715  0.00  0.00    +0.000 N 
ATOM      5  C   UNL     1       0.907   9.979  18.704  0.00  0.00    +0.000 A 
ATOM      6  N   UNL     1       0.939   9.439  19.962  0.00  0.00    +0.000 NA
ATOM      7  C   UNL     1      -0.011  10.076  20.607  0.00  0.00    +0.000 A 
ATOM      8  C   UNL     1      -0.343   9.923  22.041  0.00  0.00    +0.000 C 
ATOM      9  N   UNL     1      -0.658  10.899  19.724  0.00  0.00    +0.000 N 
ATOM     10  N   UNL     1      -0.026  10.913  18.528  0.00  0.00    +0.000 NA
ATOM     11  H   UNL     1       1.800   7.961  19.550  0.00  0.00    +0.000 HD
ATOM     12  H   UNL     1       1.726  10.097  16.863  0.00  0.00    +0.000 HD
ENDROOT
BRANCH   1  15
ATOM     13  N   UNL     1       1.605   4.736  19.443  0.00  0.00    +0.000 N 
ATOM     14  C   UNL     1       2.601   5.540  20.114  0.00  0.00    +0.000 C 
ATOM     15  C   UNL     1       3.182   6.410  19.001  0.00  0.00    +0.000 C 
ATOM     16  C   UNL     1       3.035   5.532  17.755  0.00  0.00    +0.000 C 
ATOM     17  C   UNL     1       1.870   4.627  18.085  0.00  0.00    +0.000 C 
ATOM     18  O   UNL     1       1.316   3.890  17.287  0.00  0.00    +0.000 OA
BRANCH  13  19
ATOM     19  C   UNL     1       0.726   3.828  20.158  0.00  0.00    +0.000 C 
BRANCH  19  21
ATOM     20  C   UNL     1       1.944   2.501  21.945  0.00  0.00    +0.000 C 
ATOM     21  C   UNL     1       1.385   2.500  20.529  0.00  0.00    +0.000 C 
ENDBRANCH  19  21
ENDBRANCH  13  19
ENDBRANCH   1  15
BRANCH   9  22
ATOM     22  C   UNL     1      -1.921  11.602  19.903  0.00  0.00    +0.000 C 
ATOM     23  C   UNL     1      -1.707  13.022  20.416  0.00  0.00    +0.000 C 
ATOM     24  C   UNL     1      -2.748  11.582  18.616  0.00  0.00    +0.000 C 
ENDBRANCH   9  22
TORSDOF 4
ENDMDL
MODEL 7
REMARK VINA RESULT:      -6.1      2.515      7.154
REMARK  Name = 
REMARK  8 active torsions:
REMARK  status: ('A' for Active; 'I' for Inactive)
REMARK    1  A    between atoms: C_1  and  C_2
REMARK    2  A    between atoms: C_2  and  C_3
REMARK    3  A    between atoms: C_3  and  N_4
REMARK    4  A    between atoms: C_6  and  N_7
REMARK    5  A    between atoms: C_13  and  C_14
REMARK    6  A    between atoms: N_15  and  C_16
REMARK    7  A    between atoms: C_16  and  C_17
REMARK    8  A    between atoms: C_16  and  C_18
REMARK                            x       y       z     vdW  Elec       q    Type
REMARK                         _______ _______ _______ _____ _____    ______ ____
ROOT
ATOM      1  N   UNL     1       5.027   3.397  17.815  0.00  0.00    +0.000 N 
ATOM      2  C   UNL     1       5.823   4.400  18.282  0.00  0.00    +0.000 C 
ATOM      3  O   UNL     1       5.902   4.679  19.478  0.00  0.00    +0.000 OA
ATOM      4  N   UNL     1       6.576   5.063  17.362  0.00  0.00    +0.000 N 
ATOM      5  C   UNL     1       6.563   4.876  16.011  0.00  0.00    +0.000 A 
ATOM      6  N   UNL     1       5.609   4.116  15.390  0.00  0.00    +0.000 NA
ATOM      7  C   UNL     1       5.938   4.163  14.120  0.00  0.00    +0.000 A 
ATOM      8  C   UNL     1       5.177   3.564  13.000  0.00  0.00    +0.000 C 
ATOM      9  N   UNL     1       7.119   4.848  14.004  0.00  0.00    +0.000 N 
ATOM     10  N   UNL     1       7.483   5.383  15.191  0.00  0.00    +0.000 NA
ATOM     11  H   UNL     1       5.066   3.232  16.811  0.00  0.00    +0.000 HD
ATOM     12  H   UNL     1       7.247   5.727  17.708  0.00  0.00    +0.000 HD
ENDROOT
BRANCH   1  15
ATOM     13  N   UNL     1       2.413   3.742  19.476  0.00  0.00    +0.000 N 
ATOM     14  C   UNL     1       3.692   3.221  19.902  0.00  0.00    +0.000 C 
ATOM     15  C   UNL     1       4.235   2.517  18.659  0.00  0.00    +0.000 C 
ATOM     16  C   UNL     1       2.967   2.053  17.936  0.00  0.00    +0.000 C 
ATOM     17  C   UNL     1       1.910   3.033  18.393  0.00  0.00    +0.000 C 
ATOM     18  O   UNL     1       0.792   3.120  17.916  0.00  0.00    +0.000 OA
BRANCH  13  19
ATOM     19  C   UNL     1       1.592   4.582  20.328  0.00  0.00    +0.000 C 
BRANCH  19  21
ATOM     20  C   UNL     1       2.620   6.503  19.030  0.00  0.00    +0.000 C 
ATOM     21  C   UNL     1       2.031   6.045  20.356  0.00  0.00    +0.000 C 
ENDBRANCH  19  21
ENDBRANCH  13  19
ENDBRANCH   1  15
BRANCH   9  22
ATOM     22  C   UNL     1       8.000   4.938  12.849  0.00  0.00    +0.000 C 
ATOM     23  C   UNL     1       7.228   5.273  11.576  0.00  0.00    +0.000 C 
ATOM     24  C   UNL     1       9.136   5.932  13.100  0.00  0.00    +0.000 C 
ENDBRANCH   9  22
TORSDOF 4
ENDMDL
MODEL 8
REMARK VINA RESULT:      -6.0      0.962      1.032
REMARK  Name = 
REMARK  8 active torsions:
REMARK  status: ('A' for Active; 'I' for Inactive)
REMARK    1  A    between atoms: C_1  and  C_2
REMARK    2  A    between atoms: C_2  and  C_3
REMARK    3  A    between atoms: C_3  and  N_4
REMARK    4  A    between atoms: C_6  and  N_7
REMARK    5  A    between atoms: C_13  and  C_14
REMARK    6  A    between atoms: N_15  and  C_16
REMARK    7  A    between atoms: C_16  and  C_17
REMARK    8  A    between atoms: C_16  and  C_18
REMARK                            x       y       z     vdW  Elec       q    Type
REMARK                         _______ _______ _______ _____ _____    ______ ____
ROOT
ATOM      1  N   UNL     1       4.844   5.032  18.598  0.00  0.00    +0.000 N 
ATOM      2  C   UNL     1       4.261   4.212  19.519  0.00  0.00    +0.000 C 
ATOM      3  O   UNL     1       4.689   3.085  19.764  0.00  0.00    +0.000 OA
ATOM      4  N   UNL     1       3.198   4.717  20.202  0.00  0.00    +0.000 N 
ATOM      5  C   UNL     1       2.608   5.931  20.011  0.00  0.00    +0.000 A 
ATOM      6  N   UNL     1       2.902   6.722  18.934  0.00  0.00    +0.000 NA
ATOM      7  C   UNL     1       2.161   7.791  19.109  0.00  0.00    +0.000 A 
ATOM      8  C   UNL     1       2.045   8.934  18.174  0.00  0.00    +0.000 C 
ATOM      9  N   UNL     1       1.521   7.682  20.315  0.00  0.00    +0.000 N 
ATOM     10  N   UNL     1       1.729   6.462  20.860  0.00  0.00    +0.000 NA
ATOM     11  H   UNL     1       4.427   5.956  18.503  0.00  0.00    +0.000 HD
ATOM     12  H   UNL     1       2.832   4.164  20.959  0.00  0.00    +0.000 HD
ENDROOT
BRANCH   1  15
ATOM     13  N   UNL     1       5.488   4.629  15.577  0.00  0.00    +0.000 N 
ATOM     14  C   UNL     1       5.776   3.750  16.687  0.00  0.00    +0.000 C 
ATOM     15  C   UNL     1       6.046   4.704  17.850  0.00  0.00    +0.000 C 
ATOM     16  C   UNL     1       6.623   5.944  17.161  0.00  0.00    +0.000 C 
ATOM     17  C   UNL     1       6.041   5.888  15.767  0.00  0.00    +0.000 C 
ATOM     18  O   UNL     1       6.115   6.787  14.947  0.00  0.00    +0.000 OA
BRANCH  13  19
ATOM     19  C   UNL     1       5.070   4.131  14.279  0.00  0.00    +0.000 C 
BRANCH  19  21
ATOM     20  C   UNL     1       5.764   3.115  12.061  0.00  0.00    +0.000 C 
ATOM     21  C   UNL     1       6.231   3.745  13.365  0.00  0.00    +0.000 C 
ENDBRANCH  19  21
ENDBRANCH  13  19
ENDBRANCH   1  15
BRANCH   9  22
ATOM     22  C   UNL     1       0.805   8.712  21.054  0.00  0.00    +0.000 C 
ATOM     23  C   UNL     1      -0.601   8.258  21.433  0.00  0.00    +0.000 C 
ATOM     24  C   UNL     1       1.603   9.166  22.278  0.00  0.00    +0.000 C 
ENDBRANCH   9  22
TORSDOF 4
ENDMDL
MODEL 9
REMARK VINA RESULT:      -5.8      4.009      8.147
REMARK  Name = 
REMARK  8 active torsions:
REMARK  status: ('A' for Active; 'I' for Inactive)
REMARK    1  A    between atoms: C_1  and  C_2
REMARK    2  A    between atoms: C_2  and  C_3
REMARK    3  A    between atoms: C_3  and  N_4
REMARK    4  A    between atoms: C_6  and  N_7
REMARK    5  A    between atoms: C_13  and  C_14
REMARK    6  A    between atoms: N_15  and  C_16
REMARK    7  A    between atoms: C_16  and  C_17
REMARK    8  A    between atoms: C_16  and  C_18
REMARK                            x       y       z     vdW  Elec       q    Type
REMARK                         _______ _______ _______ _____ _____    ______ ____
ROOT
ATOM      1  N   UNL     1       0.390  10.339  21.210  0.00  0.00    +0.000 N 
ATOM      2  C   UNL     1       0.615   9.546  22.297  0.00  0.00    +0.000 C 
ATOM      3  O   UNL     1       0.276   9.873  23.433  0.00  0.00    +0.000 OA
ATOM      4  N   UNL     1       1.197   8.339  22.064  0.00  0.00    +0.000 N 
ATOM      5  C   UNL     1       1.645   7.867  20.865  0.00  0.00    +0.000 A 
ATOM      6  N   UNL     1       1.749   8.669  19.761  0.00  0.00    +0.000 NA
ATOM      7  C   UNL     1       2.191   7.865  18.822  0.00  0.00    +0.000 A 
ATOM      8  C   UNL     1       2.552   8.254  17.440  0.00  0.00    +0.000 C 
ATOM      9  N   UNL     1       2.249   6.594  19.332  0.00  0.00    +0.000 N 
ATOM     10  N   UNL     1       1.988   6.596  20.658  0.00  0.00    +0.000 NA
ATOM     11  H   UNL     1       0.681   9.953  20.314  0.00  0.00    +0.000 HD
ATOM     12  H   UNL     1       1.265   7.702  22.840  0.00  0.00    +0.000 HD
ENDROOT
BRANCH   1  15
ATOM     13  N   UNL     1       0.442  12.915  19.459  0.00  0.00    +0.000 N 
ATOM     14  C   UNL     1       0.588  12.793  20.891  0.00  0.00    +0.000 C 
ATOM     15  C   UNL     1      -0.311  11.611  21.253  0.00  0.00    +0.000 C 
ATOM     16  C   UNL     1      -1.413  11.671  20.191  0.00  0.00    +0.000 C 
ATOM     17  C   UNL     1      -0.752  12.358  19.020  0.00  0.00    +0.000 C 
ATOM     18  O   UNL     1      -1.235  12.449  17.904  0.00  0.00    +0.000 OA
BRANCH  13  19
ATOM     19  C   UNL     1       1.215  13.862  18.676  0.00  0.00    +0.000 C 
BRANCH  19  21
ATOM     20  C   UNL     1      -0.035  16.069  18.690  0.00  0.00    +0.000 C 
ATOM     21  C   UNL     1       1.162  15.291  19.214  0.00  0.00    +0.000 C 
ENDBRANCH  19  21
ENDBRANCH  13  19
ENDBRANCH   1  15
BRANCH   9  22
ATOM     22  C   UNL     1       2.430   5.341  18.613  0.00  0.00    +0.000 C 
ATOM     23  C   UNL     1       3.890   4.902  18.604  0.00  0.00    +0.000 C 
ATOM     24  C   UNL     1       1.514   4.250  19.173  0.00  0.00    +0.000 C 
ENDBRANCH   9  22
TORSDOF 4
ENDMDL
