MODEL 1
REMARK VINA RESULT:      -8.1      0.000      0.000
REMARK  Name = 
REMARK  10 active torsions:
REMARK  status: ('A' for Active; 'I' for Inactive)
REMARK    1  A    between atoms: C_1  and  O_2
REMARK    2  A    between atoms: O_2  and  C_3
REMARK    3  A    between atoms: C_5  and  O_6
REMARK    4  A    between atoms: O_6  and  C_7
REMARK    5  A    between atoms: C_8  and  C_9
REMARK    6  A    between atoms: C_14  and  O_15
REMARK    7  A    between atoms: O_15  and  C_16
REMARK    8  A    between atoms: C_16  and  C_17
REMARK    9  A    between atoms: C_30  and  O_31
REMARK   10  A    between atoms: O_31  and  C_32
REMARK                            x       y       z     vdW  Elec       q    Type
REMARK                         _______ _______ _______ _____ _____    ______ ____
ROOT
ATOM      1  C   UNL     1       2.654   7.044  18.780  0.00  0.00    +0.000 A 
ATOM      2  C   UNL     1       2.274   6.712  20.031  0.00  0.00    +0.000 A 
ATOM      3  O   UNL     1       1.317   7.338  20.808  0.00  0.00    +0.000 OA
ATOM      4  C   UNL     1       1.073   8.655  20.525  0.00  0.00    +0.000 A 
ATOM      5  C   UNL     1       0.471   9.446  21.498  0.00  0.00    +0.000 A 
ATOM      6  C   UNL     1       0.398  10.834  21.334  0.00  0.00    +0.000 A 
ATOM      7  C   UNL     1       0.929  11.417  20.180  0.00  0.00    +0.000 A 
ATOM      8  C   UNL     1       1.433  10.601  19.151  0.00  0.00    +0.000 A 
ATOM      9  C   UNL     1       1.479   9.216  19.329  0.00  0.00    +0.000 A 
ATOM     10  C   UNL     1       1.947   8.286  18.290  0.00  0.00    +0.000 A 
ATOM     11  O   UNL     1       1.715   8.554  17.119  0.00  0.00    +0.000 OA
ENDROOT
BRANCH   1  15
ATOM     12  C   UNL     1       5.683   4.967  16.379  0.00  0.00    +0.000 A 
ATOM     13  C   UNL     1       4.503   4.312  16.749  0.00  0.00    +0.000 A 
ATOM     14  C   UNL     1       3.507   4.932  17.524  0.00  0.00    +0.000 A 
ATOM     15  C   UNL     1       3.660   6.279  17.951  0.00  0.00    +0.000 A 
ATOM     16  C   UNL     1       4.856   6.905  17.566  0.00  0.00    +0.000 A 
ATOM     17  C   UNL     1       5.871   6.273  16.817  0.00  0.00    +0.000 A 
BRANCH  12  19
ATOM     18  C   UNL     1       6.572   4.538  14.211  0.00  0.00    +0.000 C 
ATOM     19  O   UNL     1       6.650   4.366  15.620  0.00  0.00    +0.000 OA
ENDBRANCH  12  19
BRANCH  14  20
ATOM     20  O   UNL     1       2.359   4.259  17.863  0.00  0.00    +0.000 OA
ATOM     21  C   UNL     1       2.426   2.835  17.918  0.00  0.00    +0.000 C 
ENDBRANCH  14  20
BRANCH  17  22
ATOM     22  O   UNL     1       6.939   7.105  16.593  0.00  0.00    +0.000 OA
ATOM     23  C   UNL     1       7.720   7.529  17.698  0.00  0.00    +0.000 C 
ENDBRANCH  17  22
ENDBRANCH   1  15
BRANCH   6  24
ATOM     24  O   UNL     1      -0.129  11.480  22.417  0.00  0.00    +0.000 OA
BRANCH  24  25
ATOM     25  C   UNL     1      -0.592  12.829  22.264  0.00  0.00    +0.000 C 
BRANCH  25  26
ATOM     26  C   UNL     1      -2.090  12.881  22.540  0.00  0.00    +0.000 A 
ATOM     27  C   UNL     1      -2.554  13.030  23.867  0.00  0.00    +0.000 A 
ATOM     28  C   UNL     1      -3.924  13.084  24.168  0.00  0.00    +0.000 A 
ATOM     29  C   UNL     1      -4.860  12.976  23.147  0.00  0.00    +0.000 A 
ATOM     30  C   UNL     1      -4.432  12.797  21.830  0.00  0.00    +0.000 A 
ATOM     31  C   UNL     1      -3.058  12.742  21.534  0.00  0.00    +0.000 A 
ATOM     32 BR   UNL     1      -2.596  12.455  19.711  0.00  0.00    +0.000 Br
ENDBRANCH  25  26
ENDBRANCH  24  25
ENDBRANCH   6  24
TORSDOF 7
ENDMDL
MODEL 2
REMARK VINA RESULT:      -8.0      1.242      1.665
REMARK  Name = 
REMARK  10 active torsions:
REMARK  status: ('A' for Active; 'I' for Inactive)
REMARK    1  A    between atoms: C_1  and  O_2
REMARK    2  A    between atoms: O_2  and  C_3
REMARK    3  A    between atoms: C_5  and  O_6
REMARK    4  A    between atoms: O_6  and  C_7
REMARK    5  A    between atoms: C_8  and  C_9
REMARK    6  A    between atoms: C_14  and  O_15
REMARK    7  A    between atoms: O_15  and  C_16
REMARK    8  A    between atoms: C_16  and  C_17
REMARK    9  A    between atoms: C_30  and  O_31
REMARK   10  A    between atoms: O_31  and  C_32
REMARK                            x       y       z     vdW  Elec       q    Type
REMARK                         _______ _______ _______ _____ _____    ______ ____
ROOT
ATOM      1  C   UNL     1       2.616   6.961  18.863  0.00  0.00    +0.000 A 
ATOM      2  C   UNL     1       2.250   6.559  20.098  0.00  0.00    +0.000 A 
ATOM      3  O   UNL     1       1.293   7.133  20.915  0.00  0.00    +0.000 OA
ATOM      4  C   UNL     1       1.035   8.461  20.705  0.00  0.00    +0.000 A 
ATOM      5  C   UNL     1       0.433   9.193  21.723  0.00  0.00    +0.000 A 
ATOM      6  C   UNL     1       0.347  10.587  21.634  0.00  0.00    +0.000 A 
ATOM      7  C   UNL     1       0.863  11.236  20.509  0.00  0.00    +0.000 A 
ATOM      8  C   UNL     1       1.365  10.481  19.434  0.00  0.00    +0.000 A 
ATOM      9  C   UNL     1       1.426   9.089  19.537  0.00  0.00    +0.000 A 
ATOM     10  C   UNL     1       1.893   8.221  18.446  0.00  0.00    +0.000 A 
ATOM     11  O   UNL     1       1.650   8.549  17.293  0.00  0.00    +0.000 OA
ENDROOT
BRANCH   1  15
ATOM     12  C   UNL     1       5.643   5.047  16.327  0.00  0.00    +0.000 A 
ATOM     13  C   UNL     1       4.487   4.351  16.697  0.00  0.00    +0.000 A 
ATOM     14  C   UNL     1       3.493   4.917  17.515  0.00  0.00    +0.000 A 
ATOM     15  C   UNL     1       3.622   6.252  17.986  0.00  0.00    +0.000 A 
ATOM     16  C   UNL     1       4.794   6.921  17.599  0.00  0.00    +0.000 A 
ATOM     17  C   UNL     1       5.807   6.341  16.807  0.00  0.00    +0.000 A 
BRANCH  12  19
ATOM     18  C   UNL     1       6.354   4.470  14.128  0.00  0.00    +0.000 C 
ATOM     19  O   UNL     1       6.608   4.498  15.526  0.00  0.00    +0.000 OA
ENDBRANCH  12  19
BRANCH  14  20
ATOM     20  O   UNL     1       2.369   4.204  17.854  0.00  0.00    +0.000 OA
ATOM     21  C   UNL     1       2.528   2.807  18.094  0.00  0.00    +0.000 C 
ENDBRANCH  14  20
BRANCH  17  22
ATOM     22  O   UNL     1       6.850   7.208  16.591  0.00  0.00    +0.000 OA
ATOM     23  C   UNL     1       7.711   7.527  17.672  0.00  0.00    +0.000 C 
ENDBRANCH  17  22
ENDBRANCH   1  15
BRANCH   6  24
ATOM     24  O   UNL     1      -0.178  11.169  22.754  0.00  0.00    +0.000 OA
BRANCH  24  25
ATOM     25  C   UNL     1      -1.557  11.562  22.752  0.00  0.00    +0.000 C 
BRANCH  25  26
ATOM     26  C   UNL     1      -1.658  13.045  23.091  0.00  0.00    +0.000 A 
ATOM     27  C   UNL     1      -0.612  13.921  22.721  0.00  0.00    +0.000 A 
ATOM     28  C   UNL     1      -0.664  15.294  23.011  0.00  0.00    +0.000 A 
ATOM     29  C   UNL     1      -1.757  15.816  23.691  0.00  0.00    +0.000 A 
ATOM     30  C   UNL     1      -2.789  14.968  24.098  0.00  0.00    +0.000 A 
ATOM     31  C   UNL     1      -2.733  13.594  23.805  0.00  0.00    +0.000 A 
ATOM     32 BR   UNL     1      -4.178  12.533  24.443  0.00  0.00    +0.000 Br
ENDBRANCH  25  26
ENDBRANCH  24  25
ENDBRANCH   6  24
TORSDOF 7
ENDMDL
MODEL 3
REMARK VINA RESULT:      -8.0      3.200     10.669
REMARK  Name = 
REMARK  10 active torsions:
REMARK  status: ('A' for Active; 'I' for Inactive)
REMARK    1  A    between atoms: C_1  and  O_2
REMARK    2  A    between atoms: O_2  and  C_3
REMARK    3  A    between atoms: C_5  and  O_6
REMARK    4  A    between atoms: O_6  and  C_7
REMARK    5  A    between atoms: C_8  and  C_9
REMARK    6  A    between atoms: C_14  and  O_15
REMARK    7  A    between atoms: O_15  and  C_16
REMARK    8  A    between atoms: C_16  and  C_17
REMARK    9  A    between atoms: C_30  and  O_31
REMARK   10  A    between atoms: O_31  and  C_32
REMARK                            x       y       z     vdW  Elec       q    Type
REMARK                         _______ _______ _______ _____ _____    ______ ____
ROOT
ATOM      1  C   UNL     1      -0.915  11.691  22.259  0.00  0.00    +0.000 A 
ATOM      2  C   UNL     1      -0.585  10.520  22.839  0.00  0.00    +0.000 A 
ATOM      3  O   UNL     1       0.415   9.646  22.450  0.00  0.00    +0.000 OA
ATOM      4  C   UNL     1       0.781   9.693  21.132  0.00  0.00    +0.000 A 
ATOM      5  C   UNL     1       1.439   8.597  20.583  0.00  0.00    +0.000 A 
ATOM      6  C   UNL     1       1.639   8.513  19.201  0.00  0.00    +0.000 A 
ATOM      7  C   UNL     1       1.179   9.545  18.377  0.00  0.00    +0.000 A 
ATOM      8  C   UNL     1       0.618  10.701  18.950  0.00  0.00    +0.000 A 
ATOM      9  C   UNL     1       0.444  10.770  20.334  0.00  0.00    +0.000 A 
ATOM     10  C   UNL     1      -0.092  11.956  21.020  0.00  0.00    +0.000 A 
ATOM     11  O   UNL     1       0.180  13.062  20.572  0.00  0.00    +0.000 OA
ENDROOT
BRANCH   1  15
ATOM     12  C   UNL     1      -4.116  14.325  23.698  0.00  0.00    +0.000 A 
ATOM     13  C   UNL     1      -2.776  14.707  23.824  0.00  0.00    +0.000 A 
ATOM     14  C   UNL     1      -1.715  13.894  23.386  0.00  0.00    +0.000 A 
ATOM     15  C   UNL     1      -1.974  12.640  22.770  0.00  0.00    +0.000 A 
ATOM     16  C   UNL     1      -3.329  12.287  22.662  0.00  0.00    +0.000 A 
ATOM     17  C   UNL     1      -4.392  13.086  23.132  0.00  0.00    +0.000 A 
BRANCH  12  19
ATOM     18  C   UNL     1      -4.830  16.445  24.518  0.00  0.00    +0.000 C 
ATOM     19  O   UNL     1      -5.149  15.119  24.118  0.00  0.00    +0.000 OA
ENDBRANCH  12  19
BRANCH  14  20
ATOM     20  O   UNL     1      -0.411  14.305  23.523  0.00  0.00    +0.000 OA
ATOM     21  C   UNL     1      -0.068  15.582  22.988  0.00  0.00    +0.000 C 
ENDBRANCH  14  20
BRANCH  17  22
ATOM     22  O   UNL     1      -5.613  12.497  22.914  0.00  0.00    +0.000 OA
ATOM     23  C   UNL     1      -6.224  12.638  21.642  0.00  0.00    +0.000 C 
ENDBRANCH  17  22
ENDBRANCH   1  15
BRANCH   6  24
ATOM     24  O   UNL     1       2.208   7.335  18.807  0.00  0.00    +0.000 OA
BRANCH  24  25
ATOM     25  C   UNL     1       2.662   6.413  19.807  0.00  0.00    +0.000 C 
BRANCH  25  26
ATOM     26  C   UNL     1       2.174   5.011  19.458  0.00  0.00    +0.000 A 
ATOM     27  C   UNL     1       1.177   4.398  20.251  0.00  0.00    +0.000 A 
ATOM     28  C   UNL     1       0.696   3.111  19.965  0.00  0.00    +0.000 A 
ATOM     29  C   UNL     1       1.214   2.403  18.888  0.00  0.00    +0.000 A 
ATOM     30  C   UNL     1       2.222   2.971  18.107  0.00  0.00    +0.000 A 
ATOM     31  C   UNL     1       2.701   4.261  18.397  0.00  0.00    +0.000 A 
ATOM     32 BR   UNL     1       4.103   4.913  17.288  0.00  0.00    +0.000 Br
ENDBRANCH  25  26
ENDBRANCH  24  25
ENDBRANCH   6  24
TORSDOF 7
ENDMDL
MODEL 4
REMARK VINA RESULT:      -8.0      1.028      1.278
REMARK  Name = 
REMARK  10 active torsions:
REMARK  status: ('A' for Active; 'I' for Inactive)
REMARK    1  A    between atoms: C_1  and  O_2
REMARK    2  A    between atoms: O_2  and  C_3
REMARK    3  A    between atoms: C_5  and  O_6
REMARK    4  A    between atoms: O_6  and  C_7
REMARK    5  A    between atoms: C_8  and  C_9
REMARK    6  A    between atoms: C_14  and  O_15
REMARK    7  A    between atoms: O_15  and  C_16
REMARK    8  A    between atoms: C_16  and  C_17
REMARK    9  A    between atoms: C_30  and  O_31
REMARK   10  A    between atoms: O_31  and  C_32
REMARK                            x       y       z     vdW  Elec       q    Type
REMARK                         _______ _______ _______ _____ _____    ______ ____
ROOT
ATOM      1  C   UNL     1       2.633   6.963  18.877  0.00  0.00    +0.000 A 
ATOM      2  C   UNL     1       2.258   6.531  20.099  0.00  0.00    +0.000 A 
ATOM      3  O   UNL     1       1.298   7.087  20.925  0.00  0.00    +0.000 OA
ATOM      4  C   UNL     1       1.045   8.420  20.747  0.00  0.00    +0.000 A 
ATOM      5  C   UNL     1       0.440   9.128  21.780  0.00  0.00    +0.000 A 
ATOM      6  C   UNL     1       0.358  10.524  21.727  0.00  0.00    +0.000 A 
ATOM      7  C   UNL     1       0.883  11.200  20.621  0.00  0.00    +0.000 A 
ATOM      8  C   UNL     1       1.389  10.471  19.530  0.00  0.00    +0.000 A 
ATOM      9  C   UNL     1       1.445   9.077  19.598  0.00  0.00    +0.000 A 
ATOM     10  C   UNL     1       1.916   8.235  18.488  0.00  0.00    +0.000 A 
ATOM     11  O   UNL     1       1.680   8.593  17.342  0.00  0.00    +0.000 OA
ENDROOT
BRANCH   1  15
ATOM     12  C   UNL     1       5.666   5.107  16.306  0.00  0.00    +0.000 A 
ATOM     13  C   UNL     1       4.524   4.391  16.683  0.00  0.00    +0.000 A 
ATOM     14  C   UNL     1       3.529   4.939  17.511  0.00  0.00    +0.000 A 
ATOM     15  C   UNL     1       3.642   6.273  17.989  0.00  0.00    +0.000 A 
ATOM     16  C   UNL     1       4.800   6.961  17.595  0.00  0.00    +0.000 A 
ATOM     17  C   UNL     1       5.816   6.400  16.792  0.00  0.00    +0.000 A 
BRANCH  12  19
ATOM     18  C   UNL     1       6.260   4.262  14.159  0.00  0.00    +0.000 C 
ATOM     19  O   UNL     1       6.632   4.575  15.495  0.00  0.00    +0.000 OA
ENDBRANCH  12  19
BRANCH  14  20
ATOM     20  O   UNL     1       2.418   4.207  17.856  0.00  0.00    +0.000 OA
ATOM     21  C   UNL     1       2.619   3.061  18.681  0.00  0.00    +0.000 C 
ENDBRANCH  14  20
BRANCH  17  22
ATOM     22  O   UNL     1       6.843   7.283  16.571  0.00  0.00    +0.000 OA
ATOM     23  C   UNL     1       7.706   7.613  17.648  0.00  0.00    +0.000 C 
ENDBRANCH  17  22
ENDBRANCH   1  15
BRANCH   6  24
ATOM     24  O   UNL     1      -0.171  11.079  22.858  0.00  0.00    +0.000 OA
BRANCH  24  25
ATOM     25  C   UNL     1      -1.542  11.504  22.848  0.00  0.00    +0.000 C 
BRANCH  25  26
ATOM     26  C   UNL     1      -1.603  13.000  22.564  0.00  0.00    +0.000 A 
ATOM     27  C   UNL     1      -1.258  13.921  23.580  0.00  0.00    +0.000 A 
ATOM     28  C   UNL     1      -1.298  15.307  23.362  0.00  0.00    +0.000 A 
ATOM     29  C   UNL     1      -1.698  15.802  22.127  0.00  0.00    +0.000 A 
ATOM     30  C   UNL     1      -2.074  14.916  21.115  0.00  0.00    +0.000 A 
ATOM     31  C   UNL     1      -2.033  13.528  21.338  0.00  0.00    +0.000 A 
ATOM     32 BR   UNL     1      -2.606  12.422  19.900  0.00  0.00    +0.000 Br
ENDBRANCH  25  26
ENDBRANCH  24  25
ENDBRANCH   6  24
TORSDOF 7
ENDMDL
MODEL 5
REMARK VINA RESULT:      -7.9      3.236     10.784
REMARK  Name = 
REMARK  10 active torsions:
REMARK  status: ('A' for Active; 'I' for Inactive)
REMARK    1  A    between atoms: C_1  and  O_2
REMARK    2  A    between atoms: O_2  and  C_3
REMARK    3  A    between atoms: C_5  and  O_6
REMARK    4  A    between atoms: O_6  and  C_7
REMARK    5  A    between atoms: C_8  and  C_9
REMARK    6  A    between atoms: C_14  and  O_15
REMARK    7  A    between atoms: O_15  and  C_16
REMARK    8  A    between atoms: C_16  and  C_17
REMARK    9  A    between atoms: C_30  and  O_31
REMARK   10  A    between atoms: O_31  and  C_32
REMARK                            x       y       z     vdW  Elec       q    Type
REMARK                         _______ _______ _______ _____ _____    ______ ____
ROOT
ATOM      1  C   UNL     1      -0.837  11.574  22.340  0.00  0.00    +0.000 A 
ATOM      2  C   UNL     1      -0.603  10.410  22.979  0.00  0.00    +0.000 A 
ATOM      3  O   UNL     1       0.382   9.482  22.694  0.00  0.00    +0.000 OA
ATOM      4  C   UNL     1       0.846   9.467  21.407  0.00  0.00    +0.000 A 
ATOM      5  C   UNL     1       1.493   8.326  20.943  0.00  0.00    +0.000 A 
ATOM      6  C   UNL     1       1.791   8.187  19.583  0.00  0.00    +0.000 A 
ATOM      7  C   UNL     1       1.440   9.209  18.696  0.00  0.00    +0.000 A 
ATOM      8  C   UNL     1       0.891  10.407  19.188  0.00  0.00    +0.000 A 
ATOM      9  C   UNL     1       0.619  10.531  20.553  0.00  0.00    +0.000 A 
ATOM     10  C   UNL     1       0.088  11.761  21.159  0.00  0.00    +0.000 A 
ATOM     11  O   UNL     1       0.441  12.838  20.700  0.00  0.00    +0.000 OA
ENDROOT
BRANCH   1  15
ATOM     12  C   UNL     1      -4.012  14.385  23.466  0.00  0.00    +0.000 A 
ATOM     13  C   UNL     1      -2.668  14.754  23.582  0.00  0.00    +0.000 A 
ATOM     14  C   UNL     1      -1.615  13.886  23.242  0.00  0.00    +0.000 A 
ATOM     15  C   UNL     1      -1.887  12.584  22.740  0.00  0.00    +0.000 A 
ATOM     16  C   UNL     1      -3.245  12.246  22.639  0.00  0.00    +0.000 A 
ATOM     17  C   UNL     1      -4.301  13.103  23.012  0.00  0.00    +0.000 A 
BRANCH  12  19
ATOM     18  C   UNL     1      -5.367  16.246  22.851  0.00  0.00    +0.000 C 
ATOM     19  O   UNL     1      -5.038  15.231  23.791  0.00  0.00    +0.000 OA
ENDBRANCH  12  19
BRANCH  14  20
ATOM     20  O   UNL     1      -0.306  14.285  23.366  0.00  0.00    +0.000 OA
ATOM     21  C   UNL     1       0.012  15.618  22.969  0.00  0.00    +0.000 C 
ENDBRANCH  14  20
BRANCH  17  22
ATOM     22  O   UNL     1      -5.529  12.518  22.826  0.00  0.00    +0.000 OA
ATOM     23  C   UNL     1      -6.073  12.467  21.517  0.00  0.00    +0.000 C 
ENDBRANCH  17  22
ENDBRANCH   1  15
BRANCH   6  24
ATOM     24  O   UNL     1       2.333   6.973  19.269  0.00  0.00    +0.000 OA
BRANCH  24  25
ATOM     25  C   UNL     1       2.039   5.843  20.102  0.00  0.00    +0.000 C 
BRANCH  25  26
ATOM     26  C   UNL     1       2.219   4.562  19.295  0.00  0.00    +0.000 A 
ATOM     27  C   UNL     1       2.382   4.634  17.893  0.00  0.00    +0.000 A 
ATOM     28  C   UNL     1       2.553   3.481  17.111  0.00  0.00    +0.000 A 
ATOM     29  C   UNL     1       2.551   2.230  17.714  0.00  0.00    +0.000 A 
ATOM     30  C   UNL     1       2.360   2.127  19.093  0.00  0.00    +0.000 A 
ATOM     31  C   UNL     1       2.188   3.285  19.873  0.00  0.00    +0.000 A 
ATOM     32 BR   UNL     1       1.898   3.016  21.734  0.00  0.00    +0.000 Br
ENDBRANCH  25  26
ENDBRANCH  24  25
ENDBRANCH   6  24
TORSDOF 7
ENDMDL
MODEL 6
REMARK VINA RESULT:      -7.9      1.083      1.159
REMARK  Name = 
REMARK  10 active torsions:
REMARK  status: ('A' for Active; 'I' for Inactive)
REMARK    1  A    between atoms: C_1  and  O_2
REMARK    2  A    between atoms: O_2  and  C_3
REMARK    3  A    between atoms: C_5  and  O_6
REMARK    4  A    between atoms: O_6  and  C_7
REMARK    5  A    between atoms: C_8  and  C_9
REMARK    6  A    between atoms: C_14  and  O_15
REMARK    7  A    between atoms: O_15  and  C_16
REMARK    8  A    between atoms: C_16  and  C_17
REMARK    9  A    between atoms: C_30  and  O_31
REMARK   10  A    between atoms: O_31  and  C_32
REMARK                            x       y       z     vdW  Elec       q    Type
REMARK                         _______ _______ _______ _____ _____    ______ ____
ROOT
ATOM      1  C   UNL     1       2.530   7.250  18.842  0.00  0.00    +0.000 A 
ATOM      2  C   UNL     1       2.164   7.002  20.117  0.00  0.00    +0.000 A 
ATOM      3  O   UNL     1       1.249   7.708  20.876  0.00  0.00    +0.000 OA
ATOM      4  C   UNL     1       1.052   9.017  20.526  0.00  0.00    +0.000 A 
ATOM      5  C   UNL     1       0.503   9.884  21.464  0.00  0.00    +0.000 A 
ATOM      6  C   UNL     1       0.483  11.263  21.225  0.00  0.00    +0.000 A 
ATOM      7  C   UNL     1       1.012  11.759  20.031  0.00  0.00    +0.000 A 
ATOM      8  C   UNL     1       1.460  10.869  19.039  0.00  0.00    +0.000 A 
ATOM      9  C   UNL     1       1.454   9.494  19.292  0.00  0.00    +0.000 A 
ATOM     10  C   UNL     1       1.862   8.491  18.297  0.00  0.00    +0.000 A 
ATOM     11  O   UNL     1       1.616   8.704  17.118  0.00  0.00    +0.000 OA
ENDROOT
BRANCH   1  15
ATOM     12  C   UNL     1       5.418   4.924  16.496  0.00  0.00    +0.000 A 
ATOM     13  C   UNL     1       4.244   4.326  16.966  0.00  0.00    +0.000 A 
ATOM     14  C   UNL     1       3.293   5.026  17.729  0.00  0.00    +0.000 A 
ATOM     15  C   UNL     1       3.486   6.400  18.037  0.00  0.00    +0.000 A 
ATOM     16  C   UNL     1       4.674   6.968  17.553  0.00  0.00    +0.000 A 
ATOM     17  C   UNL     1       5.646   6.257  16.817  0.00  0.00    +0.000 A 
BRANCH  12  19
ATOM     18  C   UNL     1       6.173   4.257  14.337  0.00  0.00    +0.000 C 
ATOM     19  O   UNL     1       6.341   4.244  15.748  0.00  0.00    +0.000 OA
ENDBRANCH  12  19
BRANCH  14  20
ATOM     20  O   UNL     1       2.149   4.406  18.170  0.00  0.00    +0.000 OA
ATOM     21  C   UNL     1       2.036   3.002  17.943  0.00  0.00    +0.000 C 
ENDBRANCH  14  20
BRANCH  17  22
ATOM     22  O   UNL     1       6.717   7.047  16.481  0.00  0.00    +0.000 OA
ATOM     23  C   UNL     1       7.532   7.571  17.516  0.00  0.00    +0.000 C 
ENDBRANCH  17  22
ENDBRANCH   1  15
BRANCH   6  24
ATOM     24  O   UNL     1       0.005  11.988  22.281  0.00  0.00    +0.000 OA
BRANCH  24  25
ATOM     25  C   UNL     1      -0.565  13.281  22.034  0.00  0.00    +0.000 C 
BRANCH  25  26
ATOM     26  C   UNL     1      -1.882  13.403  22.791  0.00  0.00    +0.000 A 
ATOM     27  C   UNL     1      -2.533  12.237  23.257  0.00  0.00    +0.000 A 
ATOM     28  C   UNL     1      -3.746  12.302  23.960  0.00  0.00    +0.000 A 
ATOM     29  C   UNL     1      -4.342  13.534  24.199  0.00  0.00    +0.000 A 
ATOM     30  C   UNL     1      -3.737  14.700  23.723  0.00  0.00    +0.000 A 
ATOM     31  C   UNL     1      -2.522  14.630  23.019  0.00  0.00    +0.000 A 
ATOM     32 BR   UNL     1      -1.815  16.279  22.385  0.00  0.00    +0.000 Br
ENDBRANCH  25  26
ENDBRANCH  24  25
ENDBRANCH   6  24
TORSDOF 7
ENDMDL
MODEL 7
REMARK VINA RESULT:      -7.9      3.059     10.976
REMARK  Name = 
REMARK  10 active torsions:
REMARK  status: ('A' for Active; 'I' for Inactive)
REMARK    1  A    between atoms: C_1  and  O_2
REMARK    2  A    between atoms: O_2  and  C_3
REMARK    3  A    between atoms: C_5  and  O_6
REMARK    4  A    between atoms: O_6  and  C_7
REMARK    5  A    between atoms: C_8  and  C_9
REMARK    6  A    between atoms: C_14  and  O_15
REMARK    7  A    between atoms: O_15  and  C_16
REMARK    8  A    between atoms: C_16  and  C_17
REMARK    9  A    between atoms: C_30  and  O_31
REMARK   10  A    between atoms: O_31  and  C_32
REMARK                            x       y       z     vdW  Elec       q    Type
REMARK                         _______ _______ _______ _____ _____    ______ ____
ROOT
ATOM      1  C   UNL     1      -1.004  11.698  22.542  0.00  0.00    +0.000 A 
ATOM      2  C   UNL     1      -0.680  10.581  23.225  0.00  0.00    +0.000 A 
ATOM      3  O   UNL     1       0.348   9.699  22.946  0.00  0.00    +0.000 OA
ATOM      4  C   UNL     1       0.767   9.650  21.644  0.00  0.00    +0.000 A 
ATOM      5  C   UNL     1       1.464   8.527  21.209  0.00  0.00    +0.000 A 
ATOM      6  C   UNL     1       1.722   8.340  19.847  0.00  0.00    +0.000 A 
ATOM      7  C   UNL     1       1.281   9.297  18.927  0.00  0.00    +0.000 A 
ATOM      8  C   UNL     1       0.679  10.483  19.385  0.00  0.00    +0.000 A 
ATOM      9  C   UNL     1       0.447  10.656  20.752  0.00  0.00    +0.000 A 
ATOM     10  C   UNL     1      -0.134  11.882  21.320  0.00  0.00    +0.000 A 
ATOM     11  O   UNL     1       0.139  12.954  20.799  0.00  0.00    +0.000 OA
ENDROOT
BRANCH   1  15
ATOM     12  C   UNL     1      -4.301  14.377  23.640  0.00  0.00    +0.000 A 
ATOM     13  C   UNL     1      -2.974  14.787  23.802  0.00  0.00    +0.000 A 
ATOM     14  C   UNL     1      -1.883  13.962  23.473  0.00  0.00    +0.000 A 
ATOM     15  C   UNL     1      -2.098  12.664  22.935  0.00  0.00    +0.000 A 
ATOM     16  C   UNL     1      -3.441  12.284  22.788  0.00  0.00    +0.000 A 
ATOM     17  C   UNL     1      -4.535  13.098  23.150  0.00  0.00    +0.000 A 
BRANCH  12  19
ATOM     18  C   UNL     1      -5.070  16.465  24.493  0.00  0.00    +0.000 C 
ATOM     19  O   UNL     1      -5.363  15.182  23.955  0.00  0.00    +0.000 OA
ENDBRANCH  12  19
BRANCH  14  20
ATOM     20  O   UNL     1      -0.593  14.401  23.642  0.00  0.00    +0.000 OA
ATOM     21  C   UNL     1      -0.354  15.801  23.506  0.00  0.00    +0.000 C 
ENDBRANCH  14  20
BRANCH  17  22
ATOM     22  O   UNL     1      -5.737  12.477  22.917  0.00  0.00    +0.000 OA
ATOM     23  C   UNL     1      -6.371  12.661  21.661  0.00  0.00    +0.000 C 
ENDBRANCH  17  22
ENDBRANCH   1  15
BRANCH   6  24
ATOM     24  O   UNL     1       2.325   7.145  19.569  0.00  0.00    +0.000 OA
BRANCH  24  25
ATOM     25  C   UNL     1       2.574   6.794  18.201  0.00  0.00    +0.000 C 
BRANCH  25  26
ATOM     26  C   UNL     1       2.748   5.283  18.093  0.00  0.00    +0.000 A 
ATOM     27  C   UNL     1       1.609   4.452  17.992  0.00  0.00    +0.000 A 
ATOM     28  C   UNL     1       1.722   3.056  17.889  0.00  0.00    +0.000 A 
ATOM     29  C   UNL     1       2.978   2.462  17.901  0.00  0.00    +0.000 A 
ATOM     30  C   UNL     1       4.118   3.256  18.033  0.00  0.00    +0.000 A 
ATOM     31  C   UNL     1       4.001   4.654  18.136  0.00  0.00    +0.000 A 
ATOM     32 BR   UNL     1       5.621   5.626  18.351  0.00  0.00    +0.000 Br
ENDBRANCH  25  26
ENDBRANCH  24  25
ENDBRANCH   6  24
TORSDOF 7
ENDMDL
MODEL 8
REMARK VINA RESULT:      -7.8      2.999     10.343
REMARK  Name = 
REMARK  10 active torsions:
REMARK  status: ('A' for Active; 'I' for Inactive)
REMARK    1  A    between atoms: C_1  and  O_2
REMARK    2  A    between atoms: O_2  and  C_3
REMARK    3  A    between atoms: C_5  and  O_6
REMARK    4  A    between atoms: O_6  and  C_7
REMARK    5  A    between atoms: C_8  and  C_9
REMARK    6  A    between atoms: C_14  and  O_15
REMARK    7  A    between atoms: O_15  and  C_16
REMARK    8  A    between atoms: C_16  and  C_17
REMARK    9  A    between atoms: C_30  and  O_31
REMARK   10  A    between atoms: O_31  and  C_32
REMARK                            x       y       z     vdW  Elec       q    Type
REMARK                         _______ _______ _______ _____ _____    ______ ____
ROOT
ATOM      1  C   UNL     1      -0.255  10.487  20.806  0.00  0.00    +0.000 A 
ATOM      2  C   UNL     1      -0.155   9.416  21.620  0.00  0.00    +0.000 A 
ATOM      3  O   UNL     1       0.823   8.439  21.600  0.00  0.00    +0.000 OA
ATOM      4  C   UNL     1       1.458   8.241  20.404  0.00  0.00    +0.000 A 
ATOM      5  C   UNL     1       2.117   7.035  20.189  0.00  0.00    +0.000 A 
ATOM      6  C   UNL     1       2.592   6.707  18.915  0.00  0.00    +0.000 A 
ATOM      7  C   UNL     1       2.405   7.606  17.861  0.00  0.00    +0.000 A 
ATOM      8  C   UNL     1       1.840   8.870  18.109  0.00  0.00    +0.000 A 
ATOM      9  C   UNL     1       1.389   9.183  19.394  0.00  0.00    +0.000 A 
ATOM     10  C   UNL     1       0.828  10.495  19.753  0.00  0.00    +0.000 A 
ATOM     11  O   UNL     1       1.282  11.492  19.210  0.00  0.00    +0.000 OA
ENDROOT
BRANCH   1  15
ATOM     12  C   UNL     1      -3.257  13.650  21.299  0.00  0.00    +0.000 A 
ATOM     13  C   UNL     1      -3.174  12.934  20.100  0.00  0.00    +0.000 A 
ATOM     14  C   UNL     1      -2.224  11.918  19.891  0.00  0.00    +0.000 A 
ATOM     15  C   UNL     1      -1.310  11.563  20.919  0.00  0.00    +0.000 A 
ATOM     16  C   UNL     1      -1.418  12.303  22.107  0.00  0.00    +0.000 A 
ATOM     17  C   UNL     1      -2.348  13.345  22.305  0.00  0.00    +0.000 A 
BRANCH  12  19
ATOM     18  C   UNL     1      -3.808  15.964  21.169  0.00  0.00    +0.000 C 
ATOM     19  O   UNL     1      -4.185  14.635  21.505  0.00  0.00    +0.000 OA
ENDBRANCH  12  19
BRANCH  14  20
ATOM     20  O   UNL     1      -2.177  11.233  18.701  0.00  0.00    +0.000 OA
ATOM     21  C   UNL     1      -3.287  11.378  17.817  0.00  0.00    +0.000 C 
ENDBRANCH  14  20
BRANCH  17  22
ATOM     22  O   UNL     1      -2.228  13.911  23.550  0.00  0.00    +0.000 OA
ATOM     23  C   UNL     1      -1.113  14.746  23.819  0.00  0.00    +0.000 C 
ENDBRANCH  17  22
ENDBRANCH   1  15
BRANCH   6  24
ATOM     24  O   UNL     1       3.125   5.451  18.843  0.00  0.00    +0.000 OA
BRANCH  24  25
ATOM     25  C   UNL     1       4.516   5.267  19.142  0.00  0.00    +0.000 C 
BRANCH  25  26
ATOM     26  C   UNL     1       5.271   4.960  17.855  0.00  0.00    +0.000 A 
ATOM     27  C   UNL     1       4.576   4.431  16.743  0.00  0.00    +0.000 A 
ATOM     28  C   UNL     1       5.231   4.135  15.537  0.00  0.00    +0.000 A 
ATOM     29  C   UNL     1       6.599   4.348  15.423  0.00  0.00    +0.000 A 
ATOM     30  C   UNL     1       7.317   4.838  16.516  0.00  0.00    +0.000 A 
ATOM     31  C   UNL     1       6.657   5.134  17.722  0.00  0.00    +0.000 A 
ATOM     32 BR   UNL     1       7.745   5.759  19.151  0.00  0.00    +0.000 Br
ENDBRANCH  25  26
ENDBRANCH  24  25
ENDBRANCH   6  24
TORSDOF 7
ENDMDL
MODEL 9
REMARK VINA RESULT:      -7.8      3.285     10.616
REMARK  Name = 
REMARK  10 active torsions:
REMARK  status: ('A' for Active; 'I' for Inactive)
REMARK    1  A    between atoms: C_1  and  O_2
REMARK    2  A    between atoms: O_2  and  C_3
REMARK    3  A    between atoms: C_5  and  O_6
REMARK    4  A    between atoms: O_6  and  C_7
REMARK    5  A    between atoms: C_8  and  C_9
REMARK    6  A    between atoms: C_14  and  O_15
REMARK    7  A    between atoms: O_15  and  C_16
REMARK    8  A    between atoms: C_16  and  C_17
REMARK    9  A    between atoms: C_30  and  O_31
REMARK   10  A    between atoms: O_31  and  C_32
REMARK                            x       y       z     vdW  Elec       q    Type
REMARK                         _______ _______ _______ _____ _____    ______ ____
ROOT
ATOM      1  C   UNL     1      -1.067  11.481  22.176  0.00  0.00    +0.000 A 
ATOM      2  C   UNL     1      -0.883  10.351  22.889  0.00  0.00    +0.000 A 
ATOM      3  O   UNL     1       0.138   9.429  22.745  0.00  0.00    +0.000 OA
ATOM      4  C   UNL     1       0.729   9.366  21.512  0.00  0.00    +0.000 A 
ATOM      5  C   UNL     1       1.434   8.217  21.167  0.00  0.00    +0.000 A 
ATOM      6  C   UNL     1       1.868   8.023  19.851  0.00  0.00    +0.000 A 
ATOM      7  C   UNL     1       1.594   8.998  18.888  0.00  0.00    +0.000 A 
ATOM      8  C   UNL     1       0.982  10.207  19.268  0.00  0.00    +0.000 A 
ATOM      9  C   UNL     1       0.573  10.386  20.592  0.00  0.00    +0.000 A 
ATOM     10  C   UNL     1      -0.032  11.632  21.085  0.00  0.00    +0.000 A 
ATOM     11  O   UNL     1       0.351  12.694  20.614  0.00  0.00    +0.000 OA
ENDROOT
BRANCH   1  15
ATOM     12  C   UNL     1      -4.189  14.435  23.060  0.00  0.00    +0.000 A 
ATOM     13  C   UNL     1      -4.123  13.832  21.800  0.00  0.00    +0.000 A 
ATOM     14  C   UNL     1      -3.137  12.887  21.466  0.00  0.00    +0.000 A 
ATOM     15  C   UNL     1      -2.165  12.489  22.424  0.00  0.00    +0.000 A 
ATOM     16  C   UNL     1      -2.257  13.116  23.676  0.00  0.00    +0.000 A 
ATOM     17  C   UNL     1      -3.225  14.090  24.001  0.00  0.00    +0.000 A 
BRANCH  12  19
ATOM     18  C   UNL     1      -6.370  15.303  22.657  0.00  0.00    +0.000 C 
ATOM     19  O   UNL     1      -5.152  15.351  23.388  0.00  0.00    +0.000 OA
ENDBRANCH  12  19
BRANCH  14  20
ATOM     20  O   UNL     1      -3.107  12.311  20.218  0.00  0.00    +0.000 OA
ATOM     21  C   UNL     1      -4.329  12.282  19.482  0.00  0.00    +0.000 C 
ENDBRANCH  14  20
BRANCH  17  22
ATOM     22  O   UNL     1      -3.080  14.550  25.286  0.00  0.00    +0.000 OA
ATOM     23  C   UNL     1      -1.974  15.383  25.594  0.00  0.00    +0.000 C 
ENDBRANCH  17  22
ENDBRANCH   1  15
BRANCH   6  24
ATOM     24  O   UNL     1       2.455   6.806  19.649  0.00  0.00    +0.000 OA
BRANCH  24  25
ATOM     25  C   UNL     1       1.901   5.650  20.293  0.00  0.00    +0.000 C 
BRANCH  25  26
ATOM     26  C   UNL     1       2.113   4.430  19.405  0.00  0.00    +0.000 A 
ATOM     27  C   UNL     1       2.349   4.601  18.021  0.00  0.00    +0.000 A 
ATOM     28  C   UNL     1       2.551   3.506  17.167  0.00  0.00    +0.000 A 
ATOM     29  C   UNL     1       2.509   2.214  17.677  0.00  0.00    +0.000 A 
ATOM     30  C   UNL     1       2.246   2.014  19.033  0.00  0.00    +0.000 A 
ATOM     31  C   UNL     1       2.043   3.114  19.886  0.00  0.00    +0.000 A 
ATOM     32 BR   UNL     1       1.655   2.715  21.705  0.00  0.00    +0.000 Br
ENDBRANCH  25  26
ENDBRANCH  24  25
ENDBRANCH   6  24
TORSDOF 7
ENDMDL
