MODEL 1
REMARK VINA RESULT:      -7.5      0.000      0.000
REMARK  Name = 
REMARK  5 active torsions:
REMARK  status: ('A' for Active; 'I' for Inactive)
REMARK    1  A    between atoms: C_2  and  C_3
REMARK    2  A    between atoms: C_6  and  C_7
REMARK    3  A    between atoms: N_9  and  N_10
REMARK    4  A    between atoms: C_11  and  C_12
REMARK    5  A    between atoms: C_19  and  O_20
REMARK                            x       y       z     vdW  Elec       q    Type
REMARK                         _______ _______ _______ _____ _____    ______ ____
ROOT
ATOM      1  C   UNL     1       8.480   9.256  18.465  0.00  0.00    +0.000 C 
ATOM      2  O   UNL     1       7.582   9.401  17.638  0.00  0.00    +0.000 OA
ATOM      3  N   UNL     1       8.801   8.032  19.048  0.00  0.00    +0.000 N 
ATOM      4  H   UNL     1       9.525   7.930  19.744  0.00  0.00    +0.000 HD
ENDROOT
BRANCH   1   8
ATOM      5  C   UNL     1      10.764  12.800  19.462  0.00  0.00    +0.000 A 
ATOM      6  C   UNL     1      10.370  12.532  18.151  0.00  0.00    +0.000 A 
ATOM      7  C   UNL     1       9.632  11.376  17.863  0.00  0.00    +0.000 A 
ATOM      8  C   UNL     1       9.274  10.465  18.874  0.00  0.00    +0.000 A 
ATOM      9  C   UNL     1       9.681  10.738  20.187  0.00  0.00    +0.000 A 
ATOM     10  C   UNL     1      10.420  11.898  20.476  0.00  0.00    +0.000 A 
BRANCH   5  12
ATOM     11  N   UNL     1      12.126  14.940  20.013  0.00  0.00    +0.000 NA
ATOM     12  C   UNL     1      11.515  13.985  19.768  0.00  0.00    +0.000 C 
ENDBRANCH   5  12
ENDBRANCH   1   8
BRANCH   3  13
ATOM     13  N   UNL     1       8.077   6.925  18.696  0.00  0.00    +0.000 NA
ATOM     14  C   UNL     1       7.468   6.964  17.552  0.00  0.00    +0.000 C 
BRANCH  14  15
ATOM     15  C   UNL     1       6.680   5.809  17.061  0.00  0.00    +0.000 A 
ATOM     16  C   UNL     1       6.783   5.415  15.720  0.00  0.00    +0.000 A 
ATOM     17  C   UNL     1       6.016   4.348  15.249  0.00  0.00    +0.000 A 
ATOM     18 BR   UNL     1       6.161   3.812  13.441  0.00  0.00    +0.000 Br
ATOM     19  C   UNL     1       5.137   3.674  16.094  0.00  0.00    +0.000 A 
ATOM     20  C   UNL     1       5.037   4.068  17.429  0.00  0.00    +0.000 A 
ATOM     21 BR   UNL     1       3.822   3.150  18.560  0.00  0.00    +0.000 Br
ATOM     22  C   UNL     1       5.812   5.127  17.920  0.00  0.00    +0.000 A 
BRANCH  22  23
ATOM     23  O   UNL     1       5.720   5.511  19.232  0.00  0.00    +0.000 OA
ATOM     24  H   UNL     1       6.148   6.385  19.317  0.00  0.00    +0.000 HD
ENDBRANCH  22  23
ENDBRANCH  14  15
ENDBRANCH   3  13
TORSDOF 5
ENDMDL
MODEL 2
REMARK VINA RESULT:      -7.4      7.379      8.411
REMARK  Name = 
REMARK  5 active torsions:
REMARK  status: ('A' for Active; 'I' for Inactive)
REMARK    1  A    between atoms: C_2  and  C_3
REMARK    2  A    between atoms: C_6  and  C_7
REMARK    3  A    between atoms: N_9  and  N_10
REMARK    4  A    between atoms: C_11  and  C_12
REMARK    5  A    between atoms: C_19  and  O_20
REMARK                            x       y       z     vdW  Elec       q    Type
REMARK                         _______ _______ _______ _____ _____    ______ ____
ROOT
ATOM      1  C   UNL     1       0.780   9.538  20.000  0.00  0.00    +0.000 C 
ATOM      2  O   UNL     1       0.905   9.952  18.849  0.00  0.00    +0.000 OA
ATOM      3  N   UNL     1       1.389   8.378  20.473  0.00  0.00    +0.000 N 
ATOM      4  H   UNL     1       1.259   8.036  21.414  0.00  0.00    +0.000 HD
ENDROOT
BRANCH   1   8
ATOM      5  C   UNL     1      -1.742  11.921  22.594  0.00  0.00    +0.000 A 
ATOM      6  C   UNL     1      -1.530  12.273  21.261  0.00  0.00    +0.000 A 
ATOM      7  C   UNL     1      -0.708  11.480  20.449  0.00  0.00    +0.000 A 
ATOM      8  C   UNL     1      -0.081  10.323  20.949  0.00  0.00    +0.000 A 
ATOM      9  C   UNL     1      -0.294   9.982  22.292  0.00  0.00    +0.000 A 
ATOM     10  C   UNL     1      -1.120  10.777  23.106  0.00  0.00    +0.000 A 
BRANCH   5  12
ATOM     11  N   UNL     1      -3.269  13.377  24.108  0.00  0.00    +0.000 NA
ATOM     12  C   UNL     1      -2.588  12.724  23.432  0.00  0.00    +0.000 C 
ENDBRANCH   5  12
ENDBRANCH   1   8
BRANCH   3  13
ATOM     13  N   UNL     1       2.164   7.645  19.615  0.00  0.00    +0.000 NA
ATOM     14  C   UNL     1       2.235   6.369  19.835  0.00  0.00    +0.000 C 
BRANCH  14  15
ATOM     15  C   UNL     1       3.023   5.479  18.950  0.00  0.00    +0.000 A 
ATOM     16  C   UNL     1       3.765   6.026  17.895  0.00  0.00    +0.000 A 
ATOM     17  C   UNL     1       4.481   5.185  17.041  0.00  0.00    +0.000 A 
ATOM     18 BR   UNL     1       5.487   5.924  15.621  0.00  0.00    +0.000 Br
ATOM     19  C   UNL     1       4.459   3.803  17.218  0.00  0.00    +0.000 A 
ATOM     20  C   UNL     1       3.722   3.262  18.272  0.00  0.00    +0.000 A 
ATOM     21 BR   UNL     1       3.689   1.377  18.486  0.00  0.00    +0.000 Br
ATOM     22  C   UNL     1       3.009   4.094  19.145  0.00  0.00    +0.000 A 
BRANCH  22  23
ATOM     23  O   UNL     1       2.289   3.565  20.184  0.00  0.00    +0.000 OA
ATOM     24  H   UNL     1       1.619   2.963  19.806  0.00  0.00    +0.000 HD
ENDBRANCH  22  23
ENDBRANCH  14  15
ENDBRANCH   3  13
TORSDOF 5
ENDMDL
MODEL 3
REMARK VINA RESULT:      -7.3      7.048      8.101
REMARK  Name = 
REMARK  5 active torsions:
REMARK  status: ('A' for Active; 'I' for Inactive)
REMARK    1  A    between atoms: C_2  and  C_3
REMARK    2  A    between atoms: C_6  and  C_7
REMARK    3  A    between atoms: N_9  and  N_10
REMARK    4  A    between atoms: C_11  and  C_12
REMARK    5  A    between atoms: C_19  and  O_20
REMARK                            x       y       z     vdW  Elec       q    Type
REMARK                         _______ _______ _______ _____ _____    ______ ____
ROOT
ATOM      1  C   UNL     1       0.769   8.577  20.956  0.00  0.00    +0.000 C 
ATOM      2  O   UNL     1       0.451   7.562  21.574  0.00  0.00    +0.000 OA
ATOM      3  N   UNL     1       1.691   8.588  19.913  0.00  0.00    +0.000 N 
ATOM      4  H   UNL     1       1.962   9.432  19.430  0.00  0.00    +0.000 HD
ENDROOT
BRANCH   1   8
ATOM      5  C   UNL     1      -1.121  12.251  22.258  0.00  0.00    +0.000 A 
ATOM      6  C   UNL     1      -1.127  11.108  23.056  0.00  0.00    +0.000 A 
ATOM      7  C   UNL     1      -0.507   9.935  22.604  0.00  0.00    +0.000 A 
ATOM      8  C   UNL     1       0.130   9.879  21.350  0.00  0.00    +0.000 A 
ATOM      9  C   UNL     1       0.125  11.031  20.552  0.00  0.00    +0.000 A 
ATOM     10  C   UNL     1      -0.496  12.208  21.006  0.00  0.00    +0.000 A 
BRANCH   5  12
ATOM     11  N   UNL     1      -2.257  14.433  23.088  0.00  0.00    +0.000 NA
ATOM     12  C   UNL     1      -1.749  13.459  22.715  0.00  0.00    +0.000 C 
ENDBRANCH   5  12
ENDBRANCH   1   8
BRANCH   3  13
ATOM     13  N   UNL     1       2.292   7.411  19.553  0.00  0.00    +0.000 NA
ATOM     14  C   UNL     1       2.660   7.296  18.315  0.00  0.00    +0.000 C 
BRANCH  14  15
ATOM     15  C   UNL     1       3.344   6.076  17.827  0.00  0.00    +0.000 A 
ATOM     16  C   UNL     1       4.485   6.193  17.020  0.00  0.00    +0.000 A 
ATOM     17  C   UNL     1       5.111   5.044  16.532  0.00  0.00    +0.000 A 
ATOM     18 BR   UNL     1       6.653   5.202  15.451  0.00  0.00    +0.000 Br
ATOM     19  C   UNL     1       4.608   3.779  16.828  0.00  0.00    +0.000 A 
ATOM     20  C   UNL     1       3.474   3.665  17.633  0.00  0.00    +0.000 A 
ATOM     21 BR   UNL     1       2.794   1.935  18.009  0.00  0.00    +0.000 Br
ATOM     22  C   UNL     1       2.844   4.809  18.142  0.00  0.00    +0.000 A 
BRANCH  22  23
ATOM     23  O   UNL     1       1.733   4.699  18.937  0.00  0.00    +0.000 OA
ATOM     24  H   UNL     1       0.947   4.793  18.365  0.00  0.00    +0.000 HD
ENDBRANCH  22  23
ENDBRANCH  14  15
ENDBRANCH   3  13
TORSDOF 5
ENDMDL
MODEL 4
REMARK VINA RESULT:      -7.3      8.195     11.225
REMARK  Name = 
REMARK  5 active torsions:
REMARK  status: ('A' for Active; 'I' for Inactive)
REMARK    1  A    between atoms: C_2  and  C_3
REMARK    2  A    between atoms: C_6  and  C_7
REMARK    3  A    between atoms: N_9  and  N_10
REMARK    4  A    between atoms: C_11  and  C_12
REMARK    5  A    between atoms: C_19  and  O_20
REMARK                            x       y       z     vdW  Elec       q    Type
REMARK                         _______ _______ _______ _____ _____    ______ ____
ROOT
ATOM      1  C   UNL     1       1.818   7.794  20.189  0.00  0.00    +0.000 C 
ATOM      2  O   UNL     1       1.827   8.619  19.277  0.00  0.00    +0.000 OA
ATOM      3  N   UNL     1       1.502   8.107  21.509  0.00  0.00    +0.000 N 
ATOM      4  H   UNL     1       1.522   7.425  22.254  0.00  0.00    +0.000 HD
ENDROOT
BRANCH   1   8
ATOM      5  C   UNL     1       2.915   3.750  19.088  0.00  0.00    +0.000 A 
ATOM      6  C   UNL     1       3.164   4.829  18.240  0.00  0.00    +0.000 A 
ATOM      7  C   UNL     1       2.796   6.124  18.626  0.00  0.00    +0.000 A 
ATOM      8  C   UNL     1       2.172   6.370  19.864  0.00  0.00    +0.000 A 
ATOM      9  C   UNL     1       1.920   5.280  20.707  0.00  0.00    +0.000 A 
ATOM     10  C   UNL     1       2.291   3.980  20.320  0.00  0.00    +0.000 A 
BRANCH   5  12
ATOM     11  N   UNL     1       3.605   1.347  18.392  0.00  0.00    +0.000 NA
ATOM     12  C   UNL     1       3.294   2.420  18.703  0.00  0.00    +0.000 C 
ENDBRANCH   5  12
ENDBRANCH   1   8
BRANCH   3  13
ATOM     13  N   UNL     1       1.191   9.403  21.822  0.00  0.00    +0.000 NA
ATOM     14  C   UNL     1      -0.066   9.719  21.823  0.00  0.00    +0.000 C 
BRANCH  14  15
ATOM     15  C   UNL     1      -0.514  11.088  22.175  0.00  0.00    +0.000 A 
ATOM     16  C   UNL     1      -1.689  11.266  22.918  0.00  0.00    +0.000 A 
ATOM     17  C   UNL     1      -2.130  12.555  23.222  0.00  0.00    +0.000 A 
ATOM     18 BR   UNL     1      -3.711  12.795  24.230  0.00  0.00    +0.000 Br
ATOM     19  C   UNL     1      -1.420  13.672  22.785  0.00  0.00    +0.000 A 
ATOM     20  C   UNL     1      -0.249  13.492  22.047  0.00  0.00    +0.000 A 
ATOM     21 BR   UNL     1       0.693  15.024  21.446  0.00  0.00    +0.000 Br
ATOM     22  C   UNL     1       0.213  12.203  21.747  0.00  0.00    +0.000 A 
BRANCH  22  23
ATOM     23  O   UNL     1       1.365  12.024  21.028  0.00  0.00    +0.000 OA
ATOM     24  H   UNL     1       2.059  11.723  21.647  0.00  0.00    +0.000 HD
ENDBRANCH  22  23
ENDBRANCH  14  15
ENDBRANCH   3  13
TORSDOF 5
ENDMDL
MODEL 5
REMARK VINA RESULT:      -7.3      0.350      1.058
REMARK  Name = 
REMARK  5 active torsions:
REMARK  status: ('A' for Active; 'I' for Inactive)
REMARK    1  A    between atoms: C_2  and  C_3
REMARK    2  A    between atoms: C_6  and  C_7
REMARK    3  A    between atoms: N_9  and  N_10
REMARK    4  A    between atoms: C_11  and  C_12
REMARK    5  A    between atoms: C_19  and  O_20
REMARK                            x       y       z     vdW  Elec       q    Type
REMARK                         _______ _______ _______ _____ _____    ______ ____
ROOT
ATOM      1  C   UNL     1       8.487   9.446  18.351  0.00  0.00    +0.000 C 
ATOM      2  O   UNL     1       7.571   9.503  17.532  0.00  0.00    +0.000 OA
ATOM      3  N   UNL     1       8.875   8.275  18.996  0.00  0.00    +0.000 N 
ATOM      4  H   UNL     1       9.613   8.247  19.685  0.00  0.00    +0.000 HD
ENDROOT
BRANCH   1   8
ATOM      5  C   UNL     1      10.686  13.014  19.449  0.00  0.00    +0.000 A 
ATOM      6  C   UNL     1      10.652  11.895  20.281  0.00  0.00    +0.000 A 
ATOM      7  C   UNL     1       9.930  10.757  19.896  0.00  0.00    +0.000 A 
ATOM      8  C   UNL     1       9.229  10.712  18.676  0.00  0.00    +0.000 A 
ATOM      9  C   UNL     1       9.264  11.844  17.850  0.00  0.00    +0.000 A 
ATOM     10  C   UNL     1       9.989  12.985  18.236  0.00  0.00    +0.000 A 
BRANCH   5  12
ATOM     11  N   UNL     1      12.023  15.128  20.143  0.00  0.00    +0.000 NA
ATOM     12  C   UNL     1      11.428  14.182  19.833  0.00  0.00    +0.000 C 
ENDBRANCH   5  12
ENDBRANCH   1   8
BRANCH   3  13
ATOM     13  N   UNL     1       8.198   7.117  18.720  0.00  0.00    +0.000 NA
ATOM     14  C   UNL     1       7.427   7.124  17.678  0.00  0.00    +0.000 C 
BRANCH  14  15
ATOM     15  C   UNL     1       6.670   5.916  17.273  0.00  0.00    +0.000 A 
ATOM     16  C   UNL     1       6.676   5.508  15.931  0.00  0.00    +0.000 A 
ATOM     17  C   UNL     1       5.937   4.389  15.543  0.00  0.00    +0.000 A 
ATOM     18 BR   UNL     1       5.951   3.836  13.735  0.00  0.00    +0.000 Br
ATOM     19  C   UNL     1       5.183   3.676  16.472  0.00  0.00    +0.000 A 
ATOM     20  C   UNL     1       5.181   4.082  17.807  0.00  0.00    +0.000 A 
ATOM     21 BR   UNL     1       4.133   3.109  19.053  0.00  0.00    +0.000 Br
ATOM     22  C   UNL     1       5.929   5.195  18.214  0.00  0.00    +0.000 A 
BRANCH  22  23
ATOM     23  O   UNL     1       5.933   5.592  19.526  0.00  0.00    +0.000 OA
ATOM     24  H   UNL     1       5.718   4.813  20.074  0.00  0.00    +0.000 HD
ENDBRANCH  22  23
ENDBRANCH  14  15
ENDBRANCH   3  13
TORSDOF 5
ENDMDL
MODEL 6
REMARK VINA RESULT:      -7.3      8.247     11.293
REMARK  Name = 
REMARK  5 active torsions:
REMARK  status: ('A' for Active; 'I' for Inactive)
REMARK    1  A    between atoms: C_2  and  C_3
REMARK    2  A    between atoms: C_6  and  C_7
REMARK    3  A    between atoms: N_9  and  N_10
REMARK    4  A    between atoms: C_11  and  C_12
REMARK    5  A    between atoms: C_19  and  O_20
REMARK                            x       y       z     vdW  Elec       q    Type
REMARK                         _______ _______ _______ _____ _____    ______ ____
ROOT
ATOM      1  C   UNL     1       1.795   7.986  20.124  0.00  0.00    +0.000 C 
ATOM      2  O   UNL     1       1.761   8.862  19.261  0.00  0.00    +0.000 OA
ATOM      3  N   UNL     1       1.490   8.210  21.464  0.00  0.00    +0.000 N 
ATOM      4  H   UNL     1       1.545   7.488  22.167  0.00  0.00    +0.000 HD
ENDROOT
BRANCH   1   8
ATOM      5  C   UNL     1       2.855   3.914  19.092  0.00  0.00    +0.000 A 
ATOM      6  C   UNL     1       2.183   4.213  20.277  0.00  0.00    +0.000 A 
ATOM      7  C   UNL     1       1.856   5.541  20.581  0.00  0.00    +0.000 A 
ATOM      8  C   UNL     1       2.192   6.596  19.711  0.00  0.00    +0.000 A 
ATOM      9  C   UNL     1       2.872   6.286  18.526  0.00  0.00    +0.000 A 
ATOM     10  C   UNL     1       3.200   4.953  18.221  0.00  0.00    +0.000 A 
BRANCH   5  12
ATOM     11  N   UNL     1       3.458   1.458  18.505  0.00  0.00    +0.000 NA
ATOM     12  C   UNL     1       3.189   2.555  18.770  0.00  0.00    +0.000 C 
ENDBRANCH   5  12
ENDBRANCH   1   8
BRANCH   3  13
ATOM     13  N   UNL     1       1.141   9.475  21.856  0.00  0.00    +0.000 NA
ATOM     14  C   UNL     1      -0.114   9.788  21.772  0.00  0.00    +0.000 C 
BRANCH  14  15
ATOM     15  C   UNL     1      -0.604  11.121  22.197  0.00  0.00    +0.000 A 
ATOM     16  C   UNL     1      -1.788  11.223  22.940  0.00  0.00    +0.000 A 
ATOM     17  C   UNL     1      -2.268  12.480  23.312  0.00  0.00    +0.000 A 
ATOM     18 BR   UNL     1      -3.862  12.617  24.320  0.00  0.00    +0.000 Br
ATOM     19  C   UNL     1      -1.588  13.640  22.944  0.00  0.00    +0.000 A 
ATOM     20  C   UNL     1      -0.409  13.535  22.207  0.00  0.00    +0.000 A 
ATOM     21 BR   UNL     1       0.492  15.126  21.699  0.00  0.00    +0.000 Br
ATOM     22  C   UNL     1       0.092  12.279  21.838  0.00  0.00    +0.000 A 
BRANCH  22  23
ATOM     23  O   UNL     1       1.254  12.174  21.119  0.00  0.00    +0.000 OA
ATOM     24  H   UNL     1       1.978  12.532  21.668  0.00  0.00    +0.000 HD
ENDBRANCH  22  23
ENDBRANCH  14  15
ENDBRANCH   3  13
TORSDOF 5
ENDMDL
MODEL 7
REMARK VINA RESULT:      -7.3      7.549      9.634
REMARK  Name = 
REMARK  5 active torsions:
REMARK  status: ('A' for Active; 'I' for Inactive)
REMARK    1  A    between atoms: C_2  and  C_3
REMARK    2  A    between atoms: C_6  and  C_7
REMARK    3  A    between atoms: N_9  and  N_10
REMARK    4  A    between atoms: C_11  and  C_12
REMARK    5  A    between atoms: C_19  and  O_20
REMARK                            x       y       z     vdW  Elec       q    Type
REMARK                         _______ _______ _______ _____ _____    ______ ____
ROOT
ATOM      1  C   UNL     1       2.285   7.436  19.321  0.00  0.00    +0.000 C 
ATOM      2  O   UNL     1       1.732   6.964  20.313  0.00  0.00    +0.000 OA
ATOM      3  N   UNL     1       1.865   8.602  18.685  0.00  0.00    +0.000 N 
ATOM      4  H   UNL     1       2.314   8.965  17.856  0.00  0.00    +0.000 HD
ENDROOT
BRANCH   1   8
ATOM      5  C   UNL     1       5.722   5.473  17.558  0.00  0.00    +0.000 A 
ATOM      6  C   UNL     1       5.078   6.530  16.915  0.00  0.00    +0.000 A 
ATOM      7  C   UNL     1       3.968   7.143  17.513  0.00  0.00    +0.000 A 
ATOM      8  C   UNL     1       3.479   6.714  18.761  0.00  0.00    +0.000 A 
ATOM      9  C   UNL     1       4.128   5.647  19.396  0.00  0.00    +0.000 A 
ATOM     10  C   UNL     1       5.242   5.032  18.797  0.00  0.00    +0.000 A 
BRANCH   5  12
ATOM     11  N   UNL     1       7.783   4.333  16.466  0.00  0.00    +0.000 NA
ATOM     12  C   UNL     1       6.863   4.843  16.956  0.00  0.00    +0.000 C 
ENDBRANCH   5  12
ENDBRANCH   1   8
BRANCH   3  13
ATOM     13  N   UNL     1       0.771   9.262  19.175  0.00  0.00    +0.000 NA
ATOM     14  C   UNL     1       0.136  10.036  18.351  0.00  0.00    +0.000 C 
BRANCH  14  15
ATOM     15  C   UNL     1      -1.078  10.775  18.771  0.00  0.00    +0.000 A 
ATOM     16  C   UNL     1      -2.207  10.789  17.940  0.00  0.00    +0.000 A 
ATOM     17  C   UNL     1      -3.339  11.512  18.320  0.00  0.00    +0.000 A 
ATOM     18 BR   UNL     1      -4.863  11.525  17.202  0.00  0.00    +0.000 Br
ATOM     19  C   UNL     1      -3.358  12.232  19.512  0.00  0.00    +0.000 A 
ATOM     20  C   UNL     1      -2.234  12.215  20.339  0.00  0.00    +0.000 A 
ATOM     21 BR   UNL     1      -2.272  13.216  21.949  0.00  0.00    +0.000 Br
ATOM     22  C   UNL     1      -1.095  11.481  19.978  0.00  0.00    +0.000 A 
BRANCH  22  23
ATOM     23  O   UNL     1       0.008  11.458  20.791  0.00  0.00    +0.000 OA
ATOM     24  H   UNL     1       0.549  10.686  20.537  0.00  0.00    +0.000 HD
ENDBRANCH  22  23
ENDBRANCH  14  15
ENDBRANCH   3  13
TORSDOF 5
ENDMDL
MODEL 8
REMARK VINA RESULT:      -7.3      6.479      7.062
REMARK  Name = 
REMARK  5 active torsions:
REMARK  status: ('A' for Active; 'I' for Inactive)
REMARK    1  A    between atoms: C_2  and  C_3
REMARK    2  A    between atoms: C_6  and  C_7
REMARK    3  A    between atoms: N_9  and  N_10
REMARK    4  A    between atoms: C_11  and  C_12
REMARK    5  A    between atoms: C_19  and  O_20
REMARK                            x       y       z     vdW  Elec       q    Type
REMARK                         _______ _______ _______ _____ _____    ______ ____
ROOT
ATOM      1  C   UNL     1       1.348  11.026  18.743  0.00  0.00    +0.000 C 
ATOM      2  O   UNL     1       0.835  10.474  19.716  0.00  0.00    +0.000 OA
ATOM      3  N   UNL     1       1.890  10.335  17.662  0.00  0.00    +0.000 N 
ATOM      4  H   UNL     1       2.330  10.799  16.881  0.00  0.00    +0.000 HD
ENDROOT
BRANCH   1   8
ATOM      5  C   UNL     1       1.661  15.344  18.610  0.00  0.00    +0.000 A 
ATOM      6  C   UNL     1       2.736  14.526  18.266  0.00  0.00    +0.000 A 
ATOM      7  C   UNL     1       2.601  13.132  18.321  0.00  0.00    +0.000 A 
ATOM      8  C   UNL     1       1.394  12.528  18.720  0.00  0.00    +0.000 A 
ATOM      9  C   UNL     1       0.322  13.358  19.070  0.00  0.00    +0.000 A 
ATOM     10  C   UNL     1       0.456  14.757  19.015  0.00  0.00    +0.000 A 
BRANCH   5  12
ATOM     11  N   UNL     1       1.895  17.928  18.505  0.00  0.00    +0.000 NA
ATOM     12  C   UNL     1       1.788  16.774  18.552  0.00  0.00    +0.000 C 
ENDBRANCH   5  12
ENDBRANCH   1   8
BRANCH   3  13
ATOM     13  N   UNL     1       1.867   8.966  17.677  0.00  0.00    +0.000 NA
ATOM     14  C   UNL     1       2.997   8.364  17.886  0.00  0.00    +0.000 C 
BRANCH  14  15
ATOM     15  C   UNL     1       3.080   6.886  17.950  0.00  0.00    +0.000 A 
ATOM     16  C   UNL     1       2.228   6.177  18.808  0.00  0.00    +0.000 A 
ATOM     17  C   UNL     1       2.328   4.788  18.894  0.00  0.00    +0.000 A 
ATOM     18 BR   UNL     1       1.174   3.832  20.047  0.00  0.00    +0.000 Br
ATOM     19  C   UNL     1       3.274   4.094  18.142  0.00  0.00    +0.000 A 
ATOM     20  C   UNL     1       4.119   4.802  17.287  0.00  0.00    +0.000 A 
ATOM     21 BR   UNL     1       5.413   3.841  16.286  0.00  0.00    +0.000 Br
ATOM     22  C   UNL     1       4.021   6.195  17.180  0.00  0.00    +0.000 A 
BRANCH  22  23
ATOM     23  O   UNL     1       4.846   6.892  16.336  0.00  0.00    +0.000 OA
ATOM     24  H   UNL     1       4.383   6.990  15.481  0.00  0.00    +0.000 HD
ENDBRANCH  22  23
ENDBRANCH  14  15
ENDBRANCH   3  13
TORSDOF 5
ENDMDL
MODEL 9
REMARK VINA RESULT:      -7.3      7.060      7.993
REMARK  Name = 
REMARK  5 active torsions:
REMARK  status: ('A' for Active; 'I' for Inactive)
REMARK    1  A    between atoms: C_2  and  C_3
REMARK    2  A    between atoms: C_6  and  C_7
REMARK    3  A    between atoms: N_9  and  N_10
REMARK    4  A    between atoms: C_11  and  C_12
REMARK    5  A    between atoms: C_19  and  O_20
REMARK                            x       y       z     vdW  Elec       q    Type
REMARK                         _______ _______ _______ _____ _____    ______ ____
ROOT
ATOM      1  C   UNL     1       0.677   8.580  21.171  0.00  0.00    +0.000 C 
ATOM      2  O   UNL     1       0.204   7.540  21.626  0.00  0.00    +0.000 OA
ATOM      3  N   UNL     1       1.708   8.614  20.235  0.00  0.00    +0.000 N 
ATOM      4  H   UNL     1       2.104   9.476  19.887  0.00  0.00    +0.000 HD
ENDROOT
BRANCH   1   8
ATOM      5  C   UNL     1      -0.860  12.436  22.411  0.00  0.00    +0.000 A 
ATOM      6  C   UNL     1      -0.022  12.309  21.303  0.00  0.00    +0.000 A 
ATOM      7  C   UNL     1       0.458  11.046  20.929  0.00  0.00    +0.000 A 
ATOM      8  C   UNL     1       0.114   9.888  21.652  0.00  0.00    +0.000 A 
ATOM      9  C   UNL     1      -0.722  10.027  22.768  0.00  0.00    +0.000 A 
ATOM     10  C   UNL     1      -1.205  11.294  23.142  0.00  0.00    +0.000 A 
BRANCH   5  12
ATOM     11  N   UNL     1      -1.766  14.768  23.106  0.00  0.00    +0.000 NA
ATOM     12  C   UNL     1      -1.361  13.725  22.798  0.00  0.00    +0.000 C 
ENDBRANCH   5  12
ENDBRANCH   1   8
BRANCH   3  13
ATOM     13  N   UNL     1       2.240   7.430  19.799  0.00  0.00    +0.000 NA
ATOM     14  C   UNL     1       2.595   7.372  18.553  0.00  0.00    +0.000 C 
BRANCH  14  15
ATOM     15  C   UNL     1       3.208   6.148  17.985  0.00  0.00    +0.000 A 
ATOM     16  C   UNL     1       4.320   6.254  17.138  0.00  0.00    +0.000 A 
ATOM     17  C   UNL     1       4.877   5.105  16.576  0.00  0.00    +0.000 A 
ATOM     18 BR   UNL     1       6.381   5.248  15.440  0.00  0.00    +0.000 Br
ATOM     19  C   UNL     1       4.333   3.848  16.838  0.00  0.00    +0.000 A 
ATOM     20  C   UNL     1       3.228   3.745  17.683  0.00  0.00    +0.000 A 
ATOM     21 BR   UNL     1       2.491   2.028  18.012  0.00  0.00    +0.000 Br
ATOM     22  C   UNL     1       2.667   4.889  18.266  0.00  0.00    +0.000 A 
BRANCH  22  23
ATOM     23  O   UNL     1       1.585   4.790  19.101  0.00  0.00    +0.000 OA
ATOM     24  H   UNL     1       1.035   4.045  18.788  0.00  0.00    +0.000 HD
ENDBRANCH  22  23
ENDBRANCH  14  15
ENDBRANCH   3  13
TORSDOF 5
ENDMDL
