MODEL 1
REMARK VINA RESULT:      -8.1      0.000      0.000
REMARK  Name = 
REMARK  4 active torsions:
REMARK  status: ('A' for Active; 'I' for Inactive)
REMARK    1  A    between atoms: C_2  and  C_3
REMARK    2  A    between atoms: C_3  and  N_4
REMARK    3  A    between atoms: C_14  and  C_15
REMARK    4  A    between atoms: C_19  and  C_20
REMARK                            x       y       z     vdW  Elec       q    Type
REMARK                         _______ _______ _______ _____ _____    ______ ____
ROOT
ATOM      1  O   UNL     1       3.109   4.169  17.313  0.00  0.00    +0.000 OA
ATOM      2  C   UNL     1       4.213   3.996  17.843  0.00  0.00    +0.000 C 
ATOM      3  N   UNL     1       5.366   4.583  17.332  0.00  0.00    +0.000 N 
ATOM      4  C   UNL     1       6.734   4.368  17.822  0.00  0.00    +0.000 C 
ATOM      5  C   UNL     1       7.391   5.677  18.248  0.00  0.00    +0.000 C 
ATOM      6  C   UNL     1       7.208   6.803  17.229  0.00  0.00    +0.000 C 
ATOM      7  C   UNL     1       5.767   6.894  16.723  0.00  0.00    +0.000 C 
ATOM      8  C   UNL     1       5.240   5.537  16.207  0.00  0.00    +0.000 C 
ENDROOT
BRANCH   8   9
ATOM      9  C   UNL     1       5.858   5.023  14.901  0.00  0.00    +0.000 A 
ATOM     10  C   UNL     1       7.192   5.302  14.555  0.00  0.00    +0.000 A 
ATOM     11  C   UNL     1       7.733   4.868  13.341  0.00  0.00    +0.000 A 
ATOM     12  C   UNL     1       6.950   4.160  12.436  0.00  0.00    +0.000 A 
ATOM     13  C   UNL     1       5.608   3.889  12.729  0.00  0.00    +0.000 A 
ATOM     14  C   UNL     1       5.076   4.333  13.955  0.00  0.00    +0.000 A 
BRANCH  13  15
ATOM     15  C   UNL     1       4.731   3.142  11.754  0.00  0.00    +0.000 C 
ATOM     16  F   UNL     1       3.460   2.947  12.208  0.00  0.00    +0.000 F 
ATOM     17  F   UNL     1       4.603   3.791  10.564  0.00  0.00    +0.000 F 
ATOM     18  F   UNL     1       5.213   1.903  11.461  0.00  0.00    +0.000 F 
ENDBRANCH  13  15
ENDBRANCH   8   9
BRANCH   2  19
ATOM     19  C   UNL     1       4.289   3.181  19.112  0.00  0.00    +0.000 C 
BRANCH  19  20
ATOM     20  N   UNL     1       3.107   3.319  19.925  0.00  0.00    +0.000 N 
ATOM     21  N   UNL     1       2.120   2.394  19.885  0.00  0.00    +0.000 NA
ATOM     22  C   UNL     1       1.172   3.042  20.569  0.00  0.00    +0.000 A 
ATOM     23  N   UNL     1       1.530   4.298  20.955  0.00  0.00    +0.000 NA
ATOM     24  N   UNL     1       2.765   4.485  20.510  0.00  0.00    +0.000 NA
ENDBRANCH  19  20
ENDBRANCH   2  19
TORSDOF 4
ENDMDL
MODEL 2
REMARK VINA RESULT:      -8.0      0.457      1.126
REMARK  Name = 
REMARK  4 active torsions:
REMARK  status: ('A' for Active; 'I' for Inactive)
REMARK    1  A    between atoms: C_2  and  C_3
REMARK    2  A    between atoms: C_3  and  N_4
REMARK    3  A    between atoms: C_14  and  C_15
REMARK    4  A    between atoms: C_19  and  C_20
REMARK                            x       y       z     vdW  Elec       q    Type
REMARK                         _______ _______ _______ _____ _____    ______ ____
ROOT
ATOM      1  O   UNL     1       3.012   4.105  17.176  0.00  0.00    +0.000 OA
ATOM      2  C   UNL     1       4.109   3.911  17.713  0.00  0.00    +0.000 C 
ATOM      3  N   UNL     1       5.274   4.490  17.220  0.00  0.00    +0.000 N 
ATOM      4  C   UNL     1       6.634   4.251  17.718  0.00  0.00    +0.000 C 
ATOM      5  C   UNL     1       7.304   5.545  18.169  0.00  0.00    +0.000 C 
ATOM      6  C   UNL     1       7.144   6.688  17.166  0.00  0.00    +0.000 C 
ATOM      7  C   UNL     1       5.709   6.804  16.648  0.00  0.00    +0.000 C 
ATOM      8  C   UNL     1       5.170   5.461  16.108  0.00  0.00    +0.000 C 
ENDROOT
BRANCH   8   9
ATOM      9  C   UNL     1       5.793   4.959  14.800  0.00  0.00    +0.000 A 
ATOM     10  C   UNL     1       7.131   5.229  14.468  0.00  0.00    +0.000 A 
ATOM     11  C   UNL     1       7.677   4.806  13.253  0.00  0.00    +0.000 A 
ATOM     12  C   UNL     1       6.895   4.118  12.332  0.00  0.00    +0.000 A 
ATOM     13  C   UNL     1       5.548   3.857  12.611  0.00  0.00    +0.000 A 
ATOM     14  C   UNL     1       5.010   4.290  13.839  0.00  0.00    +0.000 A 
BRANCH  13  15
ATOM     15  C   UNL     1       4.671   3.132  11.619  0.00  0.00    +0.000 C 
ATOM     16  F   UNL     1       5.210   1.961  11.175  0.00  0.00    +0.000 F 
ATOM     17  F   UNL     1       3.455   2.806  12.137  0.00  0.00    +0.000 F 
ATOM     18  F   UNL     1       4.422   3.871  10.503  0.00  0.00    +0.000 F 
ENDBRANCH  13  15
ENDBRANCH   8   9
BRANCH   2  19
ATOM     19  C   UNL     1       4.164   3.076  18.970  0.00  0.00    +0.000 C 
BRANCH  19  20
ATOM     20  N   UNL     1       3.012   3.277  19.813  0.00  0.00    +0.000 N 
ATOM     21  N   UNL     1       2.823   4.445  20.471  0.00  0.00    +0.000 NA
ATOM     22  C   UNL     1       1.820   4.090  21.281  0.00  0.00    +0.000 A 
ATOM     23  N   UNL     1       1.455   2.783  21.168  0.00  0.00    +0.000 NA
ATOM     24  N   UNL     1       2.247   2.255  20.246  0.00  0.00    +0.000 NA
ENDBRANCH  19  20
ENDBRANCH   2  19
TORSDOF 4
ENDMDL
MODEL 3
REMARK VINA RESULT:      -7.9      1.395      1.823
REMARK  Name = 
REMARK  4 active torsions:
REMARK  status: ('A' for Active; 'I' for Inactive)
REMARK    1  A    between atoms: C_2  and  C_3
REMARK    2  A    between atoms: C_3  and  N_4
REMARK    3  A    between atoms: C_14  and  C_15
REMARK    4  A    between atoms: C_19  and  C_20
REMARK                            x       y       z     vdW  Elec       q    Type
REMARK                         _______ _______ _______ _____ _____    ______ ____
ROOT
ATOM      1  O   UNL     1       2.028   3.220  16.786  0.00  0.00    +0.000 OA
ATOM      2  C   UNL     1       2.886   3.017  17.653  0.00  0.00    +0.000 C 
ATOM      3  N   UNL     1       4.041   3.790  17.731  0.00  0.00    +0.000 N 
ATOM      4  C   UNL     1       5.163   3.574  18.653  0.00  0.00    +0.000 C 
ATOM      5  C   UNL     1       5.418   4.800  19.525  0.00  0.00    +0.000 C 
ATOM      6  C   UNL     1       5.435   6.109  18.735  0.00  0.00    +0.000 C 
ATOM      7  C   UNL     1       4.270   6.202  17.747  0.00  0.00    +0.000 C 
ATOM      8  C   UNL     1       4.175   4.959  16.834  0.00  0.00    +0.000 C 
ENDROOT
BRANCH   8   9
ATOM      9  C   UNL     1       5.285   4.802  15.788  0.00  0.00    +0.000 A 
ATOM     10  C   UNL     1       6.573   5.325  15.994  0.00  0.00    +0.000 A 
ATOM     11  C   UNL     1       7.566   5.216  15.016  0.00  0.00    +0.000 A 
ATOM     12  C   UNL     1       7.291   4.597  13.801  0.00  0.00    +0.000 A 
ATOM     13  C   UNL     1       6.010   4.091  13.545  0.00  0.00    +0.000 A 
ATOM     14  C   UNL     1       5.020   4.209  14.538  0.00  0.00    +0.000 A 
BRANCH  13  15
ATOM     15  C   UNL     1       5.680   3.435  12.226  0.00  0.00    +0.000 C 
ATOM     16  F   UNL     1       6.409   3.922  11.181  0.00  0.00    +0.000 F 
ATOM     17  F   UNL     1       5.905   2.093  12.239  0.00  0.00    +0.000 F 
ATOM     18  F   UNL     1       4.375   3.598  11.873  0.00  0.00    +0.000 F 
ENDBRANCH  13  15
ENDBRANCH   8   9
BRANCH   2  19
ATOM     19  C   UNL     1       2.635   1.945  18.686  0.00  0.00    +0.000 C 
BRANCH  19  20
ATOM     20  N   UNL     1       2.258   2.494  19.965  0.00  0.00    +0.000 N 
ATOM     21  N   UNL     1       1.346   3.489  20.058  0.00  0.00    +0.000 NA
ATOM     22  C   UNL     1       1.506   3.827  21.341  0.00  0.00    +0.000 A 
ATOM     23  N   UNL     1       2.484   3.127  21.979  0.00  0.00    +0.000 NA
ATOM     24  N   UNL     1       2.989   2.293  21.080  0.00  0.00    +0.000 NA
ENDBRANCH  19  20
ENDBRANCH   2  19
TORSDOF 4
ENDMDL
MODEL 4
REMARK VINA RESULT:      -7.8      1.507      1.930
REMARK  Name = 
REMARK  4 active torsions:
REMARK  status: ('A' for Active; 'I' for Inactive)
REMARK    1  A    between atoms: C_2  and  C_3
REMARK    2  A    between atoms: C_3  and  N_4
REMARK    3  A    between atoms: C_14  and  C_15
REMARK    4  A    between atoms: C_19  and  C_20
REMARK                            x       y       z     vdW  Elec       q    Type
REMARK                         _______ _______ _______ _____ _____    ______ ____
ROOT
ATOM      1  O   UNL     1       2.768   1.966  17.242  0.00  0.00    +0.000 OA
ATOM      2  C   UNL     1       3.514   2.388  18.133  0.00  0.00    +0.000 C 
ATOM      3  N   UNL     1       4.236   3.567  17.981  0.00  0.00    +0.000 N 
ATOM      4  C   UNL     1       5.219   4.106  18.929  0.00  0.00    +0.000 C 
ATOM      5  C   UNL     1       4.840   5.508  19.396  0.00  0.00    +0.000 C 
ATOM      6  C   UNL     1       4.429   6.435  18.250  0.00  0.00    +0.000 C 
ATOM      7  C   UNL     1       3.466   5.754  17.276  0.00  0.00    +0.000 C 
ATOM      8  C   UNL     1       4.001   4.394  16.775  0.00  0.00    +0.000 C 
ENDROOT
BRANCH   8   9
ATOM      9  C   UNL     1       5.206   4.448  15.829  0.00  0.00    +0.000 A 
ATOM     10  C   UNL     1       6.411   5.071  16.201  0.00  0.00    +0.000 A 
ATOM     11  C   UNL     1       7.488   5.155  15.315  0.00  0.00    +0.000 A 
ATOM     12  C   UNL     1       7.384   4.634  14.030  0.00  0.00    +0.000 A 
ATOM     13  C   UNL     1       6.190   4.035  13.609  0.00  0.00    +0.000 A 
ATOM     14  C   UNL     1       5.112   3.958  14.512  0.00  0.00    +0.000 A 
BRANCH  13  15
ATOM     15  C   UNL     1       6.043   3.483  12.212  0.00  0.00    +0.000 C 
ATOM     16  F   UNL     1       6.178   2.127  12.148  0.00  0.00    +0.000 F 
ATOM     17  F   UNL     1       4.826   3.759  11.666  0.00  0.00    +0.000 F 
ATOM     18  F   UNL     1       6.969   3.988  11.350  0.00  0.00    +0.000 F 
ENDBRANCH  13  15
ENDBRANCH   8   9
BRANCH   2  19
ATOM     19  C   UNL     1       3.585   1.633  19.439  0.00  0.00    +0.000 C 
BRANCH  19  20
ATOM     20  N   UNL     1       2.701   2.180  20.438  0.00  0.00    +0.000 N 
ATOM     21  N   UNL     1       1.587   2.864  20.086  0.00  0.00    +0.000 NA
ATOM     22  C   UNL     1       1.246   3.370  21.275  0.00  0.00    +0.000 A 
ATOM     23  N   UNL     1       2.117   3.065  22.276  0.00  0.00    +0.000 NA
ATOM     24  N   UNL     1       3.070   2.326  21.726  0.00  0.00    +0.000 NA
ENDBRANCH  19  20
ENDBRANCH   2  19
TORSDOF 4
ENDMDL
MODEL 5
REMARK VINA RESULT:      -7.7      4.388      6.991
REMARK  Name = 
REMARK  4 active torsions:
REMARK  status: ('A' for Active; 'I' for Inactive)
REMARK    1  A    between atoms: C_2  and  C_3
REMARK    2  A    between atoms: C_3  and  N_4
REMARK    3  A    between atoms: C_14  and  C_15
REMARK    4  A    between atoms: C_19  and  C_20
REMARK                            x       y       z     vdW  Elec       q    Type
REMARK                         _______ _______ _______ _____ _____    ______ ____
ROOT
ATOM      1  O   UNL     1       4.826   5.447  15.773  0.00  0.00    +0.000 OA
ATOM      2  C   UNL     1       5.234   4.853  16.778  0.00  0.00    +0.000 C 
ATOM      3  N   UNL     1       4.386   4.544  17.836  0.00  0.00    +0.000 N 
ATOM      4  C   UNL     1       4.783   3.932  19.110  0.00  0.00    +0.000 C 
ATOM      5  C   UNL     1       4.034   2.628  19.366  0.00  0.00    +0.000 C 
ATOM      6  C   UNL     1       2.530   2.736  19.109  0.00  0.00    +0.000 C 
ATOM      7  C   UNL     1       2.220   3.458  17.796  0.00  0.00    +0.000 C 
ATOM      8  C   UNL     1       2.939   4.821  17.692  0.00  0.00    +0.000 C 
ENDROOT
BRANCH   8   9
ATOM      9  C   UNL     1       2.434   5.925  18.629  0.00  0.00    +0.000 A 
ATOM     10  C   UNL     1       2.095   5.662  19.967  0.00  0.00    +0.000 A 
ATOM     11  C   UNL     1       1.592   6.665  20.800  0.00  0.00    +0.000 A 
ATOM     12  C   UNL     1       1.399   7.953  20.312  0.00  0.00    +0.000 A 
ATOM     13  C   UNL     1       1.694   8.248  18.975  0.00  0.00    +0.000 A 
ATOM     14  C   UNL     1       2.198   7.228  18.147  0.00  0.00    +0.000 A 
BRANCH  13  15
ATOM     15  C   UNL     1       1.471   9.633  18.415  0.00  0.00    +0.000 C 
ATOM     16  F   UNL     1       0.344   9.735  17.655  0.00  0.00    +0.000 F 
ATOM     17  F   UNL     1       1.347  10.576  19.388  0.00  0.00    +0.000 F 
ATOM     18  F   UNL     1       2.494  10.044  17.615  0.00  0.00    +0.000 F 
ENDBRANCH  13  15
ENDBRANCH   8   9
BRANCH   2  19
ATOM     19  C   UNL     1       6.673   4.399  16.818  0.00  0.00    +0.000 C 
BRANCH  19  20
ATOM     20  N   UNL     1       7.486   5.229  17.672  0.00  0.00    +0.000 N 
ATOM     21  N   UNL     1       7.898   4.792  18.884  0.00  0.00    +0.000 NA
ATOM     22  C   UNL     1       8.376   5.934  19.389  0.00  0.00    +0.000 A 
ATOM     23  N   UNL     1       8.220   7.008  18.566  0.00  0.00    +0.000 NA
ATOM     24  N   UNL     1       7.617   6.557  17.476  0.00  0.00    +0.000 NA
ENDBRANCH  19  20
ENDBRANCH   2  19
TORSDOF 4
ENDMDL
MODEL 6
REMARK VINA RESULT:      -7.6      4.740      7.343
REMARK  Name = 
REMARK  4 active torsions:
REMARK  status: ('A' for Active; 'I' for Inactive)
REMARK    1  A    between atoms: C_2  and  C_3
REMARK    2  A    between atoms: C_3  and  N_4
REMARK    3  A    between atoms: C_14  and  C_15
REMARK    4  A    between atoms: C_19  and  C_20
REMARK                            x       y       z     vdW  Elec       q    Type
REMARK                         _______ _______ _______ _____ _____    ______ ____
ROOT
ATOM      1  O   UNL     1       4.719   6.085  15.920  0.00  0.00    +0.000 OA
ATOM      2  C   UNL     1       5.214   5.575  16.932  0.00  0.00    +0.000 C 
ATOM      3  N   UNL     1       4.434   5.236  18.033  0.00  0.00    +0.000 N 
ATOM      4  C   UNL     1       4.929   4.719  19.315  0.00  0.00    +0.000 C 
ATOM      5  C   UNL     1       4.313   3.364  19.651  0.00  0.00    +0.000 C 
ATOM      6  C   UNL     1       2.798   3.323  19.446  0.00  0.00    +0.000 C 
ATOM      7  C   UNL     1       2.378   3.956  18.117  0.00  0.00    +0.000 C 
ATOM      8  C   UNL     1       2.964   5.373  17.932  0.00  0.00    +0.000 C 
ENDROOT
BRANCH   8   9
ATOM      9  C   UNL     1       2.390   6.466  18.841  0.00  0.00    +0.000 A 
ATOM     10  C   UNL     1       1.986   6.194  20.159  0.00  0.00    +0.000 A 
ATOM     11  C   UNL     1       1.421   7.187  20.965  0.00  0.00    +0.000 A 
ATOM     12  C   UNL     1       1.231   8.471  20.468  0.00  0.00    +0.000 A 
ATOM     13  C   UNL     1       1.589   8.775  19.149  0.00  0.00    +0.000 A 
ATOM     14  C   UNL     1       2.156   7.765  18.348  0.00  0.00    +0.000 A 
BRANCH  13  15
ATOM     15  C   UNL     1       1.371  10.155  18.579  0.00  0.00    +0.000 C 
ATOM     16  F   UNL     1       1.372  11.139  19.524  0.00  0.00    +0.000 F 
ATOM     17  F   UNL     1       2.331  10.507  17.679  0.00  0.00    +0.000 F 
ATOM     18  F   UNL     1       0.181  10.270  17.927  0.00  0.00    +0.000 F 
ENDBRANCH  13  15
ENDBRANCH   8   9
BRANCH   2  19
ATOM     19  C   UNL     1       6.690   5.257  16.937  0.00  0.00    +0.000 C 
BRANCH  19  20
ATOM     20  N   UNL     1       7.483   6.343  17.455  0.00  0.00    +0.000 N 
ATOM     21  N   UNL     1       7.989   6.303  18.709  0.00  0.00    +0.000 NA
ATOM     22  C   UNL     1       8.408   7.567  18.828  0.00  0.00    +0.000 A 
ATOM     23  N   UNL     1       8.130   8.344  17.744  0.00  0.00    +0.000 NA
ATOM     24  N   UNL     1       7.506   7.561  16.876  0.00  0.00    +0.000 NA
ENDBRANCH  19  20
ENDBRANCH   2  19
TORSDOF 4
ENDMDL
MODEL 7
REMARK VINA RESULT:      -7.5      4.548      7.431
REMARK  Name = 
REMARK  4 active torsions:
REMARK  status: ('A' for Active; 'I' for Inactive)
REMARK    1  A    between atoms: C_2  and  C_3
REMARK    2  A    between atoms: C_3  and  N_4
REMARK    3  A    between atoms: C_14  and  C_15
REMARK    4  A    between atoms: C_19  and  C_20
REMARK                            x       y       z     vdW  Elec       q    Type
REMARK                         _______ _______ _______ _____ _____    ______ ____
ROOT
ATOM      1  O   UNL     1       4.606   5.731  15.587  0.00  0.00    +0.000 OA
ATOM      2  C   UNL     1       5.169   5.209  16.556  0.00  0.00    +0.000 C 
ATOM      3  N   UNL     1       4.471   4.877  17.712  0.00  0.00    +0.000 N 
ATOM      4  C   UNL     1       5.055   4.346  18.951  0.00  0.00    +0.000 C 
ATOM      5  C   UNL     1       4.446   2.999  19.328  0.00  0.00    +0.000 C 
ATOM      6  C   UNL     1       2.919   2.982  19.240  0.00  0.00    +0.000 C 
ATOM      7  C   UNL     1       2.408   3.628  17.951  0.00  0.00    +0.000 C 
ATOM      8  C   UNL     1       3.000   5.037  17.726  0.00  0.00    +0.000 C 
ENDROOT
BRANCH   8   9
ATOM      9  C   UNL     1       2.515   6.134  18.681  0.00  0.00    +0.000 A 
ATOM     10  C   UNL     1       2.252   5.871  20.036  0.00  0.00    +0.000 A 
ATOM     11  C   UNL     1       1.767   6.867  20.888  0.00  0.00    +0.000 A 
ATOM     12  C   UNL     1       1.516   8.146  20.403  0.00  0.00    +0.000 A 
ATOM     13  C   UNL     1       1.733   8.440  19.052  0.00  0.00    +0.000 A 
ATOM     14  C   UNL     1       2.221   7.427  18.204  0.00  0.00    +0.000 A 
BRANCH  13  15
ATOM     15  C   UNL     1       1.446   9.814  18.496  0.00  0.00    +0.000 C 
ATOM     16  F   UNL     1       2.400  10.257  17.628  0.00  0.00    +0.000 F 
ATOM     17  F   UNL     1       0.271   9.864  17.810  0.00  0.00    +0.000 F 
ATOM     18  F   UNL     1       1.360  10.764  19.467  0.00  0.00    +0.000 F 
ENDBRANCH  13  15
ENDBRANCH   8   9
BRANCH   2  19
ATOM     19  C   UNL     1       6.636   4.868  16.445  0.00  0.00    +0.000 C 
BRANCH  19  20
ATOM     20  N   UNL     1       7.047   4.650  15.081  0.00  0.00    +0.000 N 
ATOM     21  N   UNL     1       7.862   5.525  14.448  0.00  0.00    +0.000 NA
ATOM     22  C   UNL     1       7.762   5.066  13.196  0.00  0.00    +0.000 A 
ATOM     23  N   UNL     1       6.904   4.017  13.060  0.00  0.00    +0.000 NA
ATOM     24  N   UNL     1       6.421   3.773  14.270  0.00  0.00    +0.000 NA
ENDBRANCH  19  20
ENDBRANCH   2  19
TORSDOF 4
ENDMDL
MODEL 8
REMARK VINA RESULT:      -7.5      2.144      2.744
REMARK  Name = 
REMARK  4 active torsions:
REMARK  status: ('A' for Active; 'I' for Inactive)
REMARK    1  A    between atoms: C_2  and  C_3
REMARK    2  A    between atoms: C_3  and  N_4
REMARK    3  A    between atoms: C_14  and  C_15
REMARK    4  A    between atoms: C_19  and  C_20
REMARK                            x       y       z     vdW  Elec       q    Type
REMARK                         _______ _______ _______ _____ _____    ______ ____
ROOT
ATOM      1  O   UNL     1       2.904   7.141  17.748  0.00  0.00    +0.000 OA
ATOM      2  C   UNL     1       3.534   6.365  18.475  0.00  0.00    +0.000 C 
ATOM      3  N   UNL     1       4.820   5.944  18.149  0.00  0.00    +0.000 N 
ATOM      4  C   UNL     1       5.617   4.954  18.884  0.00  0.00    +0.000 C 
ATOM      5  C   UNL     1       6.945   5.539  19.355  0.00  0.00    +0.000 C 
ATOM      6  C   UNL     1       7.679   6.321  18.265  0.00  0.00    +0.000 C 
ATOM      7  C   UNL     1       6.746   7.266  17.505  0.00  0.00    +0.000 C 
ATOM      8  C   UNL     1       5.488   6.545  16.972  0.00  0.00    +0.000 C 
ENDROOT
BRANCH   8   9
ATOM      9  C   UNL     1       5.711   5.553  15.825  0.00  0.00    +0.000 A 
ATOM     10  C   UNL     1       5.094   4.291  15.809  0.00  0.00    +0.000 A 
ATOM     11  C   UNL     1       5.339   3.375  14.782  0.00  0.00    +0.000 A 
ATOM     12  C   UNL     1       6.222   3.691  13.755  0.00  0.00    +0.000 A 
ATOM     13  C   UNL     1       6.883   4.926  13.752  0.00  0.00    +0.000 A 
ATOM     14  C   UNL     1       6.627   5.838  14.793  0.00  0.00    +0.000 A 
BRANCH  13  15
ATOM     15  C   UNL     1       7.863   5.284  12.661  0.00  0.00    +0.000 C 
ATOM     16  F   UNL     1       9.147   5.404  13.104  0.00  0.00    +0.000 F 
ATOM     17  F   UNL     1       7.900   4.354  11.667  0.00  0.00    +0.000 F 
ATOM     18  F   UNL     1       7.567   6.470  12.060  0.00  0.00    +0.000 F 
ENDBRANCH  13  15
ENDBRANCH   8   9
BRANCH   2  19
ATOM     19  C   UNL     1       2.911   5.920  19.776  0.00  0.00    +0.000 C 
BRANCH  19  20
ATOM     20  N   UNL     1       1.993   4.822  19.597  0.00  0.00    +0.000 N 
ATOM     21  N   UNL     1       1.483   4.158  20.660  0.00  0.00    +0.000 NA
ATOM     22  C   UNL     1       0.921   3.120  20.033  0.00  0.00    +0.000 A 
ATOM     23  N   UNL     1       1.119   3.117  18.685  0.00  0.00    +0.000 NA
ATOM     24  N   UNL     1       1.838   4.196  18.413  0.00  0.00    +0.000 NA
ENDBRANCH  19  20
ENDBRANCH   2  19
TORSDOF 4
ENDMDL
MODEL 9
REMARK VINA RESULT:      -7.5      4.303      6.964
REMARK  Name = 
REMARK  4 active torsions:
REMARK  status: ('A' for Active; 'I' for Inactive)
REMARK    1  A    between atoms: C_2  and  C_3
REMARK    2  A    between atoms: C_3  and  N_4
REMARK    3  A    between atoms: C_14  and  C_15
REMARK    4  A    between atoms: C_19  and  C_20
REMARK                            x       y       z     vdW  Elec       q    Type
REMARK                         _______ _______ _______ _____ _____    ______ ____
ROOT
ATOM      1  O   UNL     1       5.999   3.057  15.472  0.00  0.00    +0.000 OA
ATOM      2  C   UNL     1       6.275   4.257  15.366  0.00  0.00    +0.000 C 
ATOM      3  N   UNL     1       6.231   5.114  16.461  0.00  0.00    +0.000 N 
ATOM      4  C   UNL     1       6.444   6.567  16.429  0.00  0.00    +0.000 C 
ATOM      5  C   UNL     1       7.592   6.988  17.341  0.00  0.00    +0.000 C 
ATOM      6  C   UNL     1       7.528   6.345  18.727  0.00  0.00    +0.000 C 
ATOM      7  C   UNL     1       7.224   4.847  18.655  0.00  0.00    +0.000 C 
ATOM      8  C   UNL     1       5.973   4.542  17.801  0.00  0.00    +0.000 C 
ENDROOT
BRANCH   8   9
ATOM      9  C   UNL     1       4.627   4.970  18.398  0.00  0.00    +0.000 A 
ATOM     10  C   UNL     1       4.063   6.228  18.123  0.00  0.00    +0.000 A 
ATOM     11  C   UNL     1       2.858   6.627  18.707  0.00  0.00    +0.000 A 
ATOM     12  C   UNL     1       2.195   5.786  19.594  0.00  0.00    +0.000 A 
ATOM     13  C   UNL     1       2.740   4.538  19.920  0.00  0.00    +0.000 A 
ATOM     14  C   UNL     1       3.955   4.149  19.325  0.00  0.00    +0.000 A 
BRANCH  13  15
ATOM     15  C   UNL     1       2.052   3.616  20.897  0.00  0.00    +0.000 C 
ATOM     16  F   UNL     1       2.366   3.874  22.199  0.00  0.00    +0.000 F 
ATOM     17  F   UNL     1       0.695   3.696  20.823  0.00  0.00    +0.000 F 
ATOM     18  F   UNL     1       2.367   2.307  20.693  0.00  0.00    +0.000 F 
ENDBRANCH  13  15
ENDBRANCH   8   9
BRANCH   2  19
ATOM     19  C   UNL     1       6.732   4.781  14.026  0.00  0.00    +0.000 C 
BRANCH  19  20
ATOM     20  N   UNL     1       6.191   4.022  12.926  0.00  0.00    +0.000 N 
ATOM     21  N   UNL     1       4.855   3.903  12.749  0.00  0.00    +0.000 NA
ATOM     22  C   UNL     1       4.833   2.951  11.811  0.00  0.00    +0.000 A 
ATOM     23  N   UNL     1       6.065   2.479  11.474  0.00  0.00    +0.000 NA
ATOM     24  N   UNL     1       6.934   3.148  12.218  0.00  0.00    +0.000 NA
ENDBRANCH  19  20
ENDBRANCH   2  19
TORSDOF 4
ENDMDL
