MODEL 1
REMARK VINA RESULT:      -7.4      0.000      0.000
REMARK  Name = 
REMARK  4 active torsions:
REMARK  status: ('A' for Active; 'I' for Inactive)
REMARK    1  A    between atoms: C_1  and  C_2
REMARK    2  A    between atoms: C_5  and  S_6
REMARK    3  A    between atoms: S_6  and  N_9
REMARK    4  A    between atoms: C_12  and  O_13
REMARK                            x       y       z     vdW  Elec       q    Type
REMARK                         _______ _______ _______ _____ _____    ______ ____
ROOT
ATOM      1  S   UNL     1       5.627   5.520  15.843  0.00  0.00    +0.000 S 
ATOM      2  O   UNL     1       5.960   4.467  14.901  0.00  0.00    +0.000 OA
ATOM      3  O   UNL     1       5.130   6.794  15.365  0.00  0.00    +0.000 OA
ENDROOT
BRANCH   1   8
ATOM      4  C   UNL     1       0.908   3.366  18.947  0.00  0.00    +0.000 C 
ATOM      5  C   UNL     1       2.176   3.859  18.314  0.00  0.00    +0.000 A 
ATOM      6  C   UNL     1       3.009   2.989  17.600  0.00  0.00    +0.000 A 
ATOM      7  C   UNL     1       4.129   3.478  16.916  0.00  0.00    +0.000 A 
ATOM      8  C   UNL     1       4.439   4.842  16.970  0.00  0.00    +0.000 A 
ATOM      9  C   UNL     1       3.662   5.690  17.749  0.00  0.00    +0.000 A 
ATOM     10  F   UNL     1       3.959   6.989  17.885  0.00  0.00    +0.000 F 
ATOM     11  C   UNL     1       2.541   5.205  18.425  0.00  0.00    +0.000 A 
ENDBRANCH   1   8
BRANCH   1  12
ATOM     12  N   UNL     1       7.004   5.817  16.755  0.00  0.00    +0.000 NA
ATOM     13  C   UNL     1       7.246   7.147  17.340  0.00  0.00    +0.000 C 
ATOM     14  C   UNL     1       8.046   6.885  18.616  0.00  0.00    +0.000 C 
ATOM     15  C   UNL     1       7.739   5.438  18.968  0.00  0.00    +0.000 C 
ATOM     16  C   UNL     1       7.584   4.765  17.610  0.00  0.00    +0.000 C 
BRANCH  15  17
ATOM     17  O   UNL     1       6.534   5.348  19.728  0.00  0.00    +0.000 OA
ATOM     18  H   UNL     1       6.256   6.243  19.981  0.00  0.00    +0.000 HD
ENDBRANCH  15  17
ENDBRANCH   1  12
TORSDOF 3
ENDMDL
MODEL 2
REMARK VINA RESULT:      -7.1      1.304      1.809
REMARK  Name = 
REMARK  4 active torsions:
REMARK  status: ('A' for Active; 'I' for Inactive)
REMARK    1  A    between atoms: C_1  and  C_2
REMARK    2  A    between atoms: C_5  and  S_6
REMARK    3  A    between atoms: S_6  and  N_9
REMARK    4  A    between atoms: C_12  and  O_13
REMARK                            x       y       z     vdW  Elec       q    Type
REMARK                         _______ _______ _______ _____ _____    ______ ____
ROOT
ATOM      1  S   UNL     1       5.485   5.622  15.923  0.00  0.00    +0.000 S 
ATOM      2  O   UNL     1       5.600   4.346  15.242  0.00  0.00    +0.000 OA
ATOM      3  O   UNL     1       5.223   6.830  15.168  0.00  0.00    +0.000 OA
ENDROOT
BRANCH   1   8
ATOM      4  C   UNL     1       1.901   5.023  20.756  0.00  0.00    +0.000 C 
ATOM      5  C   UNL     1       2.646   5.170  19.461  0.00  0.00    +0.000 A 
ATOM      6  C   UNL     1       2.872   6.433  18.900  0.00  0.00    +0.000 A 
ATOM      7  C   UNL     1       3.665   6.571  17.754  0.00  0.00    +0.000 A 
ATOM      8  C   UNL     1       4.213   5.437  17.144  0.00  0.00    +0.000 A 
ATOM      9  C   UNL     1       3.917   4.177  17.650  0.00  0.00    +0.000 A 
ATOM     10  F   UNL     1       4.364   3.060  17.060  0.00  0.00    +0.000 F 
ATOM     11  C   UNL     1       3.133   4.038  18.796  0.00  0.00    +0.000 A 
ENDBRANCH   1   8
BRANCH   1  12
ATOM     12  N   UNL     1       6.909   5.853  16.780  0.00  0.00    +0.000 NA
ATOM     13  C   UNL     1       7.217   7.159  17.389  0.00  0.00    +0.000 C 
ATOM     14  C   UNL     1       8.065   6.837  18.619  0.00  0.00    +0.000 C 
ATOM     15  C   UNL     1       7.730   5.391  18.946  0.00  0.00    +0.000 C 
ATOM     16  C   UNL     1       7.495   4.761  17.579  0.00  0.00    +0.000 C 
BRANCH  15  17
ATOM     17  O   UNL     1       6.558   5.314  19.757  0.00  0.00    +0.000 OA
ATOM     18  H   UNL     1       6.357   4.379  19.928  0.00  0.00    +0.000 HD
ENDBRANCH  15  17
ENDBRANCH   1  12
TORSDOF 3
ENDMDL
MODEL 3
REMARK VINA RESULT:      -7.0      2.590      5.226
REMARK  Name = 
REMARK  4 active torsions:
REMARK  status: ('A' for Active; 'I' for Inactive)
REMARK    1  A    between atoms: C_1  and  C_2
REMARK    2  A    between atoms: C_5  and  S_6
REMARK    3  A    between atoms: S_6  and  N_9
REMARK    4  A    between atoms: C_12  and  O_13
REMARK                            x       y       z     vdW  Elec       q    Type
REMARK                         _______ _______ _______ _____ _____    ______ ____
ROOT
ATOM      1  S   UNL     1       4.466   3.381  18.649  0.00  0.00    +0.000 S 
ATOM      2  O   UNL     1       4.127   2.603  17.473  0.00  0.00    +0.000 OA
ATOM      3  O   UNL     1       5.053   2.736  19.806  0.00  0.00    +0.000 OA
ENDROOT
BRANCH   1   8
ATOM      4  C   UNL     1       7.841   8.290  17.616  0.00  0.00    +0.000 C 
ATOM      5  C   UNL     1       7.081   7.001  17.734  0.00  0.00    +0.000 A 
ATOM      6  C   UNL     1       7.608   5.918  18.450  0.00  0.00    +0.000 A 
ATOM      7  C   UNL     1       6.845   4.761  18.653  0.00  0.00    +0.000 A 
ATOM      8  C   UNL     1       5.557   4.670  18.112  0.00  0.00    +0.000 A 
ATOM      9  C   UNL     1       5.069   5.710  17.329  0.00  0.00    +0.000 A 
ATOM     10  F   UNL     1       3.870   5.639  16.736  0.00  0.00    +0.000 F 
ATOM     11  C   UNL     1       5.825   6.866  17.132  0.00  0.00    +0.000 A 
ENDBRANCH   1   8
BRANCH   1  12
ATOM     12  N   UNL     1       3.062   4.152  19.152  0.00  0.00    +0.000 NA
ATOM     13  C   UNL     1       1.748   3.512  18.972  0.00  0.00    +0.000 C 
ATOM     14  C   UNL     1       0.887   4.034  20.123  0.00  0.00    +0.000 C 
ATOM     15  C   UNL     1       1.889   4.483  21.175  0.00  0.00    +0.000 C 
ATOM     16  C   UNL     1       3.060   5.007  20.352  0.00  0.00    +0.000 C 
BRANCH  15  17
ATOM     17  O   UNL     1       2.287   3.385  21.996  0.00  0.00    +0.000 OA
ATOM     18  H   UNL     1       1.497   2.873  22.237  0.00  0.00    +0.000 HD
ENDBRANCH  15  17
ENDBRANCH   1  12
TORSDOF 3
ENDMDL
MODEL 4
REMARK VINA RESULT:      -6.9      3.095      5.261
REMARK  Name = 
REMARK  4 active torsions:
REMARK  status: ('A' for Active; 'I' for Inactive)
REMARK    1  A    between atoms: C_1  and  C_2
REMARK    2  A    between atoms: C_5  and  S_6
REMARK    3  A    between atoms: S_6  and  N_9
REMARK    4  A    between atoms: C_12  and  O_13
REMARK                            x       y       z     vdW  Elec       q    Type
REMARK                         _______ _______ _______ _____ _____    ______ ____
ROOT
ATOM      1  S   UNL     1       3.016   2.938  17.784  0.00  0.00    +0.000 S 
ATOM      2  O   UNL     1       2.238   3.204  16.589  0.00  0.00    +0.000 OA
ATOM      3  O   UNL     1       3.749   1.695  17.914  0.00  0.00    +0.000 OA
ENDROOT
BRANCH   1   8
ATOM      4  C   UNL     1       7.500   6.993  17.774  0.00  0.00    +0.000 C 
ATOM      5  C   UNL     1       6.301   6.097  17.878  0.00  0.00    +0.000 A 
ATOM      6  C   UNL     1       5.224   6.231  16.992  0.00  0.00    +0.000 A 
ATOM      7  C   UNL     1       4.161   5.319  17.021  0.00  0.00    +0.000 A 
ATOM      8  C   UNL     1       4.157   4.283  17.962  0.00  0.00    +0.000 A 
ATOM      9  C   UNL     1       5.182   4.202  18.897  0.00  0.00    +0.000 A 
ATOM     10  F   UNL     1       5.185   3.268  19.857  0.00  0.00    +0.000 F 
ATOM     11  C   UNL     1       6.245   5.106  18.864  0.00  0.00    +0.000 A 
ENDBRANCH   1   8
BRANCH   1  12
ATOM     12  N   UNL     1       1.968   3.053  19.090  0.00  0.00    +0.000 NA
ATOM     13  C   UNL     1       2.256   2.344  20.349  0.00  0.00    +0.000 C 
ATOM     14  C   UNL     1       1.628   3.205  21.446  0.00  0.00    +0.000 C 
ATOM     15  C   UNL     1       1.515   4.589  20.826  0.00  0.00    +0.000 C 
ATOM     16  C   UNL     1       1.230   4.301  19.357  0.00  0.00    +0.000 C 
BRANCH  15  17
ATOM     17  O   UNL     1       2.735   5.314  20.982  0.00  0.00    +0.000 OA
ATOM     18  H   UNL     1       2.695   6.114  20.433  0.00  0.00    +0.000 HD
ENDBRANCH  15  17
ENDBRANCH   1  12
TORSDOF 3
ENDMDL
MODEL 5
REMARK VINA RESULT:      -6.8      2.852      5.436
REMARK  Name = 
REMARK  4 active torsions:
REMARK  status: ('A' for Active; 'I' for Inactive)
REMARK    1  A    between atoms: C_1  and  C_2
REMARK    2  A    between atoms: C_5  and  S_6
REMARK    3  A    between atoms: S_6  and  N_9
REMARK    4  A    between atoms: C_12  and  O_13
REMARK                            x       y       z     vdW  Elec       q    Type
REMARK                         _______ _______ _______ _____ _____    ______ ____
ROOT
ATOM      1  S   UNL     1       4.353   4.165  19.081  0.00  0.00    +0.000 S 
ATOM      2  O   UNL     1       5.085   3.036  19.625  0.00  0.00    +0.000 OA
ATOM      3  O   UNL     1       4.161   5.361  19.876  0.00  0.00    +0.000 OA
ENDROOT
BRANCH   1   8
ATOM      4  C   UNL     1       7.408   4.751  13.897  0.00  0.00    +0.000 C 
ATOM      5  C   UNL     1       6.606   4.772  15.166  0.00  0.00    +0.000 A 
ATOM      6  C   UNL     1       5.228   4.518  15.150  0.00  0.00    +0.000 A 
ATOM      7  C   UNL     1       4.508   4.426  16.348  0.00  0.00    +0.000 A 
ATOM      8  C   UNL     1       5.161   4.619  17.571  0.00  0.00    +0.000 A 
ATOM      9  C   UNL     1       6.509   4.957  17.582  0.00  0.00    +0.000 A 
ATOM     10  F   UNL     1       7.159   5.216  18.723  0.00  0.00    +0.000 F 
ATOM     11  C   UNL     1       7.229   5.041  16.389  0.00  0.00    +0.000 A 
ENDBRANCH   1   8
BRANCH   1  12
ATOM     12  N   UNL     1       2.837   3.599  18.635  0.00  0.00    +0.000 NA
ATOM     13  C   UNL     1       2.556   2.154  18.594  0.00  0.00    +0.000 C 
ATOM     14  C   UNL     1       1.066   2.026  18.913  0.00  0.00    +0.000 C 
ATOM     15  C   UNL     1       0.721   3.312  19.646  0.00  0.00    +0.000 C 
ATOM     16  C   UNL     1       1.618   4.352  18.984  0.00  0.00    +0.000 C 
BRANCH  15  17
ATOM     17  O   UNL     1       1.009   3.194  21.038  0.00  0.00    +0.000 OA
ATOM     18  H   UNL     1       0.818   4.043  21.470  0.00  0.00    +0.000 HD
ENDBRANCH  15  17
ENDBRANCH   1  12
TORSDOF 3
ENDMDL
MODEL 6
REMARK VINA RESULT:      -6.7      2.871      5.168
REMARK  Name = 
REMARK  4 active torsions:
REMARK  status: ('A' for Active; 'I' for Inactive)
REMARK    1  A    between atoms: C_1  and  C_2
REMARK    2  A    between atoms: C_5  and  S_6
REMARK    3  A    between atoms: S_6  and  N_9
REMARK    4  A    between atoms: C_12  and  O_13
REMARK                            x       y       z     vdW  Elec       q    Type
REMARK                         _______ _______ _______ _____ _____    ______ ____
ROOT
ATOM      1  S   UNL     1       4.931   4.271  19.157  0.00  0.00    +0.000 S 
ATOM      2  O   UNL     1       5.372   2.946  19.549  0.00  0.00    +0.000 OA
ATOM      3  O   UNL     1       5.375   5.436  19.896  0.00  0.00    +0.000 OA
ENDROOT
BRANCH   1   8
ATOM      4  C   UNL     1       6.506   3.974  13.328  0.00  0.00    +0.000 C 
ATOM      5  C   UNL     1       6.112   4.219  14.755  0.00  0.00    +0.000 A 
ATOM      6  C   UNL     1       4.765   4.343  15.118  0.00  0.00    +0.000 A 
ATOM      7  C   UNL     1       4.399   4.457  16.465  0.00  0.00    +0.000 A 
ATOM      8  C   UNL     1       5.386   4.479  17.457  0.00  0.00    +0.000 A 
ATOM      9  C   UNL     1       6.726   4.445  17.090  0.00  0.00    +0.000 A 
ATOM     10  F   UNL     1       7.706   4.531  17.999  0.00  0.00    +0.000 F 
ATOM     11  C   UNL     1       7.092   4.323  15.748  0.00  0.00    +0.000 A 
ENDBRANCH   1   8
BRANCH   1  12
ATOM     12  N   UNL     1       3.252   4.259  19.181  0.00  0.00    +0.000 NA
ATOM     13  C   UNL     1       2.506   3.013  18.939  0.00  0.00    +0.000 C 
ATOM     14  C   UNL     1       1.213   3.158  19.741  0.00  0.00    +0.000 C 
ATOM     15  C   UNL     1       1.537   4.195  20.805  0.00  0.00    +0.000 C 
ATOM     16  C   UNL     1       2.505   5.138  20.100  0.00  0.00    +0.000 C 
BRANCH  15  17
ATOM     17  O   UNL     1       2.149   3.581  21.939  0.00  0.00    +0.000 OA
ATOM     18  H   UNL     1       2.355   2.657  21.721  0.00  0.00    +0.000 HD
ENDBRANCH  15  17
ENDBRANCH   1  12
TORSDOF 3
ENDMDL
MODEL 7
REMARK VINA RESULT:      -6.6      3.440      5.307
REMARK  Name = 
REMARK  4 active torsions:
REMARK  status: ('A' for Active; 'I' for Inactive)
REMARK    1  A    between atoms: C_1  and  C_2
REMARK    2  A    between atoms: C_5  and  S_6
REMARK    3  A    between atoms: S_6  and  N_9
REMARK    4  A    between atoms: C_12  and  O_13
REMARK                            x       y       z     vdW  Elec       q    Type
REMARK                         _______ _______ _______ _____ _____    ______ ____
ROOT
ATOM      1  S   UNL     1       2.518   4.923  18.013  0.00  0.00    +0.000 S 
ATOM      2  O   UNL     1       2.204   6.301  18.344  0.00  0.00    +0.000 OA
ATOM      3  O   UNL     1       1.577   4.122  17.258  0.00  0.00    +0.000 OA
ENDROOT
BRANCH   1   8
ATOM      4  C   UNL     1       7.215   4.994  14.207  0.00  0.00    +0.000 C 
ATOM      5  C   UNL     1       6.165   4.984  15.280  0.00  0.00    +0.000 A 
ATOM      6  C   UNL     1       5.665   6.181  15.809  0.00  0.00    +0.000 A 
ATOM      7  C   UNL     1       4.607   6.166  16.725  0.00  0.00    +0.000 A 
ATOM      8  C   UNL     1       4.061   4.946  17.142  0.00  0.00    +0.000 A 
ATOM      9  C   UNL     1       4.615   3.757  16.684  0.00  0.00    +0.000 A 
ATOM     10  F   UNL     1       4.171   2.566  17.106  0.00  0.00    +0.000 F 
ATOM     11  C   UNL     1       5.665   3.770  15.765  0.00  0.00    +0.000 A 
ENDBRANCH   1   8
BRANCH   1  12
ATOM     12  N   UNL     1       2.822   4.127  19.459  0.00  0.00    +0.000 NA
ATOM     13  C   UNL     1       2.610   4.804  20.750  0.00  0.00    +0.000 C 
ATOM     14  C   UNL     1       2.236   3.692  21.729  0.00  0.00    +0.000 C 
ATOM     15  C   UNL     1       1.723   2.564  20.848  0.00  0.00    +0.000 C 
ATOM     16  C   UNL     1       2.575   2.679  19.589  0.00  0.00    +0.000 C 
BRANCH  15  17
ATOM     17  O   UNL     1       0.339   2.743  20.552  0.00  0.00    +0.000 OA
ATOM     18  H   UNL     1      -0.025   3.413  21.153  0.00  0.00    +0.000 HD
ENDBRANCH  15  17
ENDBRANCH   1  12
TORSDOF 3
ENDMDL
MODEL 8
REMARK VINA RESULT:      -6.5      3.106      5.371
REMARK  Name = 
REMARK  4 active torsions:
REMARK  status: ('A' for Active; 'I' for Inactive)
REMARK    1  A    between atoms: C_1  and  C_2
REMARK    2  A    between atoms: C_5  and  S_6
REMARK    3  A    between atoms: S_6  and  N_9
REMARK    4  A    between atoms: C_12  and  O_13
REMARK                            x       y       z     vdW  Elec       q    Type
REMARK                         _______ _______ _______ _____ _____    ______ ____
ROOT
ATOM      1  S   UNL     1       3.641   3.264  17.859  0.00  0.00    +0.000 S 
ATOM      2  O   UNL     1       2.710   3.714  16.842  0.00  0.00    +0.000 OA
ATOM      3  O   UNL     1       4.089   1.887  17.879  0.00  0.00    +0.000 OA
ENDROOT
BRANCH   1   8
ATOM      4  C   UNL     1       7.840   7.606  17.586  0.00  0.00    +0.000 C 
ATOM      5  C   UNL     1       6.928   6.415  17.641  0.00  0.00    +0.000 A 
ATOM      6  C   UNL     1       6.637   5.788  18.860  0.00  0.00    +0.000 A 
ATOM      7  C   UNL     1       5.697   4.751  18.920  0.00  0.00    +0.000 A 
ATOM      8  C   UNL     1       5.065   4.315  17.750  0.00  0.00    +0.000 A 
ATOM      9  C   UNL     1       5.418   4.878  16.530  0.00  0.00    +0.000 A 
ATOM     10  F   UNL     1       4.888   4.446  15.377  0.00  0.00    +0.000 F 
ATOM     11  C   UNL     1       6.348   5.916  16.470  0.00  0.00    +0.000 A 
ENDBRANCH   1   8
BRANCH   1  12
ATOM     12  N   UNL     1       2.942   3.596  19.349  0.00  0.00    +0.000 NA
ATOM     13  C   UNL     1       2.162   4.828  19.555  0.00  0.00    +0.000 C 
ATOM     14  C   UNL     1       1.121   4.470  20.616  0.00  0.00    +0.000 C 
ATOM     15  C   UNL     1       1.008   2.956  20.543  0.00  0.00    +0.000 C 
ATOM     16  C   UNL     1       2.423   2.508  20.197  0.00  0.00    +0.000 C 
BRANCH  15  17
ATOM     17  O   UNL     1       0.082   2.566  19.530  0.00  0.00    +0.000 OA
ATOM     18  H   UNL     1      -0.786   2.952  19.734  0.00  0.00    +0.000 HD
ENDBRANCH  15  17
ENDBRANCH   1  12
TORSDOF 3
ENDMDL
MODEL 9
REMARK VINA RESULT:      -6.5      1.339      1.347
REMARK  Name = 
REMARK  4 active torsions:
REMARK  status: ('A' for Active; 'I' for Inactive)
REMARK    1  A    between atoms: C_1  and  C_2
REMARK    2  A    between atoms: C_5  and  S_6
REMARK    3  A    between atoms: S_6  and  N_9
REMARK    4  A    between atoms: C_12  and  O_13
REMARK                            x       y       z     vdW  Elec       q    Type
REMARK                         _______ _______ _______ _____ _____    ______ ____
ROOT
ATOM      1  S   UNL     1       5.287   4.754  16.684  0.00  0.00    +0.000 S 
ATOM      2  O   UNL     1       5.572   3.509  15.995  0.00  0.00    +0.000 OA
ATOM      3  O   UNL     1       4.520   5.792  16.026  0.00  0.00    +0.000 OA
ENDROOT
BRANCH   1   8
ATOM      4  C   UNL     1       1.664   3.232  21.278  0.00  0.00    +0.000 C 
ATOM      5  C   UNL     1       2.693   3.609  20.252  0.00  0.00    +0.000 A 
ATOM      6  C   UNL     1       3.428   2.627  19.576  0.00  0.00    +0.000 A 
ATOM      7  C   UNL     1       4.302   2.981  18.540  0.00  0.00    +0.000 A 
ATOM      8  C   UNL     1       4.469   4.327  18.197  0.00  0.00    +0.000 A 
ATOM      9  C   UNL     1       3.806   5.307  18.926  0.00  0.00    +0.000 A 
ATOM     10  F   UNL     1       3.987   6.611  18.678  0.00  0.00    +0.000 F 
ATOM     11  C   UNL     1       2.929   4.956  19.954  0.00  0.00    +0.000 A 
ENDBRANCH   1   8
BRANCH   1  12
ATOM     12  N   UNL     1       6.762   5.416  17.134  0.00  0.00    +0.000 NA
ATOM     13  C   UNL     1       6.882   6.854  17.431  0.00  0.00    +0.000 C 
ATOM     14  C   UNL     1       8.003   6.958  18.465  0.00  0.00    +0.000 C 
ATOM     15  C   UNL     1       8.071   5.575  19.094  0.00  0.00    +0.000 C 
ATOM     16  C   UNL     1       7.722   4.641  17.942  0.00  0.00    +0.000 C 
BRANCH  15  17
ATOM     17  O   UNL     1       7.127   5.457  20.158  0.00  0.00    +0.000 OA
ATOM     18  H   UNL     1       6.592   6.267  20.193  0.00  0.00    +0.000 HD
ENDBRANCH  15  17
ENDBRANCH   1  12
TORSDOF 3
ENDMDL
