MODEL 1
REMARK VINA RESULT:      -6.2      0.000      0.000
REMARK  Name = 
REMARK  6 active torsions:
REMARK  status: ('A' for Active; 'I' for Inactive)
REMARK    1  A    between atoms: C_1  and  C_2
REMARK    2  A    between atoms: C_2  and  S_3
REMARK    3  A    between atoms: S_3  and  C_4
REMARK    4  A    between atoms: C_8  and  N_9
REMARK    5  A    between atoms: C_10  and  C_12
REMARK    6  A    between atoms: C_18  and  O_19
REMARK                            x       y       z     vdW  Elec       q    Type
REMARK                         _______ _______ _______ _____ _____    ______ ____
ROOT
ATOM      1  C   UNL     1       2.935   5.041  19.442  0.00  0.00    +0.000 A 
ATOM      2  N   UNL     1       3.266   3.842  18.933  0.00  0.00    +0.000 NA
ATOM      3  C   UNL     1       3.907   3.845  17.760  0.00  0.00    +0.000 A 
ATOM      4  N   UNL     1       4.316   2.591  17.263  0.00  0.00    +0.000 N 
ATOM      5  C   UNL     1       4.232   5.004  17.071  0.00  0.00    +0.000 A 
ATOM      6  C   UNL     1       3.843   6.181  17.689  0.00  0.00    +0.000 A 
ATOM      7  N   UNL     1       3.188   6.224  18.862  0.00  0.00    +0.000 NA
ATOM      8  H   UNL     1       4.004   1.904  17.947  0.00  0.00    +0.000 HD
ATOM      9  H   UNL     1       5.323   2.567  17.177  0.00  0.00    +0.000 HD
ENDROOT
BRANCH   5  10
ATOM     10  N   UNL     1       4.875   4.873  15.820  0.00  0.00    +0.000 N 
ATOM     11  C   UNL     1       6.231   4.999  15.615  0.00  0.00    +0.000 C 
ATOM     12  O   UNL     1       7.001   5.370  16.498  0.00  0.00    +0.000 OA
ATOM     13  H   UNL     1       4.368   4.327  15.126  0.00  0.00    +0.000 HD
BRANCH  11  14
ATOM     14  C   UNL     1       6.652   4.627  14.281  0.00  0.00    +0.000 A 
ATOM     15  C   UNL     1       7.534   5.215  13.395  0.00  0.00    +0.000 A 
ATOM     16  C   UNL     1       7.490   4.444  12.206  0.00  0.00    +0.000 A 
ATOM     17  C   UNL     1       6.599   3.423  12.443  0.00  0.00    +0.000 A 
ATOM     18 BR   UNL     1       6.110   2.110  11.212  0.00  0.00    +0.000 Br
ATOM     19  O   UNL     1       6.107   3.509  13.706  0.00  0.00    +0.000 OA
ENDBRANCH  11  14
ENDBRANCH   5  10
BRANCH   6  20
ATOM     20  O   UNL     1       3.998   7.408  17.109  0.00  0.00    +0.000 OA
ATOM     21  H   UNL     1       4.936   7.652  17.209  0.00  0.00    +0.000 HD
ENDBRANCH   6  20
BRANCH   1  22
ATOM     22  S   UNL     1       2.184   5.026  21.051  0.00  0.00    +0.000 S 
BRANCH  22  24
ATOM     23  C   UNL     1       1.695   2.455  21.847  0.00  0.00    +0.000 C 
ATOM     24  C   UNL     1       1.165   3.527  20.907  0.00  0.00    +0.000 C 
ENDBRANCH  22  24
ENDBRANCH   1  22
TORSDOF 5
ENDMDL
MODEL 2
REMARK VINA RESULT:      -6.0      1.178      1.923
REMARK  Name = 
REMARK  6 active torsions:
REMARK  status: ('A' for Active; 'I' for Inactive)
REMARK    1  A    between atoms: C_1  and  C_2
REMARK    2  A    between atoms: C_2  and  S_3
REMARK    3  A    between atoms: S_3  and  C_4
REMARK    4  A    between atoms: C_8  and  N_9
REMARK    5  A    between atoms: C_10  and  C_12
REMARK    6  A    between atoms: C_18  and  O_19
REMARK                            x       y       z     vdW  Elec       q    Type
REMARK                         _______ _______ _______ _____ _____    ______ ____
ROOT
ATOM      1  C   UNL     1       3.144   4.808  19.486  0.00  0.00    +0.000 A 
ATOM      2  N   UNL     1       3.418   5.939  18.815  0.00  0.00    +0.000 NA
ATOM      3  C   UNL     1       3.988   5.802  17.613  0.00  0.00    +0.000 A 
ATOM      4  N   UNL     1       4.210   6.985  16.881  0.00  0.00    +0.000 N 
ATOM      5  C   UNL     1       4.298   4.571  17.053  0.00  0.00    +0.000 A 
ATOM      6  C   UNL     1       3.971   3.473  17.832  0.00  0.00    +0.000 A 
ATOM      7  N   UNL     1       3.407   3.567  19.048  0.00  0.00    +0.000 NA
ATOM      8  H   UNL     1       3.874   7.745  17.470  0.00  0.00    +0.000 HD
ATOM      9  H   UNL     1       3.688   6.957  16.015  0.00  0.00    +0.000 HD
ENDROOT
BRANCH   5  10
ATOM     10  N   UNL     1       4.936   4.558  15.792  0.00  0.00    +0.000 N 
ATOM     11  C   UNL     1       6.300   4.553  15.600  0.00  0.00    +0.000 C 
ATOM     12  O   UNL     1       7.098   4.692  16.524  0.00  0.00    +0.000 OA
ATOM     13  H   UNL     1       4.377   4.187  15.026  0.00  0.00    +0.000 HD
BRANCH  11  14
ATOM     14  C   UNL     1       6.689   4.342  14.222  0.00  0.00    +0.000 A 
ATOM     15  C   UNL     1       7.451   5.100  13.353  0.00  0.00    +0.000 A 
ATOM     16  C   UNL     1       7.433   4.426  12.105  0.00  0.00    +0.000 A 
ATOM     17  C   UNL     1       6.678   3.292  12.291  0.00  0.00    +0.000 A 
ATOM     18 BR   UNL     1       6.278   2.034  10.974  0.00  0.00    +0.000 Br
ATOM     19  O   UNL     1       6.247   3.217  13.578  0.00  0.00    +0.000 OA
ENDBRANCH  11  14
ENDBRANCH   5  10
BRANCH   6  20
ATOM     20  O   UNL     1       4.289   2.194  17.479  0.00  0.00    +0.000 OA
ATOM     21  H   UNL     1       4.541   2.213  16.538  0.00  0.00    +0.000 HD
ENDBRANCH   6  20
BRANCH   1  22
ATOM     22  S   UNL     1       2.288   5.003  21.029  0.00  0.00    +0.000 S 
BRANCH  22  24
ATOM     23  C   UNL     1       1.175   2.572  21.601  0.00  0.00    +0.000 C 
ATOM     24  C   UNL     1       2.488   3.330  21.712  0.00  0.00    +0.000 C 
ENDBRANCH  22  24
ENDBRANCH   1  22
TORSDOF 5
ENDMDL
MODEL 3
REMARK VINA RESULT:      -5.8      3.129      4.082
REMARK  Name = 
REMARK  6 active torsions:
REMARK  status: ('A' for Active; 'I' for Inactive)
REMARK    1  A    between atoms: C_1  and  C_2
REMARK    2  A    between atoms: C_2  and  S_3
REMARK    3  A    between atoms: S_3  and  C_4
REMARK    4  A    between atoms: C_8  and  N_9
REMARK    5  A    between atoms: C_10  and  C_12
REMARK    6  A    between atoms: C_18  and  O_19
REMARK                            x       y       z     vdW  Elec       q    Type
REMARK                         _______ _______ _______ _____ _____    ______ ____
ROOT
ATOM      1  C   UNL     1       1.373   8.289  20.542  0.00  0.00    +0.000 A 
ATOM      2  N   UNL     1       1.892   7.074  20.786  0.00  0.00    +0.000 NA
ATOM      3  C   UNL     1       2.561   6.495  19.783  0.00  0.00    +0.000 A 
ATOM      4  N   UNL     1       3.164   5.253  20.062  0.00  0.00    +0.000 N 
ATOM      5  C   UNL     1       2.730   7.084  18.538  0.00  0.00    +0.000 A 
ATOM      6  C   UNL     1       2.153   8.336  18.400  0.00  0.00    +0.000 A 
ATOM      7  N   UNL     1       1.466   8.950  19.377  0.00  0.00    +0.000 NA
ATOM      8  H   UNL     1       2.938   5.044  21.033  0.00  0.00    +0.000 HD
ATOM      9  H   UNL     1       4.167   5.323  19.944  0.00  0.00    +0.000 HD
ENDROOT
BRANCH   5  10
ATOM     10  N   UNL     1       3.422   6.353  17.547  0.00  0.00    +0.000 N 
ATOM     11  C   UNL     1       4.738   6.555  17.195  0.00  0.00    +0.000 C 
ATOM     12  O   UNL     1       5.402   7.493  17.630  0.00  0.00    +0.000 OA
ATOM     13  H   UNL     1       3.043   5.430  17.345  0.00  0.00    +0.000 HD
BRANCH  11  14
ATOM     14  C   UNL     1       5.257   5.547  16.295  0.00  0.00    +0.000 A 
ATOM     15  C   UNL     1       5.232   4.166  16.344  0.00  0.00    +0.000 A 
ATOM     16  C   UNL     1       5.966   3.707  15.221  0.00  0.00    +0.000 A 
ATOM     17  C   UNL     1       6.379   4.832  14.546  0.00  0.00    +0.000 A 
ATOM     18 BR   UNL     1       7.421   4.840  13.000  0.00  0.00    +0.000 Br
ATOM     19  O   UNL     1       5.931   5.951  15.173  0.00  0.00    +0.000 OA
ENDBRANCH  11  14
ENDBRANCH   5  10
BRANCH   6  20
ATOM     20  O   UNL     1       2.142   9.019  17.218  0.00  0.00    +0.000 OA
ATOM     21  H   UNL     1       3.018   8.895  16.810  0.00  0.00    +0.000 HD
ENDBRANCH   6  20
BRANCH   1  22
ATOM     22  S   UNL     1       0.585   9.092  21.916  0.00  0.00    +0.000 S 
BRANCH  22  24
ATOM     23  C   UNL     1      -0.832  11.196  20.896  0.00  0.00    +0.000 C 
ATOM     24  C   UNL     1       0.577  10.807  21.314  0.00  0.00    +0.000 C 
ENDBRANCH  22  24
ENDBRANCH   1  22
TORSDOF 5
ENDMDL
MODEL 4
REMARK VINA RESULT:      -5.7      1.108      1.224
REMARK  Name = 
REMARK  6 active torsions:
REMARK  status: ('A' for Active; 'I' for Inactive)
REMARK    1  A    between atoms: C_1  and  C_2
REMARK    2  A    between atoms: C_2  and  S_3
REMARK    3  A    between atoms: S_3  and  C_4
REMARK    4  A    between atoms: C_8  and  N_9
REMARK    5  A    between atoms: C_10  and  C_12
REMARK    6  A    between atoms: C_18  and  O_19
REMARK                            x       y       z     vdW  Elec       q    Type
REMARK                         _______ _______ _______ _____ _____    ______ ____
ROOT
ATOM      1  C   UNL     1       3.349   4.824  19.539  0.00  0.00    +0.000 A 
ATOM      2  N   UNL     1       2.669   4.156  18.592  0.00  0.00    +0.000 NA
ATOM      3  C   UNL     1       3.301   3.953  17.431  0.00  0.00    +0.000 A 
ATOM      4  N   UNL     1       2.614   3.191  16.464  0.00  0.00    +0.000 N 
ATOM      5  C   UNL     1       4.591   4.395  17.177  0.00  0.00    +0.000 A 
ATOM      6  C   UNL     1       5.195   5.071  18.224  0.00  0.00    +0.000 A 
ATOM      7  N   UNL     1       4.594   5.305  19.403  0.00  0.00    +0.000 NA
ATOM      8  H   UNL     1       1.718   2.950  16.884  0.00  0.00    +0.000 HD
ATOM      9  H   UNL     1       3.138   2.352  16.252  0.00  0.00    +0.000 HD
ENDROOT
BRANCH   5  10
ATOM     10  N   UNL     1       5.135   4.153  15.896  0.00  0.00    +0.000 N 
ATOM     11  C   UNL     1       5.570   5.130  15.029  0.00  0.00    +0.000 C 
ATOM     12  O   UNL     1       5.402   6.328  15.244  0.00  0.00    +0.000 OA
ATOM     13  H   UNL     1       5.538   3.228  15.762  0.00  0.00    +0.000 HD
BRANCH  11  14
ATOM     14  C   UNL     1       6.261   4.608  13.868  0.00  0.00    +0.000 A 
ATOM     15  C   UNL     1       7.290   5.119  13.101  0.00  0.00    +0.000 A 
ATOM     16  C   UNL     1       7.506   4.198  12.045  0.00  0.00    +0.000 A 
ATOM     17  C   UNL     1       6.609   3.173  12.240  0.00  0.00    +0.000 A 
ATOM     18 BR   UNL     1       6.409   1.688  11.131  0.00  0.00    +0.000 Br
ATOM     19  O   UNL     1       5.870   3.399  13.358  0.00  0.00    +0.000 OA
ENDBRANCH  11  14
ENDBRANCH   5  10
BRANCH   6  20
ATOM     20  O   UNL     1       6.425   5.655  18.117  0.00  0.00    +0.000 OA
ATOM     21  H   UNL     1       7.028   5.155  18.697  0.00  0.00    +0.000 HD
ENDBRANCH   6  20
BRANCH   1  22
ATOM     22  S   UNL     1       2.539   4.988  21.111  0.00  0.00    +0.000 S 
BRANCH  22  24
ATOM     23  C   UNL     1       1.558   2.493  21.650  0.00  0.00    +0.000 C 
ATOM     24  C   UNL     1       1.205   3.771  20.905  0.00  0.00    +0.000 C 
ENDBRANCH  22  24
ENDBRANCH   1  22
TORSDOF 5
ENDMDL
MODEL 5
REMARK VINA RESULT:      -5.7      6.365      9.450
REMARK  Name = 
REMARK  6 active torsions:
REMARK  status: ('A' for Active; 'I' for Inactive)
REMARK    1  A    between atoms: C_1  and  C_2
REMARK    2  A    between atoms: C_2  and  S_3
REMARK    3  A    between atoms: S_3  and  C_4
REMARK    4  A    between atoms: C_8  and  N_9
REMARK    5  A    between atoms: C_10  and  C_12
REMARK    6  A    between atoms: C_18  and  O_19
REMARK                            x       y       z     vdW  Elec       q    Type
REMARK                         _______ _______ _______ _____ _____    ______ ____
ROOT
ATOM      1  C   UNL     1       3.379   7.055  18.025  0.00  0.00    +0.000 A 
ATOM      2  N   UNL     1       2.900   8.217  17.551  0.00  0.00    +0.000 NA
ATOM      3  C   UNL     1       2.021   8.864  18.324  0.00  0.00    +0.000 A 
ATOM      4  N   UNL     1       1.573  10.116  17.857  0.00  0.00    +0.000 N 
ATOM      5  C   UNL     1       1.599   8.392  19.559  0.00  0.00    +0.000 A 
ATOM      6  C   UNL     1       2.159   7.186  19.947  0.00  0.00    +0.000 A 
ATOM      7  N   UNL     1       3.037   6.498  19.198  0.00  0.00    +0.000 NA
ATOM      8  H   UNL     1       2.041  10.265  16.965  0.00  0.00    +0.000 HD
ATOM      9  H   UNL     1       1.834  10.841  18.513  0.00  0.00    +0.000 HD
ENDROOT
BRANCH   5  10
ATOM     10  N   UNL     1       0.636   9.148  20.263  0.00  0.00    +0.000 N 
ATOM     11  C   UNL     1       0.815   9.672  21.524  0.00  0.00    +0.000 C 
ATOM     12  O   UNL     1       1.799   9.415  22.213  0.00  0.00    +0.000 OA
ATOM     13  H   UNL     1      -0.063   9.610  19.684  0.00  0.00    +0.000 HD
BRANCH  11  14
ATOM     14  C   UNL     1      -0.247  10.566  21.935  0.00  0.00    +0.000 A 
ATOM     15  C   UNL     1      -0.955  10.674  23.117  0.00  0.00    +0.000 A 
ATOM     16  C   UNL     1      -1.928  11.687  22.916  0.00  0.00    +0.000 A 
ATOM     17  C   UNL     1      -1.744  12.147  21.633  0.00  0.00    +0.000 A 
ATOM     18 BR   UNL     1      -2.768  13.465  20.803  0.00  0.00    +0.000 Br
ATOM     19  O   UNL     1      -0.710  11.494  21.040  0.00  0.00    +0.000 OA
ENDBRANCH  11  14
ENDBRANCH   5  10
BRANCH   6  20
ATOM     20  O   UNL     1       1.789   6.531  21.087  0.00  0.00    +0.000 OA
ATOM     21  H   UNL     1       1.760   7.196  21.799  0.00  0.00    +0.000 HD
ENDBRANCH   6  20
BRANCH   1  22
ATOM     22  S   UNL     1       4.626   6.264  17.039  0.00  0.00    +0.000 S 
BRANCH  22  24
ATOM     23  C   UNL     1       6.980   5.155  17.881  0.00  0.00    +0.000 C 
ATOM     24  C   UNL     1       5.552   5.396  18.342  0.00  0.00    +0.000 C 
ENDBRANCH  22  24
ENDBRANCH   1  22
TORSDOF 5
ENDMDL
MODEL 6
REMARK VINA RESULT:      -5.7      5.501      8.649
REMARK  Name = 
REMARK  6 active torsions:
REMARK  status: ('A' for Active; 'I' for Inactive)
REMARK    1  A    between atoms: C_1  and  C_2
REMARK    2  A    between atoms: C_2  and  S_3
REMARK    3  A    between atoms: S_3  and  C_4
REMARK    4  A    between atoms: C_8  and  N_9
REMARK    5  A    between atoms: C_10  and  C_12
REMARK    6  A    between atoms: C_18  and  O_19
REMARK                            x       y       z     vdW  Elec       q    Type
REMARK                         _______ _______ _______ _____ _____    ______ ____
ROOT
ATOM      1  C   UNL     1       3.784   5.213  17.919  0.00  0.00    +0.000 A 
ATOM      2  N   UNL     1       3.305   4.792  19.102  0.00  0.00    +0.000 NA
ATOM      3  C   UNL     1       2.706   5.709  19.868  0.00  0.00    +0.000 A 
ATOM      4  N   UNL     1       2.142   5.251  21.076  0.00  0.00    +0.000 N 
ATOM      5  C   UNL     1       2.566   7.039  19.498  0.00  0.00    +0.000 A 
ATOM      6  C   UNL     1       3.096   7.360  18.259  0.00  0.00    +0.000 A 
ATOM      7  N   UNL     1       3.715   6.473  17.461  0.00  0.00    +0.000 NA
ATOM      8  H   UNL     1       2.334   4.251  21.112  0.00  0.00    +0.000 HD
ATOM      9  H   UNL     1       1.144   5.415  21.073  0.00  0.00    +0.000 HD
ENDROOT
BRANCH   5  10
ATOM     10  N   UNL     1       1.949   7.921  20.412  0.00  0.00    +0.000 N 
ATOM     11  C   UNL     1       1.018   8.878  20.077  0.00  0.00    +0.000 C 
ATOM     12  O   UNL     1       0.733   9.142  18.911  0.00  0.00    +0.000 OA
ATOM     13  H   UNL     1       1.929   7.601  21.379  0.00  0.00    +0.000 HD
BRANCH  11  14
ATOM     14  C   UNL     1       0.400   9.512  21.222  0.00  0.00    +0.000 A 
ATOM     15  C   UNL     1      -0.011   9.011  22.443  0.00  0.00    +0.000 A 
ATOM     16  C   UNL     1      -0.616  10.088  23.140  0.00  0.00    +0.000 A 
ATOM     17  C   UNL     1      -0.521  11.183  22.313  0.00  0.00    +0.000 A 
ATOM     18 BR   UNL     1      -1.185  12.883  22.694  0.00  0.00    +0.000 Br
ATOM     19  O   UNL     1       0.118  10.851  21.161  0.00  0.00    +0.000 OA
ENDBRANCH  11  14
ENDBRANCH   5  10
BRANCH   6  20
ATOM     20  O   UNL     1       3.130   8.638  17.777  0.00  0.00    +0.000 OA
ATOM     21  H   UNL     1       4.008   9.000  17.996  0.00  0.00    +0.000 HD
ENDBRANCH   6  20
BRANCH   1  22
ATOM     22  S   UNL     1       4.478   3.962  16.867  0.00  0.00    +0.000 S 
BRANCH  22  24
ATOM     23  C   UNL     1       6.883   4.732  15.817  0.00  0.00    +0.000 C 
ATOM     24  C   UNL     1       5.393   5.010  15.696  0.00  0.00    +0.000 C 
ENDBRANCH  22  24
ENDBRANCH   1  22
TORSDOF 5
ENDMDL
MODEL 7
REMARK VINA RESULT:      -5.7      8.243      9.734
REMARK  Name = 
REMARK  6 active torsions:
REMARK  status: ('A' for Active; 'I' for Inactive)
REMARK    1  A    between atoms: C_1  and  C_2
REMARK    2  A    between atoms: C_2  and  S_3
REMARK    3  A    between atoms: S_3  and  C_4
REMARK    4  A    between atoms: C_8  and  N_9
REMARK    5  A    between atoms: C_10  and  C_12
REMARK    6  A    between atoms: C_18  and  O_19
REMARK                            x       y       z     vdW  Elec       q    Type
REMARK                         _______ _______ _______ _____ _____    ______ ____
ROOT
ATOM      1  C   UNL     1      11.122  13.474  19.759  0.00  0.00    +0.000 A 
ATOM      2  N   UNL     1      10.354  12.940  20.723  0.00  0.00    +0.000 NA
ATOM      3  C   UNL     1       9.809  11.747  20.465  0.00  0.00    +0.000 A 
ATOM      4  N   UNL     1       9.062  11.157  21.504  0.00  0.00    +0.000 N 
ATOM      5  C   UNL     1      10.000  11.063  19.273  0.00  0.00    +0.000 A 
ATOM      6  C   UNL     1      10.810  11.707  18.352  0.00  0.00    +0.000 A 
ATOM      7  N   UNL     1      11.370  12.909  18.566  0.00  0.00    +0.000 NA
ATOM      8  H   UNL     1       9.093  11.817  22.280  0.00  0.00    +0.000 HD
ATOM      9  H   UNL     1       9.484  10.279  21.776  0.00  0.00    +0.000 HD
ENDROOT
BRANCH   5  10
ATOM     10  N   UNL     1       9.337   9.827  19.104  0.00  0.00    +0.000 N 
ATOM     11  C   UNL     1       8.386   9.569  18.142  0.00  0.00    +0.000 C 
ATOM     12  O   UNL     1       7.928  10.447  17.415  0.00  0.00    +0.000 OA
ATOM     13  H   UNL     1       9.830   9.015  19.471  0.00  0.00    +0.000 HD
BRANCH  11  14
ATOM     14  C   UNL     1       8.009   8.174  18.061  0.00  0.00    +0.000 A 
ATOM     15  C   UNL     1       8.296   7.092  18.871  0.00  0.00    +0.000 A 
ATOM     16  C   UNL     1       7.715   5.956  18.253  0.00  0.00    +0.000 A 
ATOM     17  C   UNL     1       7.094   6.414  17.114  0.00  0.00    +0.000 A 
ATOM     18 BR   UNL     1       6.190   5.352  15.876  0.00  0.00    +0.000 Br
ATOM     19  O   UNL     1       7.243   7.760  17.003  0.00  0.00    +0.000 OA
ENDBRANCH  11  14
ENDBRANCH   5  10
BRANCH   6  20
ATOM     20  O   UNL     1      11.030  11.223  17.094  0.00  0.00    +0.000 OA
ATOM     21  H   UNL     1      11.964  11.399  16.882  0.00  0.00    +0.000 HD
ENDBRANCH   6  20
BRANCH   1  22
ATOM     22  S   UNL     1      11.928  15.005  20.159  0.00  0.00    +0.000 S 
BRANCH  22  24
ATOM     23  C   UNL     1      10.731  16.588  18.278  0.00  0.00    +0.000 C 
ATOM     24  C   UNL     1      11.990  15.767  18.510  0.00  0.00    +0.000 C 
ENDBRANCH  22  24
ENDBRANCH   1  22
TORSDOF 5
ENDMDL
MODEL 8
REMARK VINA RESULT:      -5.6      5.471      7.117
REMARK  Name = 
REMARK  6 active torsions:
REMARK  status: ('A' for Active; 'I' for Inactive)
REMARK    1  A    between atoms: C_1  and  C_2
REMARK    2  A    between atoms: C_2  and  S_3
REMARK    3  A    between atoms: S_3  and  C_4
REMARK    4  A    between atoms: C_8  and  N_9
REMARK    5  A    between atoms: C_10  and  C_12
REMARK    6  A    between atoms: C_18  and  O_19
REMARK                            x       y       z     vdW  Elec       q    Type
REMARK                         _______ _______ _______ _____ _____    ______ ____
ROOT
ATOM      1  C   UNL     1      -0.148  11.605  21.176  0.00  0.00    +0.000 A 
ATOM      2  N   UNL     1       0.513  10.709  21.928  0.00  0.00    +0.000 NA
ATOM      3  C   UNL     1       1.042   9.661  21.288  0.00  0.00    +0.000 A 
ATOM      4  N   UNL     1       1.794   8.760  22.067  0.00  0.00    +0.000 N 
ATOM      5  C   UNL     1       0.935   9.471  19.918  0.00  0.00    +0.000 A 
ATOM      6  C   UNL     1       0.234  10.457  19.243  0.00  0.00    +0.000 A 
ATOM      7  N   UNL     1      -0.322  11.520  19.848  0.00  0.00    +0.000 NA
ATOM      8  H   UNL     1       1.763   9.121  23.019  0.00  0.00    +0.000 HD
ATOM      9  H   UNL     1       2.750   8.732  21.735  0.00  0.00    +0.000 HD
ENDROOT
BRANCH   5  10
ATOM     10  N   UNL     1       1.503   8.303  19.364  0.00  0.00    +0.000 N 
ATOM     11  C   UNL     1       2.282   8.267  18.229  0.00  0.00    +0.000 C 
ATOM     12  O   UNL     1       2.447   9.251  17.510  0.00  0.00    +0.000 OA
ATOM     13  H   UNL     1       1.632   7.531  20.016  0.00  0.00    +0.000 HD
BRANCH  11  14
ATOM     14  C   UNL     1       2.897   6.979  17.988  0.00  0.00    +0.000 A 
ATOM     15  C   UNL     1       2.405   5.691  18.078  0.00  0.00    +0.000 A 
ATOM     16  C   UNL     1       3.489   4.822  17.795  0.00  0.00    +0.000 A 
ATOM     17  C   UNL     1       4.571   5.630  17.534  0.00  0.00    +0.000 A 
ATOM     18 BR   UNL     1       6.292   5.032  17.134  0.00  0.00    +0.000 Br
ATOM     19  O   UNL     1       4.216   6.938  17.621  0.00  0.00    +0.000 OA
ENDBRANCH  11  14
ENDBRANCH   5  10
BRANCH   6  20
ATOM     20  O   UNL     1      -0.048  10.384  17.909  0.00  0.00    +0.000 OA
ATOM     21  H   UNL     1       0.631  10.909  17.447  0.00  0.00    +0.000 HD
ENDBRANCH   6  20
BRANCH   1  22
ATOM     22  S   UNL     1      -0.748  13.045  22.024  0.00  0.00    +0.000 S 
BRANCH  22  24
ATOM     23  C   UNL     1      -2.887  12.055  23.410  0.00  0.00    +0.000 C 
ATOM     24  C   UNL     1      -2.526  12.665  22.066  0.00  0.00    +0.000 C 
ENDBRANCH  22  24
ENDBRANCH   1  22
TORSDOF 5
ENDMDL
MODEL 9
REMARK VINA RESULT:      -5.6      3.728      4.975
REMARK  Name = 
REMARK  6 active torsions:
REMARK  status: ('A' for Active; 'I' for Inactive)
REMARK    1  A    between atoms: C_1  and  C_2
REMARK    2  A    between atoms: C_2  and  S_3
REMARK    3  A    between atoms: S_3  and  C_4
REMARK    4  A    between atoms: C_8  and  N_9
REMARK    5  A    between atoms: C_10  and  C_12
REMARK    6  A    between atoms: C_18  and  O_19
REMARK                            x       y       z     vdW  Elec       q    Type
REMARK                         _______ _______ _______ _____ _____    ______ ____
ROOT
ATOM      1  C   UNL     1       0.902   9.303  20.655  0.00  0.00    +0.000 A 
ATOM      2  N   UNL     1       1.257   8.084  21.094  0.00  0.00    +0.000 NA
ATOM      3  C   UNL     1       1.879   7.288  20.217  0.00  0.00    +0.000 A 
ATOM      4  N   UNL     1       2.313   6.037  20.699  0.00  0.00    +0.000 N 
ATOM      5  C   UNL     1       2.159   7.663  18.911  0.00  0.00    +0.000 A 
ATOM      6  C   UNL     1       1.748   8.942  18.569  0.00  0.00    +0.000 A 
ATOM      7  N   UNL     1       1.113   9.770  19.414  0.00  0.00    +0.000 NA
ATOM      8  H   UNL     1       2.032   6.002  21.678  0.00  0.00    +0.000 HD
ATOM      9  H   UNL     1       3.319   5.969  20.621  0.00  0.00    +0.000 HD
ENDROOT
BRANCH   5  10
ATOM     10  N   UNL     1       2.784   6.717  18.069  0.00  0.00    +0.000 N 
ATOM     11  C   UNL     1       4.041   6.857  17.524  0.00  0.00    +0.000 C 
ATOM     12  O   UNL     1       4.690   7.896  17.620  0.00  0.00    +0.000 OA
ATOM     13  H   UNL     1       2.441   5.763  18.158  0.00  0.00    +0.000 HD
BRANCH  11  14
ATOM     14  C   UNL     1       4.521   5.663  16.861  0.00  0.00    +0.000 A 
ATOM     15  C   UNL     1       4.484   4.330  17.223  0.00  0.00    +0.000 A 
ATOM     16  C   UNL     1       5.176   3.616  16.212  0.00  0.00    +0.000 A 
ATOM     17  C   UNL     1       5.578   4.552  15.287  0.00  0.00    +0.000 A 
ATOM     18 BR   UNL     1       6.568   4.193  13.749  0.00  0.00    +0.000 Br
ATOM     19  O   UNL     1       5.161   5.791  15.657  0.00  0.00    +0.000 OA
ENDBRANCH  11  14
ENDBRANCH   5  10
BRANCH   6  20
ATOM     20  O   UNL     1       1.859   9.440  17.302  0.00  0.00    +0.000 OA
ATOM     21  H   UNL     1       2.280  10.315  17.378  0.00  0.00    +0.000 HD
ENDBRANCH   6  20
BRANCH   1  22
ATOM     22  S   UNL     1       0.179  10.387  21.861  0.00  0.00    +0.000 S 
BRANCH  22  24
ATOM     23  C   UNL     1      -1.267  12.339  20.605  0.00  0.00    +0.000 C 
ATOM     24  C   UNL     1       0.167  11.941  20.918  0.00  0.00    +0.000 C 
ENDBRANCH  22  24
ENDBRANCH   1  22
TORSDOF 5
ENDMDL
