MODEL 1
REMARK VINA RESULT:      -7.2      0.000      0.000
REMARK  Name = 
REMARK  9 active torsions:
REMARK  status: ('A' for Active; 'I' for Inactive)
REMARK    1  A    between atoms: C_1  and  C_2
REMARK    2  A    between atoms: C_2  and  C_4
REMARK    3  A    between atoms: C_4  and  C_5
REMARK    4  A    between atoms: C_4  and  C_9
REMARK    5  A    between atoms: C_5  and  C_6
REMARK    6  A    between atoms: C_6  and  O_8
REMARK    7  A    between atoms: C_13  and  O_14
REMARK    8  A    between atoms: C_16  and  O_17
REMARK    9  A    between atoms: C_20  and  O_21
REMARK                            x       y       z     vdW  Elec       q    Type
REMARK                         _______ _______ _______ _____ _____    ______ ____
ROOT
ATOM      1  C   UNL     1       4.576   5.138  17.162  0.00  0.00    +0.000 C 
ATOM      2  O   UNL     1       4.698   4.080  18.128  0.00  0.00    +0.000 OA
ATOM      3  C   UNL     1       3.822   4.124  19.181  0.00  0.00    +0.000 A 
ATOM      4  C   UNL     1       3.875   3.036  20.056  0.00  0.00    +0.000 A 
ATOM      5  C   UNL     1       3.003   2.984  21.141  0.00  0.00    +0.000 A 
ATOM      6  C   UNL     1       2.070   3.989  21.357  0.00  0.00    +0.000 A 
ATOM      7  C   UNL     1       2.039   5.080  20.491  0.00  0.00    +0.000 A 
ATOM      8  C   UNL     1       2.930   5.178  19.415  0.00  0.00    +0.000 A 
ATOM      9  C   UNL     1       2.923   6.386  18.526  0.00  0.00    +0.000 C 
ATOM     10  C   UNL     1       4.249   6.508  17.781  0.00  0.00    +0.000 C 
ENDROOT
BRANCH   5  11
ATOM     11  O   UNL     1       3.031   1.948  22.028  0.00  0.00    +0.000 OA
ATOM     12  H   UNL     1       3.803   1.392  21.830  0.00  0.00    +0.000 HD
ENDBRANCH   5  11
BRANCH   7  13
ATOM     13  O   UNL     1       1.129   6.081  20.681  0.00  0.00    +0.000 OA
ATOM     14  H   UNL     1       1.339   6.542  21.512  0.00  0.00    +0.000 HD
ENDBRANCH   7  13
BRANCH  10  15
ATOM     15  O   UNL     1       4.149   7.516  16.772  0.00  0.00    +0.000 OA
ATOM     16  H   UNL     1       4.999   7.556  16.295  0.00  0.00    +0.000 HD
ENDBRANCH  10  15
BRANCH   1  17
ATOM     17  C   UNL     1       5.840   5.175  16.261  0.00  0.00    +0.000 C 
BRANCH  17  19
ATOM     18  C   UNL     1       7.491   6.749  17.513  0.00  0.00    +0.000 C 
ATOM     19  C   UNL     1       7.129   5.350  17.075  0.00  0.00    +0.000 C 
ATOM     20  O   UNL     1       7.866   4.411  17.376  0.00  0.00    +0.000 OA
ENDBRANCH  17  19
BRANCH  17  21
ATOM     21  C   UNL     1       5.943   3.911  15.391  0.00  0.00    +0.000 C 
BRANCH  21  22
ATOM     22  C   UNL     1       6.549   4.214  14.039  0.00  0.00    +0.000 C 
ATOM     23  O   UNL     1       7.229   5.199  13.798  0.00  0.00    +0.000 OA
BRANCH  22  24
ATOM     24  O   UNL     1       6.297   3.265  13.114  0.00  0.00    +0.000 OA
ATOM     25  H   UNL     1       6.504   2.354  13.395  0.00  0.00    +0.000 HD
ENDBRANCH  22  24
ENDBRANCH  21  22
ENDBRANCH  17  21
ENDBRANCH   1  17
TORSDOF 8
ENDMDL
MODEL 2
REMARK VINA RESULT:      -7.1      1.850      4.341
REMARK  Name = 
REMARK  9 active torsions:
REMARK  status: ('A' for Active; 'I' for Inactive)
REMARK    1  A    between atoms: C_1  and  C_2
REMARK    2  A    between atoms: C_2  and  C_4
REMARK    3  A    between atoms: C_4  and  C_5
REMARK    4  A    between atoms: C_4  and  C_9
REMARK    5  A    between atoms: C_5  and  C_6
REMARK    6  A    between atoms: C_6  and  O_8
REMARK    7  A    between atoms: C_13  and  O_14
REMARK    8  A    between atoms: C_16  and  O_17
REMARK    9  A    between atoms: C_20  and  O_21
REMARK                            x       y       z     vdW  Elec       q    Type
REMARK                         _______ _______ _______ _____ _____    ______ ____
ROOT
ATOM      1  C   UNL     1       5.530   5.208  18.198  0.00  0.00    +0.000 C 
ATOM      2  O   UNL     1       4.966   6.332  17.500  0.00  0.00    +0.000 OA
ATOM      3  C   UNL     1       3.858   6.900  18.072  0.00  0.00    +0.000 A 
ATOM      4  C   UNL     1       3.383   8.056  17.448  0.00  0.00    +0.000 A 
ATOM      5  C   UNL     1       2.275   8.716  17.976  0.00  0.00    +0.000 A 
ATOM      6  C   UNL     1       1.646   8.252  19.122  0.00  0.00    +0.000 A 
ATOM      7  C   UNL     1       2.115   7.087  19.726  0.00  0.00    +0.000 A 
ATOM      8  C   UNL     1       3.201   6.382  19.196  0.00  0.00    +0.000 A 
ATOM      9  C   UNL     1       3.658   5.098  19.822  0.00  0.00    +0.000 C 
ATOM     10  C   UNL     1       4.477   4.280  18.828  0.00  0.00    +0.000 C 
ENDROOT
BRANCH   5  11
ATOM     11  O   UNL     1       1.769   9.839  17.389  0.00  0.00    +0.000 OA
ATOM     12  H   UNL     1       2.469  10.254  16.860  0.00  0.00    +0.000 HD
ENDBRANCH   5  11
BRANCH   7  13
ATOM     13  O   UNL     1       1.514   6.610  20.858  0.00  0.00    +0.000 OA
ATOM     14  H   UNL     1       1.737   5.669  20.958  0.00  0.00    +0.000 HD
ENDBRANCH   7  13
BRANCH  10  15
ATOM     15  O   UNL     1       5.099   3.180  19.498  0.00  0.00    +0.000 OA
ATOM     16  H   UNL     1       6.065   3.314  19.473  0.00  0.00    +0.000 HD
ENDBRANCH  10  15
BRANCH   1  17
ATOM     17  C   UNL     1       6.515   4.452  17.266  0.00  0.00    +0.000 C 
BRANCH  17  19
ATOM     18  C   UNL     1       5.367   4.441  14.931  0.00  0.00    +0.000 C 
ATOM     19  C   UNL     1       6.464   4.970  15.823  0.00  0.00    +0.000 C 
ATOM     20  O   UNL     1       7.270   5.785  15.374  0.00  0.00    +0.000 OA
ENDBRANCH  17  19
BRANCH  17  21
ATOM     21  C   UNL     1       7.957   4.529  17.796  0.00  0.00    +0.000 C 
BRANCH  21  22
ATOM     22  C   UNL     1       8.077   5.505  18.944  0.00  0.00    +0.000 C 
ATOM     23  O   UNL     1       8.206   5.175  20.113  0.00  0.00    +0.000 OA
BRANCH  22  24
ATOM     24  O   UNL     1       8.062   6.796  18.554  0.00  0.00    +0.000 OA
ATOM     25  H   UNL     1       8.864   7.089  18.081  0.00  0.00    +0.000 HD
ENDBRANCH  22  24
ENDBRANCH  21  22
ENDBRANCH  17  21
ENDBRANCH   1  17
TORSDOF 8
ENDMDL
MODEL 3
REMARK VINA RESULT:      -7.1      1.839      6.501
REMARK  Name = 
REMARK  9 active torsions:
REMARK  status: ('A' for Active; 'I' for Inactive)
REMARK    1  A    between atoms: C_1  and  C_2
REMARK    2  A    between atoms: C_2  and  C_4
REMARK    3  A    between atoms: C_4  and  C_5
REMARK    4  A    between atoms: C_4  and  C_9
REMARK    5  A    between atoms: C_5  and  C_6
REMARK    6  A    between atoms: C_6  and  O_8
REMARK    7  A    between atoms: C_13  and  O_14
REMARK    8  A    between atoms: C_16  and  O_17
REMARK    9  A    between atoms: C_20  and  O_21
REMARK                            x       y       z     vdW  Elec       q    Type
REMARK                         _______ _______ _______ _____ _____    ______ ____
ROOT
ATOM      1  C   UNL     1       3.844   4.233  18.624  0.00  0.00    +0.000 C 
ATOM      2  O   UNL     1       3.960   3.636  17.321  0.00  0.00    +0.000 OA
ATOM      3  C   UNL     1       4.964   4.122  16.525  0.00  0.00    +0.000 A 
ATOM      4  C   UNL     1       5.139   3.464  15.305  0.00  0.00    +0.000 A 
ATOM      5  C   UNL     1       6.153   3.874  14.443  0.00  0.00    +0.000 A 
ATOM      6  C   UNL     1       7.005   4.915  14.784  0.00  0.00    +0.000 A 
ATOM      7  C   UNL     1       6.809   5.578  15.994  0.00  0.00    +0.000 A 
ATOM      8  C   UNL     1       5.774   5.214  16.863  0.00  0.00    +0.000 A 
ATOM      9  C   UNL     1       5.540   5.975  18.134  0.00  0.00    +0.000 C 
ATOM     10  C   UNL     1       4.119   5.746  18.639  0.00  0.00    +0.000 C 
ENDROOT
BRANCH   5  11
ATOM     11  O   UNL     1       6.349   3.269  13.236  0.00  0.00    +0.000 OA
ATOM     12  H   UNL     1       5.483   3.055  12.852  0.00  0.00    +0.000 HD
ENDBRANCH   5  11
BRANCH   7  13
ATOM     13  O   UNL     1       7.636   6.606  16.355  0.00  0.00    +0.000 OA
ATOM     14  H   UNL     1       7.195   7.136  17.040  0.00  0.00    +0.000 HD
ENDBRANCH   7  13
BRANCH  10  15
ATOM     15  O   UNL     1       3.979   6.279  19.958  0.00  0.00    +0.000 OA
ATOM     16  H   UNL     1       4.647   5.858  20.531  0.00  0.00    +0.000 HD
ENDBRANCH  10  15
BRANCH   1  17
ATOM     17  C   UNL     1       2.470   3.867  19.248  0.00  0.00    +0.000 C 
BRANCH  17  19
ATOM     18  C   UNL     1       0.783   2.087  18.377  0.00  0.00    +0.000 C 
ATOM     19  C   UNL     1       1.449   3.430  18.190  0.00  0.00    +0.000 C 
ATOM     20  O   UNL     1       1.158   4.118  17.212  0.00  0.00    +0.000 OA
ENDBRANCH  17  19
BRANCH  17  21
ATOM     21  C   UNL     1       2.615   2.769  20.316  0.00  0.00    +0.000 C 
BRANCH  21  22
ATOM     22  C   UNL     1       2.110   3.232  21.662  0.00  0.00    +0.000 C 
ATOM     23  O   UNL     1       1.485   2.527  22.440  0.00  0.00    +0.000 OA
BRANCH  22  24
ATOM     24  O   UNL     1       2.444   4.507  21.952  0.00  0.00    +0.000 OA
ATOM     25  H   UNL     1       1.896   5.183  21.511  0.00  0.00    +0.000 HD
ENDBRANCH  22  24
ENDBRANCH  21  22
ENDBRANCH  17  21
ENDBRANCH   1  17
TORSDOF 8
ENDMDL
MODEL 4
REMARK VINA RESULT:      -7.0      1.459      1.530
REMARK  Name = 
REMARK  9 active torsions:
REMARK  status: ('A' for Active; 'I' for Inactive)
REMARK    1  A    between atoms: C_1  and  C_2
REMARK    2  A    between atoms: C_2  and  C_4
REMARK    3  A    between atoms: C_4  and  C_5
REMARK    4  A    between atoms: C_4  and  C_9
REMARK    5  A    between atoms: C_5  and  C_6
REMARK    6  A    between atoms: C_6  and  O_8
REMARK    7  A    between atoms: C_13  and  O_14
REMARK    8  A    between atoms: C_16  and  O_17
REMARK    9  A    between atoms: C_20  and  O_21
REMARK                            x       y       z     vdW  Elec       q    Type
REMARK                         _______ _______ _______ _____ _____    ______ ____
ROOT
ATOM      1  C   UNL     1       4.519   5.395  16.620  0.00  0.00    +0.000 C 
ATOM      2  O   UNL     1       4.077   4.048  16.863  0.00  0.00    +0.000 OA
ATOM      3  C   UNL     1       3.149   3.891  17.859  0.00  0.00    +0.000 A 
ATOM      4  C   UNL     1       2.645   2.597  18.016  0.00  0.00    +0.000 A 
ATOM      5  C   UNL     1       1.680   2.350  18.988  0.00  0.00    +0.000 A 
ATOM      6  C   UNL     1       1.196   3.372  19.793  0.00  0.00    +0.000 A 
ATOM      7  C   UNL     1       1.719   4.654  19.643  0.00  0.00    +0.000 A 
ATOM      8  C   UNL     1       2.719   4.925  18.701  0.00  0.00    +0.000 A 
ATOM      9  C   UNL     1       3.314   6.297  18.591  0.00  0.00    +0.000 C 
ATOM     10  C   UNL     1       4.672   6.237  17.898  0.00  0.00    +0.000 C 
ENDROOT
BRANCH   5  11
ATOM     11  O   UNL     1       1.172   1.098  19.185  0.00  0.00    +0.000 OA
ATOM     12  H   UNL     1       1.507   0.515  18.485  0.00  0.00    +0.000 HD
ENDBRANCH   5  11
BRANCH   7  13
ATOM     13  O   UNL     1       1.259   5.679  20.422  0.00  0.00    +0.000 OA
ATOM     14  H   UNL     1       1.641   5.592  21.312  0.00  0.00    +0.000 HD
ENDBRANCH   7  13
BRANCH  10  15
ATOM     15  O   UNL     1       5.120   7.559  17.590  0.00  0.00    +0.000 OA
ATOM     16  H   UNL     1       5.206   7.635  16.621  0.00  0.00    +0.000 HD
ENDBRANCH  10  15
BRANCH   1  17
ATOM     17  C   UNL     1       5.809   5.376  15.756  0.00  0.00    +0.000 C 
BRANCH  17  19
ATOM     18  C   UNL     1       7.557   4.540  17.493  0.00  0.00    +0.000 C 
ATOM     19  C   UNL     1       7.069   5.646  16.588  0.00  0.00    +0.000 C 
ATOM     20  O   UNL     1       7.684   6.712  16.549  0.00  0.00    +0.000 OA
ENDBRANCH  17  19
BRANCH  17  21
ATOM     21  C   UNL     1       5.959   4.043  15.004  0.00  0.00    +0.000 C 
BRANCH  21  22
ATOM     22  C   UNL     1       6.603   4.237  13.651  0.00  0.00    +0.000 C 
ATOM     23  O   UNL     1       7.318   5.184  13.361  0.00  0.00    +0.000 OA
BRANCH  22  24
ATOM     24  O   UNL     1       6.341   3.237  12.783  0.00  0.00    +0.000 OA
ATOM     25  H   UNL     1       6.583   3.426  11.857  0.00  0.00    +0.000 HD
ENDBRANCH  22  24
ENDBRANCH  21  22
ENDBRANCH  17  21
ENDBRANCH   1  17
TORSDOF 8
ENDMDL
MODEL 5
REMARK VINA RESULT:      -6.9      1.081      2.514
REMARK  Name = 
REMARK  9 active torsions:
REMARK  status: ('A' for Active; 'I' for Inactive)
REMARK    1  A    between atoms: C_1  and  C_2
REMARK    2  A    between atoms: C_2  and  C_4
REMARK    3  A    between atoms: C_4  and  C_5
REMARK    4  A    between atoms: C_4  and  C_9
REMARK    5  A    between atoms: C_5  and  C_6
REMARK    6  A    between atoms: C_6  and  O_8
REMARK    7  A    between atoms: C_13  and  O_14
REMARK    8  A    between atoms: C_16  and  O_17
REMARK    9  A    between atoms: C_20  and  O_21
REMARK                            x       y       z     vdW  Elec       q    Type
REMARK                         _______ _______ _______ _____ _____    ______ ____
ROOT
ATOM      1  C   UNL     1       4.608   4.947  17.362  0.00  0.00    +0.000 C 
ATOM      2  O   UNL     1       4.530   3.859  18.299  0.00  0.00    +0.000 OA
ATOM      3  C   UNL     1       3.612   4.000  19.307  0.00  0.00    +0.000 A 
ATOM      4  C   UNL     1       3.465   2.894  20.149  0.00  0.00    +0.000 A 
ATOM      5  C   UNL     1       2.537   2.939  21.186  0.00  0.00    +0.000 A 
ATOM      6  C   UNL     1       1.742   4.058  21.386  0.00  0.00    +0.000 A 
ATOM      7  C   UNL     1       1.909   5.163  20.554  0.00  0.00    +0.000 A 
ATOM      8  C   UNL     1       2.862   5.162  19.529  0.00  0.00    +0.000 A 
ATOM      9  C   UNL     1       3.071   6.380  18.679  0.00  0.00    +0.000 C 
ATOM     10  C   UNL     1       4.440   6.333  18.006  0.00  0.00    +0.000 C 
ENDROOT
BRANCH   5  11
ATOM     11  O   UNL     1       2.372   1.887  22.040  0.00  0.00    +0.000 OA
ATOM     12  H   UNL     1       3.166   1.811  22.593  0.00  0.00    +0.000 HD
ENDBRANCH   5  11
BRANCH   7  13
ATOM     13  O   UNL     1       1.137   6.278  20.729  0.00  0.00    +0.000 OA
ATOM     14  H   UNL     1       0.879   6.336  21.665  0.00  0.00    +0.000 HD
ENDBRANCH   7  13
BRANCH  10  15
ATOM     15  O   UNL     1       4.536   7.369  17.026  0.00  0.00    +0.000 OA
ATOM     16  H   UNL     1       5.457   7.402  16.705  0.00  0.00    +0.000 HD
ENDBRANCH  10  15
BRANCH   1  17
ATOM     17  C   UNL     1       5.912   4.828  16.528  0.00  0.00    +0.000 C 
BRANCH  17  19
ATOM     18  C   UNL     1       5.885   4.083  14.035  0.00  0.00    +0.000 C 
ATOM     19  C   UNL     1       5.693   5.183  15.052  0.00  0.00    +0.000 C 
ATOM     20  O   UNL     1       5.375   6.310  14.672  0.00  0.00    +0.000 OA
ENDBRANCH  17  19
BRANCH  17  21
ATOM     21  C   UNL     1       7.032   5.706  17.113  0.00  0.00    +0.000 C 
BRANCH  21  22
ATOM     22  C   UNL     1       7.774   4.996  18.221  0.00  0.00    +0.000 C 
ATOM     23  O   UNL     1       7.726   5.323  19.398  0.00  0.00    +0.000 OA
BRANCH  22  24
ATOM     24  O   UNL     1       8.481   3.928  17.797  0.00  0.00    +0.000 OA
ATOM     25  H   UNL     1       8.353   3.117  18.325  0.00  0.00    +0.000 HD
ENDBRANCH  22  24
ENDBRANCH  21  22
ENDBRANCH  17  21
ENDBRANCH   1  17
TORSDOF 8
ENDMDL
MODEL 6
REMARK VINA RESULT:      -6.9      1.905      5.978
REMARK  Name = 
REMARK  9 active torsions:
REMARK  status: ('A' for Active; 'I' for Inactive)
REMARK    1  A    between atoms: C_1  and  C_2
REMARK    2  A    between atoms: C_2  and  C_4
REMARK    3  A    between atoms: C_4  and  C_5
REMARK    4  A    between atoms: C_4  and  C_9
REMARK    5  A    between atoms: C_5  and  C_6
REMARK    6  A    between atoms: C_6  and  O_8
REMARK    7  A    between atoms: C_13  and  O_14
REMARK    8  A    between atoms: C_16  and  O_17
REMARK    9  A    between atoms: C_20  and  O_21
REMARK                            x       y       z     vdW  Elec       q    Type
REMARK                         _______ _______ _______ _____ _____    ______ ____
ROOT
ATOM      1  C   UNL     1       4.050   4.131  18.703  0.00  0.00    +0.000 C 
ATOM      2  O   UNL     1       4.128   3.552  17.389  0.00  0.00    +0.000 OA
ATOM      3  C   UNL     1       5.080   4.080  16.556  0.00  0.00    +0.000 A 
ATOM      4  C   UNL     1       5.223   3.441  15.322  0.00  0.00    +0.000 A 
ATOM      5  C   UNL     1       6.184   3.895  14.422  0.00  0.00    +0.000 A 
ATOM      6  C   UNL     1       7.015   4.961  14.738  0.00  0.00    +0.000 A 
ATOM      7  C   UNL     1       6.850   5.604  15.963  0.00  0.00    +0.000 A 
ATOM      8  C   UNL     1       5.867   5.195  16.871  0.00  0.00    +0.000 A 
ATOM      9  C   UNL     1       5.663   5.934  18.161  0.00  0.00    +0.000 C 
ATOM     10  C   UNL     1       4.274   5.652  18.724  0.00  0.00    +0.000 C 
ENDROOT
BRANCH   5  11
ATOM     11  O   UNL     1       6.347   3.310  13.199  0.00  0.00    +0.000 OA
ATOM     12  H   UNL     1       6.445   4.008  12.533  0.00  0.00    +0.000 HD
ENDBRANCH   5  11
BRANCH   7  13
ATOM     13  O   UNL     1       7.657   6.655  16.300  0.00  0.00    +0.000 OA
ATOM     14  H   UNL     1       7.182   7.484  16.121  0.00  0.00    +0.000 HD
ENDBRANCH   7  13
BRANCH  10  15
ATOM     15  O   UNL     1       4.175   6.166  20.055  0.00  0.00    +0.000 OA
ATOM     16  H   UNL     1       4.395   7.117  20.033  0.00  0.00    +0.000 HD
ENDBRANCH  10  15
BRANCH   1  17
ATOM     17  C   UNL     1       2.718   3.712  19.382  0.00  0.00    +0.000 C 
BRANCH  17  19
ATOM     18  C   UNL     1       0.768   2.208  18.538  0.00  0.00    +0.000 C 
ATOM     19  C   UNL     1       1.601   3.456  18.362  0.00  0.00    +0.000 C 
ATOM     20  O   UNL     1       1.363   4.214  17.422  0.00  0.00    +0.000 OA
ENDBRANCH  17  19
BRANCH  17  21
ATOM     21  C   UNL     1       2.908   2.468  20.267  0.00  0.00    +0.000 C 
BRANCH  21  22
ATOM     22  C   UNL     1       4.213   1.767  19.969  0.00  0.00    +0.000 C 
ATOM     23  O   UNL     1       5.188   1.791  20.704  0.00  0.00    +0.000 OA
BRANCH  22  24
ATOM     24  O   UNL     1       4.196   1.070  18.814  0.00  0.00    +0.000 OA
ATOM     25  H   UNL     1       3.326   0.698  18.573  0.00  0.00    +0.000 HD
ENDBRANCH  22  24
ENDBRANCH  21  22
ENDBRANCH  17  21
ENDBRANCH   1  17
TORSDOF 8
ENDMDL
MODEL 7
REMARK VINA RESULT:      -6.9      2.059      4.542
REMARK  Name = 
REMARK  9 active torsions:
REMARK  status: ('A' for Active; 'I' for Inactive)
REMARK    1  A    between atoms: C_1  and  C_2
REMARK    2  A    between atoms: C_2  and  C_4
REMARK    3  A    between atoms: C_4  and  C_5
REMARK    4  A    between atoms: C_4  and  C_9
REMARK    5  A    between atoms: C_5  and  C_6
REMARK    6  A    between atoms: C_6  and  O_8
REMARK    7  A    between atoms: C_13  and  O_14
REMARK    8  A    between atoms: C_16  and  O_17
REMARK    9  A    between atoms: C_20  and  O_21
REMARK                            x       y       z     vdW  Elec       q    Type
REMARK                         _______ _______ _______ _____ _____    ______ ____
ROOT
ATOM      1  C   UNL     1       4.006   4.971  19.025  0.00  0.00    +0.000 C 
ATOM      2  O   UNL     1       3.758   6.065  18.124  0.00  0.00    +0.000 OA
ATOM      3  C   UNL     1       2.926   7.050  18.589  0.00  0.00    +0.000 A 
ATOM      4  C   UNL     1       2.778   8.159  17.753  0.00  0.00    +0.000 A 
ATOM      5  C   UNL     1       1.971   9.220  18.156  0.00  0.00    +0.000 A 
ATOM      6  C   UNL     1       1.325   9.201  19.384  0.00  0.00    +0.000 A 
ATOM      7  C   UNL     1       1.462   8.081  20.202  0.00  0.00    +0.000 A 
ATOM      8  C   UNL     1       2.235   6.983  19.806  0.00  0.00    +0.000 A 
ATOM      9  C   UNL     1       2.327   5.762  20.671  0.00  0.00    +0.000 C 
ATOM     10  C   UNL     1       2.774   4.557  19.848  0.00  0.00    +0.000 C 
ENDROOT
BRANCH   5  11
ATOM     11  O   UNL     1       1.786  10.316  17.363  0.00  0.00    +0.000 OA
ATOM     12  H   UNL     1       1.307  10.042  16.564  0.00  0.00    +0.000 HD
ENDBRANCH   5  11
BRANCH   7  13
ATOM     13  O   UNL     1       0.838   8.038  21.417  0.00  0.00    +0.000 OA
ATOM     14  H   UNL     1       1.192   7.288  21.924  0.00  0.00    +0.000 HD
ENDBRANCH   7  13
BRANCH  10  15
ATOM     15  O   UNL     1       3.082   3.463  20.716  0.00  0.00    +0.000 OA
ATOM     16  H   UNL     1       2.279   2.918  20.818  0.00  0.00    +0.000 HD
ENDBRANCH  10  15
BRANCH   1  17
ATOM     17  C   UNL     1       4.634   3.783  18.248  0.00  0.00    +0.000 C 
BRANCH  17  19
ATOM     18  C   UNL     1       2.480   3.048  16.987  0.00  0.00    +0.000 C 
ATOM     19  C   UNL     1       3.607   2.690  17.926  0.00  0.00    +0.000 C 
ATOM     20  O   UNL     1       3.664   1.555  18.398  0.00  0.00    +0.000 OA
ENDBRANCH  17  19
BRANCH  17  21
ATOM     21  C   UNL     1       5.310   4.259  16.950  0.00  0.00    +0.000 C 
BRANCH  21  22
ATOM     22  C   UNL     1       6.801   4.425  17.128  0.00  0.00    +0.000 C 
ATOM     23  O   UNL     1       7.563   4.774  16.239  0.00  0.00    +0.000 OA
BRANCH  22  24
ATOM     24  O   UNL     1       7.222   4.184  18.387  0.00  0.00    +0.000 OA
ATOM     25  H   UNL     1       8.187   4.250  18.515  0.00  0.00    +0.000 HD
ENDBRANCH  22  24
ENDBRANCH  21  22
ENDBRANCH  17  21
ENDBRANCH   1  17
TORSDOF 8
ENDMDL
MODEL 8
REMARK VINA RESULT:      -6.9      2.453      4.269
REMARK  Name = 
REMARK  9 active torsions:
REMARK  status: ('A' for Active; 'I' for Inactive)
REMARK    1  A    between atoms: C_1  and  C_2
REMARK    2  A    between atoms: C_2  and  C_4
REMARK    3  A    between atoms: C_4  and  C_5
REMARK    4  A    between atoms: C_4  and  C_9
REMARK    5  A    between atoms: C_5  and  C_6
REMARK    6  A    between atoms: C_6  and  O_8
REMARK    7  A    between atoms: C_13  and  O_14
REMARK    8  A    between atoms: C_16  and  O_17
REMARK    9  A    between atoms: C_20  and  O_21
REMARK                            x       y       z     vdW  Elec       q    Type
REMARK                         _______ _______ _______ _____ _____    ______ ____
ROOT
ATOM      1  C   UNL     1       3.826   5.417  18.075  0.00  0.00    +0.000 C 
ATOM      2  O   UNL     1       3.240   5.759  19.343  0.00  0.00    +0.000 OA
ATOM      3  C   UNL     1       2.565   6.951  19.390  0.00  0.00    +0.000 A 
ATOM      4  C   UNL     1       1.908   7.225  20.592  0.00  0.00    +0.000 A 
ATOM      5  C   UNL     1       1.177   8.403  20.722  0.00  0.00    +0.000 A 
ATOM      6  C   UNL     1       1.075   9.302  19.670  0.00  0.00    +0.000 A 
ATOM      7  C   UNL     1       1.751   9.030  18.482  0.00  0.00    +0.000 A 
ATOM      8  C   UNL     1       2.526   7.873  18.336  0.00  0.00    +0.000 A 
ATOM      9  C   UNL     1       3.294   7.622  17.073  0.00  0.00    +0.000 C 
ATOM     10  C   UNL     1       4.417   6.620  17.321  0.00  0.00    +0.000 C 
ENDROOT
BRANCH   5  11
ATOM     11  O   UNL     1       0.532   8.717  21.884  0.00  0.00    +0.000 OA
ATOM     12  H   UNL     1      -0.328   9.110  21.664  0.00  0.00    +0.000 HD
ENDBRANCH   5  11
BRANCH   7  13
ATOM     13  O   UNL     1       1.665   9.898  17.429  0.00  0.00    +0.000 OA
ATOM     14  H   UNL     1       1.129  10.663  17.697  0.00  0.00    +0.000 HD
ENDBRANCH   7  13
BRANCH  10  15
ATOM     15  O   UNL     1       4.990   6.213  16.075  0.00  0.00    +0.000 OA
ATOM     16  H   UNL     1       4.887   6.944  15.438  0.00  0.00    +0.000 HD
ENDBRANCH  10  15
BRANCH   1  17
ATOM     17  C   UNL     1       4.850   4.265  18.264  0.00  0.00    +0.000 C 
BRANCH  17  19
ATOM     18  C   UNL     1       7.368   4.608  17.703  0.00  0.00    +0.000 C 
ATOM     19  C   UNL     1       6.233   4.781  18.684  0.00  0.00    +0.000 C 
ATOM     20  O   UNL     1       6.447   5.318  19.770  0.00  0.00    +0.000 OA
ENDBRANCH  17  19
BRANCH  17  21
ATOM     21  C   UNL     1       4.348   3.232  19.287  0.00  0.00    +0.000 C 
BRANCH  21  22
ATOM     22  C   UNL     1       3.454   2.199  18.642  0.00  0.00    +0.000 C 
ATOM     23  O   UNL     1       2.234   2.210  18.707  0.00  0.00    +0.000 OA
BRANCH  22  24
ATOM     24  O   UNL     1       4.132   1.263  17.944  0.00  0.00    +0.000 OA
ATOM     25  H   UNL     1       4.680   1.614  17.216  0.00  0.00    +0.000 HD
ENDBRANCH  22  24
ENDBRANCH  21  22
ENDBRANCH  17  21
ENDBRANCH   1  17
TORSDOF 8
ENDMDL
MODEL 9
REMARK VINA RESULT:      -6.8      1.897      6.039
REMARK  Name = 
REMARK  9 active torsions:
REMARK  status: ('A' for Active; 'I' for Inactive)
REMARK    1  A    between atoms: C_1  and  C_2
REMARK    2  A    between atoms: C_2  and  C_4
REMARK    3  A    between atoms: C_4  and  C_5
REMARK    4  A    between atoms: C_4  and  C_9
REMARK    5  A    between atoms: C_5  and  C_6
REMARK    6  A    between atoms: C_6  and  O_8
REMARK    7  A    between atoms: C_13  and  O_14
REMARK    8  A    between atoms: C_16  and  O_17
REMARK    9  A    between atoms: C_20  and  O_21
REMARK                            x       y       z     vdW  Elec       q    Type
REMARK                         _______ _______ _______ _____ _____    ______ ____
ROOT
ATOM      1  C   UNL     1       4.445   3.551  18.620  0.00  0.00    +0.000 C 
ATOM      2  O   UNL     1       4.515   3.106  17.254  0.00  0.00    +0.000 OA
ATOM      3  C   UNL     1       5.355   3.813  16.434  0.00  0.00    +0.000 A 
ATOM      4  C   UNL     1       5.500   3.308  15.140  0.00  0.00    +0.000 A 
ATOM      5  C   UNL     1       6.353   3.949  14.244  0.00  0.00    +0.000 A 
ATOM      6  C   UNL     1       7.076   5.071  14.624  0.00  0.00    +0.000 A 
ATOM      7  C   UNL     1       6.909   5.578  15.911  0.00  0.00    +0.000 A 
ATOM      8  C   UNL     1       6.029   4.979  16.819  0.00  0.00    +0.000 A 
ATOM      9  C   UNL     1       5.816   5.571  18.181  0.00  0.00    +0.000 C 
ATOM     10  C   UNL     1       4.500   5.080  18.776  0.00  0.00    +0.000 C 
ENDROOT
BRANCH   5  11
ATOM     11  O   UNL     1       6.512   3.498  12.966  0.00  0.00    +0.000 OA
ATOM     12  H   UNL     1       7.385   3.780  12.646  0.00  0.00    +0.000 HD
ENDBRANCH   5  11
BRANCH   7  13
ATOM     13  O   UNL     1       7.612   6.681  16.310  0.00  0.00    +0.000 OA
ATOM     14  H   UNL     1       8.364   6.393  16.854  0.00  0.00    +0.000 HD
ENDBRANCH   7  13
BRANCH  10  15
ATOM     15  O   UNL     1       4.418   5.458  20.153  0.00  0.00    +0.000 OA
ATOM     16  H   UNL     1       3.696   4.949  20.567  0.00  0.00    +0.000 HD
ENDBRANCH  10  15
BRANCH   1  17
ATOM     17  C   UNL     1       3.207   2.922  19.314  0.00  0.00    +0.000 C 
BRANCH  17  19
ATOM     18  C   UNL     1       2.388   2.638  21.768  0.00  0.00    +0.000 C 
ATOM     19  C   UNL     1       3.503   2.499  20.759  0.00  0.00    +0.000 C 
ATOM     20  O   UNL     1       4.595   2.060  21.120  0.00  0.00    +0.000 OA
ENDBRANCH  17  19
BRANCH  17  21
ATOM     21  C   UNL     1       2.004   3.881  19.290  0.00  0.00    +0.000 C 
BRANCH  21  22
ATOM     22  C   UNL     1       1.028   3.522  18.194  0.00  0.00    +0.000 C 
ATOM     23  O   UNL     1       0.914   4.141  17.147  0.00  0.00    +0.000 OA
BRANCH  22  24
ATOM     24  O   UNL     1       0.304   2.415  18.462  0.00  0.00    +0.000 OA
ATOM     25  H   UNL     1       0.810   1.682  18.860  0.00  0.00    +0.000 HD
ENDBRANCH  22  24
ENDBRANCH  21  22
ENDBRANCH  17  21
ENDBRANCH   1  17
TORSDOF 8
ENDMDL
