MODEL 1
REMARK VINA RESULT:      -9.1      0.000      0.000
REMARK  Name = 
REMARK  7 active torsions:
REMARK  status: ('A' for Active; 'I' for Inactive)
REMARK    1  A    between atoms: C_1  and  C_2
REMARK    2  A    between atoms: N_5  and  C_6
REMARK    3  A    between atoms: C_6  and  C_7
REMARK    4  A    between atoms: C_9  and  C_10
REMARK    5  A    between atoms: C_16  and  C_17
REMARK    6  A    between atoms: C_18  and  C_19
REMARK    7  A    between atoms: C_24  and  C_25
REMARK                            x       y       z     vdW  Elec       q    Type
REMARK                         _______ _______ _______ _____ _____    ______ ____
ROOT
ATOM      1  C   UNL     1       4.207   5.455  17.816  0.00  0.00    +0.000 A 
ATOM      2  C   UNL     1       4.353   4.062  18.002  0.00  0.00    +0.000 A 
ATOM      3  C   UNL     1       3.306   3.261  18.476  0.00  0.00    +0.000 A 
ATOM      4  C   UNL     1       2.083   3.877  18.764  0.00  0.00    +0.000 A 
ATOM      5  C   UNL     1       1.906   5.250  18.538  0.00  0.00    +0.000 A 
ATOM      6  C   UNL     1       2.949   6.053  18.039  0.00  0.00    +0.000 A 
ENDROOT
BRANCH   3   7
ATOM      7  C   UNL     1       3.509   1.781  18.703  0.00  0.00    +0.000 C 
ATOM      8  F   UNL     1       3.944   1.116  17.593  0.00  0.00    +0.000 F 
ATOM      9  F   UNL     1       4.430   1.520  19.671  0.00  0.00    +0.000 F 
ATOM     10  F   UNL     1       2.368   1.148  19.090  0.00  0.00    +0.000 F 
ENDBRANCH   3   7
BRANCH   6  11
ATOM     11  C   UNL     1       2.701   7.505  17.919  0.00  0.00    +0.000 C 
ATOM     12  C   UNL     1       2.102   8.261  18.853  0.00  0.00    +0.000 C 
BRANCH  12  13
ATOM     13  C   UNL     1       1.660   9.643  18.522  0.00  0.00    +0.000 C 
ATOM     14  O   UNL     1       1.885  10.087  17.397  0.00  0.00    +0.000 OA
ATOM     15  N   UNL     1       0.954  10.341  19.492  0.00  0.00    +0.000 N 
ATOM     16  C   UNL     1       0.867   9.969  20.903  0.00  0.00    +0.000 C 
ATOM     17  C   UNL     1      -0.549  10.174  21.438  0.00  0.00    +0.000 C 
ATOM     18  C   UNL     1      -1.100  11.573  21.133  0.00  0.00    +0.000 C 
ATOM     19  C   UNL     1      -0.903  11.949  19.661  0.00  0.00    +0.000 C 
ATOM     20  C   UNL     1       0.527  11.704  19.187  0.00  0.00    +0.000 C 
BRANCH  18  21
ATOM     21  C   UNL     1      -0.481  12.579  22.018  0.00  0.00    +0.000 C 
ATOM     22  N   UNL     1       0.003  13.371  22.708  0.00  0.00    +0.000 NA
ENDBRANCH  18  21
ENDBRANCH  12  13
ENDBRANCH   6  11
BRANCH   1  23
ATOM     23  C   UNL     1       5.467   6.237  17.489  0.00  0.00    +0.000 C 
BRANCH  23  28
ATOM     24  C   UNL     1       6.262   3.877  13.349  0.00  0.00    +0.000 C 
ATOM     25  C   UNL     1       6.410   4.788  14.496  0.00  0.00    +0.000 A 
ATOM     26  N   UNL     1       7.622   5.262  14.910  0.00  0.00    +0.000 NA
ATOM     27  N   UNL     1       7.397   5.942  16.023  0.00  0.00    +0.000 NA
ATOM     28  N   UNL     1       6.061   5.878  16.213  0.00  0.00    +0.000 N 
ATOM     29  N   UNL     1       5.389   5.157  15.284  0.00  0.00    +0.000 NA
ENDBRANCH  23  28
ENDBRANCH   1  23
TORSDOF 6
ENDMDL
MODEL 2
REMARK VINA RESULT:      -8.7      3.215      4.716
REMARK  Name = 
REMARK  7 active torsions:
REMARK  status: ('A' for Active; 'I' for Inactive)
REMARK    1  A    between atoms: C_1  and  C_2
REMARK    2  A    between atoms: N_5  and  C_6
REMARK    3  A    between atoms: C_6  and  C_7
REMARK    4  A    between atoms: C_9  and  C_10
REMARK    5  A    between atoms: C_16  and  C_17
REMARK    6  A    between atoms: C_18  and  C_19
REMARK    7  A    between atoms: C_24  and  C_25
REMARK                            x       y       z     vdW  Elec       q    Type
REMARK                         _______ _______ _______ _____ _____    ______ ____
ROOT
ATOM      1  C   UNL     1       3.622   4.556  17.151  0.00  0.00    +0.000 A 
ATOM      2  C   UNL     1       4.640   4.169  16.252  0.00  0.00    +0.000 A 
ATOM      3  C   UNL     1       5.612   5.069  15.797  0.00  0.00    +0.000 A 
ATOM      4  C   UNL     1       5.560   6.388  16.262  0.00  0.00    +0.000 A 
ATOM      5  C   UNL     1       4.585   6.776  17.193  0.00  0.00    +0.000 A 
ATOM      6  C   UNL     1       3.621   5.868  17.670  0.00  0.00    +0.000 A 
ENDROOT
BRANCH   3   7
ATOM      7  C   UNL     1       6.663   4.632  14.802  0.00  0.00    +0.000 C 
ATOM      8  F   UNL     1       6.373   3.446  14.192  0.00  0.00    +0.000 F 
ATOM      9  F   UNL     1       6.837   5.530  13.794  0.00  0.00    +0.000 F 
ATOM     10  F   UNL     1       7.888   4.464  15.372  0.00  0.00    +0.000 F 
ENDBRANCH   3   7
BRANCH   6  11
ATOM     11  C   UNL     1       2.578   6.388  18.578  0.00  0.00    +0.000 C 
ATOM     12  C   UNL     1       2.401   7.684  18.882  0.00  0.00    +0.000 C 
BRANCH  12  13
ATOM     13  C   UNL     1       1.506   8.070  20.007  0.00  0.00    +0.000 C 
ATOM     14  O   UNL     1       1.439   7.338  20.992  0.00  0.00    +0.000 OA
ATOM     15  N   UNL     1       0.837   9.282  19.907  0.00  0.00    +0.000 N 
ATOM     16  C   UNL     1       0.688  10.065  18.682  0.00  0.00    +0.000 C 
ATOM     17  C   UNL     1       0.865  11.557  18.960  0.00  0.00    +0.000 C 
ATOM     18  C   UNL     1      -0.012  12.050  20.118  0.00  0.00    +0.000 C 
ATOM     19  C   UNL     1       0.112  11.143  21.347  0.00  0.00    +0.000 C 
ATOM     20  C   UNL     1      -0.057   9.667  20.996  0.00  0.00    +0.000 C 
BRANCH  18  21
ATOM     21  C   UNL     1      -1.420  12.164  19.691  0.00  0.00    +0.000 C 
ATOM     22  N   UNL     1      -2.525  12.251  19.361  0.00  0.00    +0.000 NA
ENDBRANCH  18  21
ENDBRANCH  12  13
ENDBRANCH   6  11
BRANCH   1  23
ATOM     23  C   UNL     1       2.519   3.546  17.411  0.00  0.00    +0.000 C 
BRANCH  23  28
ATOM     24  C   UNL     1       1.398   2.573  22.009  0.00  0.00    +0.000 C 
ATOM     25  C   UNL     1       2.104   2.630  20.718  0.00  0.00    +0.000 A 
ATOM     26  N   UNL     1       3.457   2.481  20.611  0.00  0.00    +0.000 NA
ATOM     27  N   UNL     1       3.758   2.710  19.342  0.00  0.00    +0.000 NA
ATOM     28  N   UNL     1       2.575   2.950  18.735  0.00  0.00    +0.000 N 
ATOM     29  N   UNL     1       1.499   2.920  19.557  0.00  0.00    +0.000 NA
ENDBRANCH  23  28
ENDBRANCH   1  23
TORSDOF 6
ENDMDL
MODEL 3
REMARK VINA RESULT:      -8.4      1.023      1.156
REMARK  Name = 
REMARK  7 active torsions:
REMARK  status: ('A' for Active; 'I' for Inactive)
REMARK    1  A    between atoms: C_1  and  C_2
REMARK    2  A    between atoms: N_5  and  C_6
REMARK    3  A    between atoms: C_6  and  C_7
REMARK    4  A    between atoms: C_9  and  C_10
REMARK    5  A    between atoms: C_16  and  C_17
REMARK    6  A    between atoms: C_18  and  C_19
REMARK    7  A    between atoms: C_24  and  C_25
REMARK                            x       y       z     vdW  Elec       q    Type
REMARK                         _______ _______ _______ _____ _____    ______ ____
ROOT
ATOM      1  C   UNL     1       4.032   5.871  18.023  0.00  0.00    +0.000 A 
ATOM      2  C   UNL     1       4.190   4.468  17.993  0.00  0.00    +0.000 A 
ATOM      3  C   UNL     1       3.265   3.602  18.590  0.00  0.00    +0.000 A 
ATOM      4  C   UNL     1       2.152   4.163  19.227  0.00  0.00    +0.000 A 
ATOM      5  C   UNL     1       1.955   5.552  19.223  0.00  0.00    +0.000 A 
ATOM      6  C   UNL     1       2.870   6.423  18.603  0.00  0.00    +0.000 A 
ENDROOT
BRANCH   3   7
ATOM      7  C   UNL     1       3.486   2.107  18.576  0.00  0.00    +0.000 C 
ATOM      8  F   UNL     1       3.894   1.631  17.363  0.00  0.00    +0.000 F 
ATOM      9  F   UNL     1       4.438   1.709  19.464  0.00  0.00    +0.000 F 
ATOM     10  F   UNL     1       2.362   1.407  18.889  0.00  0.00    +0.000 F 
ENDBRANCH   3   7
BRANCH   6  11
ATOM     11  C   UNL     1       2.629   7.875  18.728  0.00  0.00    +0.000 C 
ATOM     12  C   UNL     1       1.744   8.572  17.996  0.00  0.00    +0.000 C 
BRANCH  12  13
ATOM     13  C   UNL     1       1.773  10.059  18.009  0.00  0.00    +0.000 C 
ATOM     14  O   UNL     1       2.726  10.640  17.493  0.00  0.00    +0.000 OA
ATOM     15  N   UNL     1       0.678  10.718  18.552  0.00  0.00    +0.000 N 
ATOM     16  C   UNL     1      -0.353  10.097  19.381  0.00  0.00    +0.000 C 
ATOM     17  C   UNL     1      -1.740  10.619  19.013  0.00  0.00    +0.000 C 
ATOM     18  C   UNL     1      -1.809  12.151  18.987  0.00  0.00    +0.000 C 
ATOM     19  C   UNL     1      -0.655  12.754  18.179  0.00  0.00    +0.000 C 
ATOM     20  C   UNL     1       0.700  12.178  18.585  0.00  0.00    +0.000 C 
BRANCH  18  21
ATOM     21  C   UNL     1      -1.827  12.694  20.359  0.00  0.00    +0.000 C 
ATOM     22  N   UNL     1      -1.838  13.122  21.433  0.00  0.00    +0.000 NA
ENDBRANCH  18  21
ENDBRANCH  12  13
ENDBRANCH   6  11
BRANCH   1  23
ATOM     23  C   UNL     1       5.198   6.702  17.517  0.00  0.00    +0.000 C 
BRANCH  23  28
ATOM     24  C   UNL     1       6.176   3.916  13.692  0.00  0.00    +0.000 C 
ATOM     25  C   UNL     1       6.326   4.801  14.859  0.00  0.00    +0.000 A 
ATOM     26  N   UNL     1       7.473   4.857  15.601  0.00  0.00    +0.000 NA
ATOM     27  N   UNL     1       7.215   5.652  16.627  0.00  0.00    +0.000 NA
ATOM     28  N   UNL     1       5.943   6.068  16.443  0.00  0.00    +0.000 N 
ATOM     29  N   UNL     1       5.331   5.557  15.347  0.00  0.00    +0.000 NA
ENDBRANCH  23  28
ENDBRANCH   1  23
TORSDOF 6
ENDMDL
MODEL 4
REMARK VINA RESULT:      -8.4      1.355      2.149
REMARK  Name = 
REMARK  7 active torsions:
REMARK  status: ('A' for Active; 'I' for Inactive)
REMARK    1  A    between atoms: C_1  and  C_2
REMARK    2  A    between atoms: N_5  and  C_6
REMARK    3  A    between atoms: C_6  and  C_7
REMARK    4  A    between atoms: C_9  and  C_10
REMARK    5  A    between atoms: C_16  and  C_17
REMARK    6  A    between atoms: C_18  and  C_19
REMARK    7  A    between atoms: C_24  and  C_25
REMARK                            x       y       z     vdW  Elec       q    Type
REMARK                         _______ _______ _______ _____ _____    ______ ____
ROOT
ATOM      1  C   UNL     1       4.080   5.465  17.401  0.00  0.00    +0.000 A 
ATOM      2  C   UNL     1       4.166   4.067  17.583  0.00  0.00    +0.000 A 
ATOM      3  C   UNL     1       3.318   3.378  18.460  0.00  0.00    +0.000 A 
ATOM      4  C   UNL     1       2.360   4.114  19.166  0.00  0.00    +0.000 A 
ATOM      5  C   UNL     1       2.229   5.495  18.960  0.00  0.00    +0.000 A 
ATOM      6  C   UNL     1       3.063   6.187  18.062  0.00  0.00    +0.000 A 
ENDROOT
BRANCH   3   7
ATOM      7  C   UNL     1       3.465   1.887  18.662  0.00  0.00    +0.000 C 
ATOM      8  F   UNL     1       4.388   1.557  19.612  0.00  0.00    +0.000 F 
ATOM      9  F   UNL     1       2.305   1.295  19.058  0.00  0.00    +0.000 F 
ATOM     10  F   UNL     1       3.851   1.239  17.530  0.00  0.00    +0.000 F 
ENDBRANCH   3   7
BRANCH   6  11
ATOM     11  C   UNL     1       2.914   7.654  17.977  0.00  0.00    +0.000 C 
ATOM     12  C   UNL     1       2.026   8.378  18.679  0.00  0.00    +0.000 C 
BRANCH  12  13
ATOM     13  C   UNL     1       1.776   9.800  18.321  0.00  0.00    +0.000 C 
ATOM     14  O   UNL     1       2.133  10.208  17.218  0.00  0.00    +0.000 OA
ATOM     15  N   UNL     1       1.086  10.580  19.240  0.00  0.00    +0.000 N 
ATOM     16  C   UNL     1       0.853  10.228  20.639  0.00  0.00    +0.000 C 
ATOM     17  C   UNL     1      -0.565  10.600  21.068  0.00  0.00    +0.000 C 
ATOM     18  C   UNL     1      -0.924  12.053  20.729  0.00  0.00    +0.000 C 
ATOM     19  C   UNL     1      -0.577  12.396  19.277  0.00  0.00    +0.000 C 
ATOM     20  C   UNL     1       0.846  11.982  18.908  0.00  0.00    +0.000 C 
BRANCH  18  21
ATOM     21  C   UNL     1      -0.258  12.984  21.661  0.00  0.00    +0.000 C 
ATOM     22  N   UNL     1       0.259  13.714  22.393  0.00  0.00    +0.000 NA
ENDBRANCH  18  21
ENDBRANCH  12  13
ENDBRANCH   6  11
BRANCH   1  23
ATOM     23  C   UNL     1       5.178   6.117  16.579  0.00  0.00    +0.000 C 
BRANCH  23  28
ATOM     24  C   UNL     1       8.539   9.312  17.934  0.00  0.00    +0.000 C 
ATOM     25  C   UNL     1       7.679   8.118  17.877  0.00  0.00    +0.000 A 
ATOM     26  N   UNL     1       8.046   6.919  18.417  0.00  0.00    +0.000 NA
ATOM     27  N   UNL     1       7.104   6.053  18.078  0.00  0.00    +0.000 NA
ATOM     28  N   UNL     1       6.196   6.771  17.382  0.00  0.00    +0.000 N 
ATOM     29  N   UNL     1       6.512   8.079  17.218  0.00  0.00    +0.000 NA
ENDBRANCH  23  28
ENDBRANCH   1  23
TORSDOF 6
ENDMDL
MODEL 5
REMARK VINA RESULT:      -8.4      2.253      3.027
REMARK  Name = 
REMARK  7 active torsions:
REMARK  status: ('A' for Active; 'I' for Inactive)
REMARK    1  A    between atoms: C_1  and  C_2
REMARK    2  A    between atoms: N_5  and  C_6
REMARK    3  A    between atoms: C_6  and  C_7
REMARK    4  A    between atoms: C_9  and  C_10
REMARK    5  A    between atoms: C_16  and  C_17
REMARK    6  A    between atoms: C_18  and  C_19
REMARK    7  A    between atoms: C_24  and  C_25
REMARK                            x       y       z     vdW  Elec       q    Type
REMARK                         _______ _______ _______ _____ _____    ______ ____
ROOT
ATOM      1  C   UNL     1       2.288   5.997  18.857  0.00  0.00    +0.000 A 
ATOM      2  C   UNL     1       2.238   4.700  18.300  0.00  0.00    +0.000 A 
ATOM      3  C   UNL     1       1.767   3.597  19.023  0.00  0.00    +0.000 A 
ATOM      4  C   UNL     1       1.331   3.808  20.337  0.00  0.00    +0.000 A 
ATOM      5  C   UNL     1       1.328   5.097  20.888  0.00  0.00    +0.000 A 
ATOM      6  C   UNL     1       1.779   6.211  20.156  0.00  0.00    +0.000 A 
ENDROOT
BRANCH   3   7
ATOM      7  C   UNL     1       1.766   2.216  18.411  0.00  0.00    +0.000 C 
ATOM      8  F   UNL     1       2.213   2.194  17.122  0.00  0.00    +0.000 F 
ATOM      9  F   UNL     1       2.559   1.341  19.088  0.00  0.00    +0.000 F 
ATOM     10  F   UNL     1       0.526   1.655  18.382  0.00  0.00    +0.000 F 
ENDBRANCH   3   7
BRANCH   6  11
ATOM     11  C   UNL     1       1.826   7.516  20.847  0.00  0.00    +0.000 C 
ATOM     12  C   UNL     1       0.763   8.140  21.381  0.00  0.00    +0.000 C 
BRANCH  12  13
ATOM     13  C   UNL     1       0.871   9.561  21.810  0.00  0.00    +0.000 C 
ATOM     14  O   UNL     1       0.997   9.814  23.006  0.00  0.00    +0.000 OA
ATOM     15  N   UNL     1       0.888  10.531  20.817  0.00  0.00    +0.000 N 
ATOM     16  C   UNL     1       0.505  10.317  19.422  0.00  0.00    +0.000 C 
ATOM     17  C   UNL     1       1.458  11.045  18.476  0.00  0.00    +0.000 C 
ATOM     18  C   UNL     1       1.646  12.522  18.845  0.00  0.00    +0.000 C 
ATOM     19  C   UNL     1       1.956  12.697  20.335  0.00  0.00    +0.000 C 
ATOM     20  C   UNL     1       0.979  11.931  21.224  0.00  0.00    +0.000 C 
BRANCH  18  21
ATOM     21  C   UNL     1       0.457  13.308  18.462  0.00  0.00    +0.000 C 
ATOM     22  N   UNL     1      -0.475  13.922  18.158  0.00  0.00    +0.000 NA
ENDBRANCH  18  21
ENDBRANCH  12  13
ENDBRANCH   6  11
BRANCH   1  23
ATOM     23  C   UNL     1       3.001   7.064  18.044  0.00  0.00    +0.000 C 
BRANCH  23  28
ATOM     24  C   UNL     1       7.714   6.008  18.137  0.00  0.00    +0.000 C 
ATOM     25  C   UNL     1       6.350   6.302  17.666  0.00  0.00    +0.000 A 
ATOM     26  N   UNL     1       6.093   6.810  16.424  0.00  0.00    +0.000 NA
ATOM     27  N   UNL     1       4.794   7.063  16.387  0.00  0.00    +0.000 NA
ATOM     28  N   UNL     1       4.321   6.665  17.588  0.00  0.00    +0.000 N 
ATOM     29  N   UNL     1       5.260   6.183  18.437  0.00  0.00    +0.000 NA
ENDBRANCH  23  28
ENDBRANCH   1  23
TORSDOF 6
ENDMDL
MODEL 6
REMARK VINA RESULT:      -8.3      2.159      2.822
REMARK  Name = 
REMARK  7 active torsions:
REMARK  status: ('A' for Active; 'I' for Inactive)
REMARK    1  A    between atoms: C_1  and  C_2
REMARK    2  A    between atoms: N_5  and  C_6
REMARK    3  A    between atoms: C_6  and  C_7
REMARK    4  A    between atoms: C_9  and  C_10
REMARK    5  A    between atoms: C_16  and  C_17
REMARK    6  A    between atoms: C_18  and  C_19
REMARK    7  A    between atoms: C_24  and  C_25
REMARK                            x       y       z     vdW  Elec       q    Type
REMARK                         _______ _______ _______ _____ _____    ______ ____
ROOT
ATOM      1  C   UNL     1       2.759   5.865  18.541  0.00  0.00    +0.000 A 
ATOM      2  C   UNL     1       2.822   4.506  18.163  0.00  0.00    +0.000 A 
ATOM      3  C   UNL     1       2.280   3.487  18.958  0.00  0.00    +0.000 A 
ATOM      4  C   UNL     1       1.656   3.848  20.158  0.00  0.00    +0.000 A 
ATOM      5  C   UNL     1       1.541   5.198  20.523  0.00  0.00    +0.000 A 
ATOM      6  C   UNL     1       2.064   6.225  19.715  0.00  0.00    +0.000 A 
ENDROOT
BRANCH   3   7
ATOM      7  C   UNL     1       2.401   2.039  18.545  0.00  0.00    +0.000 C 
ATOM      8  F   UNL     1       3.606   1.483  18.867  0.00  0.00    +0.000 F 
ATOM      9  F   UNL     1       1.463   1.245  19.132  0.00  0.00    +0.000 F 
ATOM     10  F   UNL     1       2.259   1.861  17.203  0.00  0.00    +0.000 F 
ENDBRANCH   3   7
BRANCH   6  11
ATOM     11  C   UNL     1       1.978   7.610  20.222  0.00  0.00    +0.000 C 
ATOM     12  C   UNL     1       1.158   8.018  21.205  0.00  0.00    +0.000 C 
BRANCH  12  13
ATOM     13  C   UNL     1       0.956   9.471  21.452  0.00  0.00    +0.000 C 
ATOM     14  O   UNL     1       1.615  10.023  22.330  0.00  0.00    +0.000 OA
ATOM     15  N   UNL     1       0.069  10.145  20.623  0.00  0.00    +0.000 N 
ATOM     16  C   UNL     1      -0.906   9.511  19.738  0.00  0.00    +0.000 C 
ATOM     17  C   UNL     1      -0.976  10.232  18.393  0.00  0.00    +0.000 C 
ATOM     18  C   UNL     1      -1.172  11.746  18.543  0.00  0.00    +0.000 C 
ATOM     19  C   UNL     1      -0.184  12.346  19.549  0.00  0.00    +0.000 C 
ATOM     20  C   UNL     1      -0.151  11.569  20.863  0.00  0.00    +0.000 C 
BRANCH  18  21
ATOM     21  C   UNL     1      -2.562  12.054  18.927  0.00  0.00    +0.000 C 
ATOM     22  N   UNL     1      -3.651  12.299  19.231  0.00  0.00    +0.000 NA
ENDBRANCH  18  21
ENDBRANCH  12  13
ENDBRANCH   6  11
BRANCH   1  23
ATOM     23  C   UNL     1       3.553   6.847  17.697  0.00  0.00    +0.000 C 
BRANCH  23  28
ATOM     24  C   UNL     1       8.120   5.873  18.937  0.00  0.00    +0.000 C 
ATOM     25  C   UNL     1       6.913   6.174  18.149  0.00  0.00    +0.000 A 
ATOM     26  N   UNL     1       6.964   6.764  16.918  0.00  0.00    +0.000 NA
ATOM     27  N   UNL     1       5.710   6.994  16.562  0.00  0.00    +0.000 NA
ATOM     28  N   UNL     1       4.959   6.505  17.573  0.00  0.00    +0.000 N 
ATOM     29  N   UNL     1       5.666   5.982  18.603  0.00  0.00    +0.000 NA
ENDBRANCH  23  28
ENDBRANCH   1  23
TORSDOF 6
ENDMDL
MODEL 7
REMARK VINA RESULT:      -8.2      3.297      4.716
REMARK  Name = 
REMARK  7 active torsions:
REMARK  status: ('A' for Active; 'I' for Inactive)
REMARK    1  A    between atoms: C_1  and  C_2
REMARK    2  A    between atoms: N_5  and  C_6
REMARK    3  A    between atoms: C_6  and  C_7
REMARK    4  A    between atoms: C_9  and  C_10
REMARK    5  A    between atoms: C_16  and  C_17
REMARK    6  A    between atoms: C_18  and  C_19
REMARK    7  A    between atoms: C_24  and  C_25
REMARK                            x       y       z     vdW  Elec       q    Type
REMARK                         _______ _______ _______ _____ _____    ______ ____
ROOT
ATOM      1  C   UNL     1       3.060   4.943  17.457  0.00  0.00    +0.000 A 
ATOM      2  C   UNL     1       4.083   4.423  16.634  0.00  0.00    +0.000 A 
ATOM      3  C   UNL     1       5.277   5.119  16.401  0.00  0.00    +0.000 A 
ATOM      4  C   UNL     1       5.444   6.365  17.016  0.00  0.00    +0.000 A 
ATOM      5  C   UNL     1       4.459   6.873  17.875  0.00  0.00    +0.000 A 
ATOM      6  C   UNL     1       3.270   6.166  18.130  0.00  0.00    +0.000 A 
ENDROOT
BRANCH   3   7
ATOM      7  C   UNL     1       6.333   4.552  15.480  0.00  0.00    +0.000 C 
ATOM      8  F   UNL     1       7.565   4.460  16.062  0.00  0.00    +0.000 F 
ATOM      9  F   UNL     1       6.035   3.295  15.051  0.00  0.00    +0.000 F 
ATOM     10  F   UNL     1       6.509   5.302  14.358  0.00  0.00    +0.000 F 
ENDBRANCH   3   7
BRANCH   6  11
ATOM     11  C   UNL     1       2.250   6.818  18.976  0.00  0.00    +0.000 C 
ATOM     12  C   UNL     1       2.193   8.136  19.231  0.00  0.00    +0.000 C 
BRANCH  12  13
ATOM     13  C   UNL     1       1.298   8.650  20.304  0.00  0.00    +0.000 C 
ATOM     14  O   UNL     1       1.382   8.166  21.431  0.00  0.00    +0.000 OA
ATOM     15  N   UNL     1       0.453   9.703  19.984  0.00  0.00    +0.000 N 
ATOM     16  C   UNL     1       0.139  10.152  18.629  0.00  0.00    +0.000 C 
ATOM     17  C   UNL     1       0.104  11.677  18.551  0.00  0.00    +0.000 C 
ATOM     18  C   UNL     1      -0.788  12.304  19.631  0.00  0.00    +0.000 C 
ATOM     19  C   UNL     1      -0.479  11.734  21.019  0.00  0.00    +0.000 C 
ATOM     20  C   UNL     1      -0.441  10.208  21.024  0.00  0.00    +0.000 C 
BRANCH  18  21
ATOM     21  C   UNL     1      -2.213  12.124  19.296  0.00  0.00    +0.000 C 
ATOM     22  N   UNL     1      -3.332  11.987  19.037  0.00  0.00    +0.000 NA
ENDBRANCH  18  21
ENDBRANCH  12  13
ENDBRANCH   6  11
BRANCH   1  23
ATOM     23  C   UNL     1       1.743   4.189  17.471  0.00  0.00    +0.000 C 
BRANCH  23  28
ATOM     24  C   UNL     1       1.482   2.518  21.996  0.00  0.00    +0.000 C 
ATOM     25  C   UNL     1       1.590   2.587  20.530  0.00  0.00    +0.000 A 
ATOM     26  N   UNL     1       2.168   1.598  19.785  0.00  0.00    +0.000 NA
ATOM     27  N   UNL     1       2.203   2.042  18.539  0.00  0.00    +0.000 NA
ATOM     28  N   UNL     1       1.616   3.258  18.578  0.00  0.00    +0.000 N 
ATOM     29  N   UNL     1       1.216   3.655  19.810  0.00  0.00    +0.000 NA
ENDBRANCH  23  28
ENDBRANCH   1  23
TORSDOF 6
ENDMDL
MODEL 8
REMARK VINA RESULT:      -8.2      1.895      2.515
REMARK  Name = 
REMARK  7 active torsions:
REMARK  status: ('A' for Active; 'I' for Inactive)
REMARK    1  A    between atoms: C_1  and  C_2
REMARK    2  A    between atoms: N_5  and  C_6
REMARK    3  A    between atoms: C_6  and  C_7
REMARK    4  A    between atoms: C_9  and  C_10
REMARK    5  A    between atoms: C_16  and  C_17
REMARK    6  A    between atoms: C_18  and  C_19
REMARK    7  A    between atoms: C_24  and  C_25
REMARK                            x       y       z     vdW  Elec       q    Type
REMARK                         _______ _______ _______ _____ _____    ______ ____
ROOT
ATOM      1  C   UNL     1       2.841   5.965  18.547  0.00  0.00    +0.000 A 
ATOM      2  C   UNL     1       2.955   4.605  18.185  0.00  0.00    +0.000 A 
ATOM      3  C   UNL     1       2.435   3.576  18.981  0.00  0.00    +0.000 A 
ATOM      4  C   UNL     1       1.782   3.927  20.168  0.00  0.00    +0.000 A 
ATOM      5  C   UNL     1       1.617   5.276  20.518  0.00  0.00    +0.000 A 
ATOM      6  C   UNL     1       2.117   6.312  19.708  0.00  0.00    +0.000 A 
ENDROOT
BRANCH   3   7
ATOM      7  C   UNL     1       2.611   2.128  18.585  0.00  0.00    +0.000 C 
ATOM      8  F   UNL     1       1.741   1.285  19.213  0.00  0.00    +0.000 F 
ATOM      9  F   UNL     1       2.424   1.923  17.252  0.00  0.00    +0.000 F 
ATOM     10  F   UNL     1       3.855   1.654  18.867  0.00  0.00    +0.000 F 
ENDBRANCH   3   7
BRANCH   6  11
ATOM     11  C   UNL     1       1.977   7.698  20.200  0.00  0.00    +0.000 C 
ATOM     12  C   UNL     1       1.140   8.085  21.177  0.00  0.00    +0.000 C 
BRANCH  12  13
ATOM     13  C   UNL     1       0.882   9.532  21.407  0.00  0.00    +0.000 C 
ATOM     14  O   UNL     1       1.494  10.111  22.303  0.00  0.00    +0.000 OA
ATOM     15  N   UNL     1       0.001  10.172  20.546  0.00  0.00    +0.000 N 
ATOM     16  C   UNL     1      -0.924   9.500  19.634  0.00  0.00    +0.000 C 
ATOM     17  C   UNL     1      -0.973  10.212  18.283  0.00  0.00    +0.000 C 
ATOM     18  C   UNL     1      -1.224  11.719  18.417  0.00  0.00    +0.000 C 
ATOM     19  C   UNL     1      -0.290  12.357  19.450  0.00  0.00    +0.000 C 
ATOM     20  C   UNL     1      -0.273  11.589  20.769  0.00  0.00    +0.000 C 
BRANCH  18  21
ATOM     21  C   UNL     1      -2.636  11.983  18.754  0.00  0.00    +0.000 C 
ATOM     22  N   UNL     1      -3.743  12.186  19.020  0.00  0.00    +0.000 NA
ENDBRANCH  18  21
ENDBRANCH  12  13
ENDBRANCH   6  11
BRANCH   1  23
ATOM     23  C   UNL     1       3.614   6.964  17.706  0.00  0.00    +0.000 C 
BRANCH  23  28
ATOM     24  C   UNL     1       6.878   4.694  14.960  0.00  0.00    +0.000 C 
ATOM     25  C   UNL     1       6.236   5.412  16.074  0.00  0.00    +0.000 A 
ATOM     26  N   UNL     1       6.698   5.345  17.358  0.00  0.00    +0.000 NA
ATOM     27  N   UNL     1       5.822   6.001  18.103  0.00  0.00    +0.000 NA
ATOM     28  N   UNL     1       4.895   6.464  17.237  0.00  0.00    +0.000 N 
ATOM     29  N   UNL     1       5.103   6.116  15.944  0.00  0.00    +0.000 NA
ENDBRANCH  23  28
ENDBRANCH   1  23
TORSDOF 6
ENDMDL
MODEL 9
REMARK VINA RESULT:      -8.2      1.307      2.000
REMARK  Name = 
REMARK  7 active torsions:
REMARK  status: ('A' for Active; 'I' for Inactive)
REMARK    1  A    between atoms: C_1  and  C_2
REMARK    2  A    between atoms: N_5  and  C_6
REMARK    3  A    between atoms: C_6  and  C_7
REMARK    4  A    between atoms: C_9  and  C_10
REMARK    5  A    between atoms: C_16  and  C_17
REMARK    6  A    between atoms: C_18  and  C_19
REMARK    7  A    between atoms: C_24  and  C_25
REMARK                            x       y       z     vdW  Elec       q    Type
REMARK                         _______ _______ _______ _____ _____    ______ ____
ROOT
ATOM      1  C   UNL     1       3.734   5.518  17.380  0.00  0.00    +0.000 A 
ATOM      2  C   UNL     1       3.797   4.124  17.599  0.00  0.00    +0.000 A 
ATOM      3  C   UNL     1       2.990   3.483  18.548  0.00  0.00    +0.000 A 
ATOM      4  C   UNL     1       2.096   4.264  19.289  0.00  0.00    +0.000 A 
ATOM      5  C   UNL     1       1.986   5.642  19.049  0.00  0.00    +0.000 A 
ATOM      6  C   UNL     1       2.778   6.285  18.079  0.00  0.00    +0.000 A 
ENDROOT
BRANCH   3   7
ATOM      7  C   UNL     1       3.113   1.996  18.787  0.00  0.00    +0.000 C 
ATOM      8  F   UNL     1       4.030   1.675  19.745  0.00  0.00    +0.000 F 
ATOM      9  F   UNL     1       1.943   1.432  19.196  0.00  0.00    +0.000 F 
ATOM     10  F   UNL     1       3.489   1.314  17.671  0.00  0.00    +0.000 F 
ENDBRANCH   3   7
BRANCH   6  11
ATOM     11  C   UNL     1       2.660   7.752  17.959  0.00  0.00    +0.000 C 
ATOM     12  C   UNL     1       1.963   8.538  18.796  0.00  0.00    +0.000 C 
BRANCH  12  13
ATOM     13  C   UNL     1       1.687   9.955  18.433  0.00  0.00    +0.000 C 
ATOM     14  O   UNL     1       2.014  10.357  17.318  0.00  0.00    +0.000 OA
ATOM     15  N   UNL     1       1.009  10.734  19.360  0.00  0.00    +0.000 N 
ATOM     16  C   UNL     1       0.813  10.391  20.767  0.00  0.00    +0.000 C 
ATOM     17  C   UNL     1      -0.599  10.750  21.226  0.00  0.00    +0.000 C 
ATOM     18  C   UNL     1      -0.984  12.195  20.884  0.00  0.00    +0.000 C 
ATOM     19  C   UNL     1      -0.675  12.529  19.421  0.00  0.00    +0.000 C 
ATOM     20  C   UNL     1       0.744  12.130  19.022  0.00  0.00    +0.000 C 
BRANCH  18  21
ATOM     21  C   UNL     1      -0.309  13.142  21.791  0.00  0.00    +0.000 C 
ATOM     22  N   UNL     1       0.220  13.881  22.506  0.00  0.00    +0.000 NA
ENDBRANCH  18  21
ENDBRANCH  12  13
ENDBRANCH   6  11
BRANCH   1  23
ATOM     23  C   UNL     1       4.793   6.116  16.471  0.00  0.00    +0.000 C 
BRANCH  23  28
ATOM     24  C   UNL     1       8.313   5.711  19.757  0.00  0.00    +0.000 C 
ATOM     25  C   UNL     1       7.542   6.110  18.567  0.00  0.00    +0.000 A 
ATOM     26  N   UNL     1       7.770   7.279  17.898  0.00  0.00    +0.000 NA
ATOM     27  N   UNL     1       6.828   7.369  16.973  0.00  0.00    +0.000 NA
ATOM     28  N   UNL     1       6.097   6.240  17.099  0.00  0.00    +0.000 N 
ATOM     29  N   UNL     1       6.499   5.413  18.094  0.00  0.00    +0.000 NA
ENDBRANCH  23  28
ENDBRANCH   1  23
TORSDOF 6
ENDMDL
