MODEL 1
REMARK VINA RESULT:      -8.0      0.000      0.000
REMARK  Name = 
REMARK  6 active torsions:
REMARK  status: ('A' for Active; 'I' for Inactive)
REMARK    1  A    between atoms: C_1  and  C_2
REMARK    2  A    between atoms: C_3  and  C_4
REMARK    3  A    between atoms: C_4  and  C_5
REMARK    4  A    between atoms: C_5  and  O_7
REMARK    5  A    between atoms: C_16  and  C_18
REMARK    6  A    between atoms: C_22  and  C_23
REMARK                            x       y       z     vdW  Elec       q    Type
REMARK                         _______ _______ _______ _____ _____    ______ ____
ROOT
ATOM      1  C   UNL     1       1.919   9.378  18.766  0.00  0.00    +0.000 C 
ATOM      2  C   UNL     1       2.078   7.981  19.286  0.00  0.00    +0.000 A 
ATOM      3  C   UNL     1       1.536   7.406  20.427  0.00  0.00    +0.000 A 
ATOM      4  C   UNL     1       1.974   6.048  20.455  0.00  0.00    +0.000 A 
ATOM      5  C   UNL     1       1.699   4.974  21.330  0.00  0.00    +0.000 A 
ATOM      6  C   UNL     1       2.258   3.726  21.079  0.00  0.00    +0.000 A 
ATOM      7  F   UNL     1       1.984   2.705  21.902  0.00  0.00    +0.000 F 
ATOM      8  C   UNL     1       3.075   3.513  19.983  0.00  0.00    +0.000 A 
ATOM      9  C   UNL     1       3.350   4.557  19.095  0.00  0.00    +0.000 A 
ATOM     10  C   UNL     1       2.810   5.837  19.351  0.00  0.00    +0.000 A 
ATOM     11  N   UNL     1       2.883   7.037  18.632  0.00  0.00    +0.000 N 
ATOM     12  C   UNL     1       3.608   7.273  17.431  0.00  0.00    +0.000 C 
ATOM     13  O   UNL     1       3.151   8.106  16.649  0.00  0.00    +0.000 OA
ENDROOT
BRANCH  12  14
ATOM     14  C   UNL     1       4.899   6.648  17.044  0.00  0.00    +0.000 A 
ATOM     15  C   UNL     1       6.102   7.040  17.638  0.00  0.00    +0.000 A 
ATOM     16  C   UNL     1       7.310   6.519  17.172  0.00  0.00    +0.000 A 
ATOM     17  C   UNL     1       7.325   5.634  16.092  0.00  0.00    +0.000 A 
ATOM     18  C   UNL     1       6.131   5.255  15.461  0.00  0.00    +0.000 A 
ATOM     19  C   UNL     1       4.918   5.761  15.956  0.00  0.00    +0.000 A 
BRANCH  18  20
ATOM     20  C   UNL     1       6.136   4.348  14.253  0.00  0.00    +0.000 C 
ATOM     21  F   UNL     1       4.951   4.331  13.583  0.00  0.00    +0.000 F 
ATOM     22  F   UNL     1       7.077   4.708  13.340  0.00  0.00    +0.000 F 
ATOM     23  F   UNL     1       6.400   3.053  14.577  0.00  0.00    +0.000 F 
ENDBRANCH  18  20
ENDBRANCH  12  14
BRANCH   3  24
ATOM     24  C   UNL     1       0.605   8.043  21.428  0.00  0.00    +0.000 C 
BRANCH  24  25
ATOM     25  C   UNL     1       1.159   9.277  22.111  0.00  0.00    +0.000 C 
ATOM     26  O   UNL     1       0.660  10.388  21.988  0.00  0.00    +0.000 OA
BRANCH  25  27
ATOM     27  O   UNL     1       2.302   9.090  22.808  0.00  0.00    +0.000 OA
ATOM     28  H   UNL     1       3.093   9.451  22.364  0.00  0.00    +0.000 HD
ENDBRANCH  25  27
ENDBRANCH  24  25
ENDBRANCH   3  24
TORSDOF 5
ENDMDL
MODEL 2
REMARK VINA RESULT:      -7.6      3.472      7.051
REMARK  Name = 
REMARK  6 active torsions:
REMARK  status: ('A' for Active; 'I' for Inactive)
REMARK    1  A    between atoms: C_1  and  C_2
REMARK    2  A    between atoms: C_3  and  C_4
REMARK    3  A    between atoms: C_4  and  C_5
REMARK    4  A    between atoms: C_5  and  O_7
REMARK    5  A    between atoms: C_16  and  C_18
REMARK    6  A    between atoms: C_22  and  C_23
REMARK                            x       y       z     vdW  Elec       q    Type
REMARK                         _______ _______ _______ _____ _____    ______ ____
ROOT
ATOM      1  C   UNL     1       4.699   6.809  16.165  0.00  0.00    +0.000 C 
ATOM      2  C   UNL     1       3.956   5.994  17.181  0.00  0.00    +0.000 A 
ATOM      3  C   UNL     1       3.923   4.616  17.343  0.00  0.00    +0.000 A 
ATOM      4  C   UNL     1       3.087   4.350  18.468  0.00  0.00    +0.000 A 
ATOM      5  C   UNL     1       2.732   3.156  19.133  0.00  0.00    +0.000 A 
ATOM      6  C   UNL     1       1.905   3.214  20.249  0.00  0.00    +0.000 A 
ATOM      7  F   UNL     1       1.582   2.081  20.888  0.00  0.00    +0.000 F 
ATOM      8  C   UNL     1       1.425   4.421  20.725  0.00  0.00    +0.000 A 
ATOM      9  C   UNL     1       1.773   5.618  20.092  0.00  0.00    +0.000 A 
ATOM     10  C   UNL     1       2.592   5.573  18.942  0.00  0.00    +0.000 A 
ATOM     11  N   UNL     1       3.123   6.591  18.139  0.00  0.00    +0.000 N 
ATOM     12  C   UNL     1       2.900   7.989  18.272  0.00  0.00    +0.000 C 
ATOM     13  O   UNL     1       3.808   8.743  17.922  0.00  0.00    +0.000 OA
ENDROOT
BRANCH  12  14
ATOM     14  C   UNL     1       1.653   8.642  18.745  0.00  0.00    +0.000 A 
ATOM     15  C   UNL     1       0.817   9.336  17.865  0.00  0.00    +0.000 A 
ATOM     16  C   UNL     1      -0.286  10.036  18.358  0.00  0.00    +0.000 A 
ATOM     17  C   UNL     1      -0.537  10.077  19.730  0.00  0.00    +0.000 A 
ATOM     18  C   UNL     1       0.309   9.414  20.633  0.00  0.00    +0.000 A 
ATOM     19  C   UNL     1       1.398   8.687  20.126  0.00  0.00    +0.000 A 
BRANCH  18  20
ATOM     20  C   UNL     1       0.086   9.500  22.124  0.00  0.00    +0.000 C 
ATOM     21  F   UNL     1       1.200   9.227  22.856  0.00  0.00    +0.000 F 
ATOM     22  F   UNL     1      -0.326  10.736  22.516  0.00  0.00    +0.000 F 
ATOM     23  F   UNL     1      -0.868   8.631  22.557  0.00  0.00    +0.000 F 
ENDBRANCH  18  20
ENDBRANCH  12  14
BRANCH   3  24
ATOM     24  C   UNL     1       4.668   3.576  16.545  0.00  0.00    +0.000 C 
BRANCH  24  25
ATOM     25  C   UNL     1       6.104   3.934  16.223  0.00  0.00    +0.000 C 
ATOM     26  O   UNL     1       6.535   4.000  15.078  0.00  0.00    +0.000 OA
BRANCH  25  27
ATOM     27  O   UNL     1       6.915   4.097  17.293  0.00  0.00    +0.000 OA
ATOM     28  H   UNL     1       7.549   3.366  17.417  0.00  0.00    +0.000 HD
ENDBRANCH  25  27
ENDBRANCH  24  25
ENDBRANCH   3  24
TORSDOF 5
ENDMDL
MODEL 3
REMARK VINA RESULT:      -7.5      2.004      2.513
REMARK  Name = 
REMARK  6 active torsions:
REMARK  status: ('A' for Active; 'I' for Inactive)
REMARK    1  A    between atoms: C_1  and  C_2
REMARK    2  A    between atoms: C_3  and  C_4
REMARK    3  A    between atoms: C_4  and  C_5
REMARK    4  A    between atoms: C_5  and  O_7
REMARK    5  A    between atoms: C_16  and  C_18
REMARK    6  A    between atoms: C_22  and  C_23
REMARK                            x       y       z     vdW  Elec       q    Type
REMARK                         _______ _______ _______ _____ _____    ______ ____
ROOT
ATOM      1  C   UNL     1       1.742   9.551  18.891  0.00  0.00    +0.000 C 
ATOM      2  C   UNL     1       1.880   8.136  19.368  0.00  0.00    +0.000 A 
ATOM      3  C   UNL     1       1.322   7.532  20.487  0.00  0.00    +0.000 A 
ATOM      4  C   UNL     1       1.744   6.169  20.475  0.00  0.00    +0.000 A 
ATOM      5  C   UNL     1       1.450   5.072  21.315  0.00  0.00    +0.000 A 
ATOM      6  C   UNL     1       1.996   3.825  21.028  0.00  0.00    +0.000 A 
ATOM      7  F   UNL     1       1.703   2.783  21.816  0.00  0.00    +0.000 F 
ATOM      8  C   UNL     1       2.818   3.637  19.931  0.00  0.00    +0.000 A 
ATOM      9  C   UNL     1       3.112   4.704  19.078  0.00  0.00    +0.000 A 
ATOM     10  C   UNL     1       2.586   5.982  19.371  0.00  0.00    +0.000 A 
ATOM     11  N   UNL     1       2.678   7.203  18.690  0.00  0.00    +0.000 N 
ATOM     12  C   UNL     1       3.414   7.467  17.503  0.00  0.00    +0.000 C 
ATOM     13  O   UNL     1       2.974   8.330  16.743  0.00  0.00    +0.000 OA
ENDROOT
BRANCH  12  14
ATOM     14  C   UNL     1       4.700   6.839  17.104  0.00  0.00    +0.000 A 
ATOM     15  C   UNL     1       4.871   6.276  15.836  0.00  0.00    +0.000 A 
ATOM     16  C   UNL     1       6.049   5.593  15.531  0.00  0.00    +0.000 A 
ATOM     17  C   UNL     1       7.044   5.437  16.498  0.00  0.00    +0.000 A 
ATOM     18  C   UNL     1       6.876   5.967  17.787  0.00  0.00    +0.000 A 
ATOM     19  C   UNL     1       5.701   6.679  18.076  0.00  0.00    +0.000 A 
BRANCH  18  20
ATOM     20  C   UNL     1       7.915   5.754  18.863  0.00  0.00    +0.000 C 
ATOM     21  F   UNL     1       7.382   5.560  20.101  0.00  0.00    +0.000 F 
ATOM     22  F   UNL     1       8.699   4.670  18.618  0.00  0.00    +0.000 F 
ATOM     23  F   UNL     1       8.762   6.812  18.983  0.00  0.00    +0.000 F 
ENDBRANCH  18  20
ENDBRANCH  12  14
BRANCH   3  24
ATOM     24  C   UNL     1       0.393   8.149  21.501  0.00  0.00    +0.000 C 
BRANCH  24  25
ATOM     25  C   UNL     1       0.973   9.326  22.258  0.00  0.00    +0.000 C 
ATOM     26  O   UNL     1       0.396  10.401  22.365  0.00  0.00    +0.000 OA
BRANCH  25  27
ATOM     27  O   UNL     1       2.221   9.143  22.746  0.00  0.00    +0.000 OA
ATOM     28  H   UNL     1       2.364   9.558  23.618  0.00  0.00    +0.000 HD
ENDBRANCH  25  27
ENDBRANCH  24  25
ENDBRANCH   3  24
TORSDOF 5
ENDMDL
MODEL 4
REMARK VINA RESULT:      -7.1      3.543      7.068
REMARK  Name = 
REMARK  6 active torsions:
REMARK  status: ('A' for Active; 'I' for Inactive)
REMARK    1  A    between atoms: C_1  and  C_2
REMARK    2  A    between atoms: C_3  and  C_4
REMARK    3  A    between atoms: C_4  and  C_5
REMARK    4  A    between atoms: C_5  and  O_7
REMARK    5  A    between atoms: C_16  and  C_18
REMARK    6  A    between atoms: C_22  and  C_23
REMARK                            x       y       z     vdW  Elec       q    Type
REMARK                         _______ _______ _______ _____ _____    ______ ____
ROOT
ATOM      1  C   UNL     1       4.679   7.211  16.046  0.00  0.00    +0.000 C 
ATOM      2  C   UNL     1       4.064   6.470  17.196  0.00  0.00    +0.000 A 
ATOM      3  C   UNL     1       4.231   5.144  17.571  0.00  0.00    +0.000 A 
ATOM      4  C   UNL     1       3.445   4.943  18.745  0.00  0.00    +0.000 A 
ATOM      5  C   UNL     1       3.268   3.831  19.597  0.00  0.00    +0.000 A 
ATOM      6  C   UNL     1       2.444   3.946  20.710  0.00  0.00    +0.000 A 
ATOM      7  F   UNL     1       2.290   2.894  21.526  0.00  0.00    +0.000 F 
ATOM      8  C   UNL     1       1.797   5.133  21.005  0.00  0.00    +0.000 A 
ATOM      9  C   UNL     1       1.966   6.252  20.184  0.00  0.00    +0.000 A 
ATOM     10  C   UNL     1       2.781   6.143  19.035  0.00  0.00    +0.000 A 
ATOM     11  N   UNL     1       3.156   7.086  18.070  0.00  0.00    +0.000 N 
ATOM     12  C   UNL     1       2.735   8.442  17.989  0.00  0.00    +0.000 C 
ATOM     13  O   UNL     1       3.524   9.252  17.503  0.00  0.00    +0.000 OA
ENDROOT
BRANCH  12  14
ATOM     14  C   UNL     1       1.408   8.978  18.387  0.00  0.00    +0.000 A 
ATOM     15  C   UNL     1       0.368   9.105  17.460  0.00  0.00    +0.000 A 
ATOM     16  C   UNL     1      -0.828   9.718  17.836  0.00  0.00    +0.000 A 
ATOM     17  C   UNL     1      -0.978  10.238  19.122  0.00  0.00    +0.000 A 
ATOM     18  C   UNL     1       0.065  10.150  20.056  0.00  0.00    +0.000 A 
ATOM     19  C   UNL     1       1.254   9.505  19.679  0.00  0.00    +0.000 A 
BRANCH  18  20
ATOM     20  C   UNL     1      -0.059  10.763  21.431  0.00  0.00    +0.000 C 
ATOM     21  F   UNL     1       0.563  11.968  21.546  0.00  0.00    +0.000 F 
ATOM     22  F   UNL     1      -1.355  10.974  21.789  0.00  0.00    +0.000 F 
ATOM     23  F   UNL     1       0.476   9.973  22.402  0.00  0.00    +0.000 F 
ENDBRANCH  18  20
ENDBRANCH  12  14
BRANCH   3  24
ATOM     24  C   UNL     1       5.116   4.108  16.926  0.00  0.00    +0.000 C 
BRANCH  24  25
ATOM     25  C   UNL     1       6.601   4.337  17.114  0.00  0.00    +0.000 C 
ATOM     26  O   UNL     1       7.365   4.564  16.184  0.00  0.00    +0.000 OA
BRANCH  25  27
ATOM     27  O   UNL     1       7.054   4.191  18.380  0.00  0.00    +0.000 OA
ATOM     28  H   UNL     1       6.405   4.455  19.060  0.00  0.00    +0.000 HD
ENDBRANCH  25  27
ENDBRANCH  24  25
ENDBRANCH   3  24
TORSDOF 5
ENDMDL
MODEL 5
REMARK VINA RESULT:      -7.0      3.864      6.702
REMARK  Name = 
REMARK  6 active torsions:
REMARK  status: ('A' for Active; 'I' for Inactive)
REMARK    1  A    between atoms: C_1  and  C_2
REMARK    2  A    between atoms: C_3  and  C_4
REMARK    3  A    between atoms: C_4  and  C_5
REMARK    4  A    between atoms: C_5  and  O_7
REMARK    5  A    between atoms: C_16  and  C_18
REMARK    6  A    between atoms: C_22  and  C_23
REMARK                            x       y       z     vdW  Elec       q    Type
REMARK                         _______ _______ _______ _____ _____    ______ ____
ROOT
ATOM      1  C   UNL     1       4.464   7.216  16.132  0.00  0.00    +0.000 C 
ATOM      2  C   UNL     1       3.796   6.437  17.226  0.00  0.00    +0.000 A 
ATOM      3  C   UNL     1       3.836   5.073  17.479  0.00  0.00    +0.000 A 
ATOM      4  C   UNL     1       3.052   4.845  18.649  0.00  0.00    +0.000 A 
ATOM      5  C   UNL     1       2.778   3.683  19.403  0.00  0.00    +0.000 A 
ATOM      6  C   UNL     1       1.987   3.777  20.542  0.00  0.00    +0.000 A 
ATOM      7  F   UNL     1       1.742   2.676  21.265  0.00  0.00    +0.000 F 
ATOM      8  C   UNL     1       1.465   4.989  20.956  0.00  0.00    +0.000 A 
ATOM      9  C   UNL     1       1.733   6.155  20.233  0.00  0.00    +0.000 A 
ATOM     10  C   UNL     1       2.515   6.072  19.059  0.00  0.00    +0.000 A 
ATOM     11  N   UNL     1       2.967   7.058  18.172  0.00  0.00    +0.000 N 
ATOM     12  C   UNL     1       2.681   8.449  18.222  0.00  0.00    +0.000 C 
ATOM     13  O   UNL     1       3.539   9.219  17.790  0.00  0.00    +0.000 OA
ENDROOT
BRANCH  12  14
ATOM     14  C   UNL     1       1.420   9.074  18.697  0.00  0.00    +0.000 A 
ATOM     15  C   UNL     1       1.174   9.266  20.060  0.00  0.00    +0.000 A 
ATOM     16  C   UNL     1      -0.066   9.750  20.481  0.00  0.00    +0.000 A 
ATOM     17  C   UNL     1      -1.074  10.008  19.551  0.00  0.00    +0.000 A 
ATOM     18  C   UNL     1      -0.857   9.790  18.182  0.00  0.00    +0.000 A 
ATOM     19  C   UNL     1       0.403   9.333  17.764  0.00  0.00    +0.000 A 
BRANCH  18  20
ATOM     20  C   UNL     1      -1.958  10.005  17.170  0.00  0.00    +0.000 C 
ATOM     21  F   UNL     1      -1.801   9.271  16.034  0.00  0.00    +0.000 F 
ATOM     22  F   UNL     1      -3.184   9.680  17.660  0.00  0.00    +0.000 F 
ATOM     23  F   UNL     1      -2.045  11.302  16.767  0.00  0.00    +0.000 F 
ENDBRANCH  18  20
ENDBRANCH  12  14
BRANCH   3  24
ATOM     24  C   UNL     1       4.604   4.018  16.723  0.00  0.00    +0.000 C 
BRANCH  24  25
ATOM     25  C   UNL     1       6.108   4.099  16.875  0.00  0.00    +0.000 C 
ATOM     26  O   UNL     1       6.873   4.166  15.920  0.00  0.00    +0.000 OA
BRANCH  25  27
ATOM     27  O   UNL     1       6.569   4.009  18.143  0.00  0.00    +0.000 OA
ATOM     28  H   UNL     1       6.713   3.090  18.441  0.00  0.00    +0.000 HD
ENDBRANCH  25  27
ENDBRANCH  24  25
ENDBRANCH   3  24
TORSDOF 5
ENDMDL
MODEL 6
REMARK VINA RESULT:      -6.9      4.727      6.899
REMARK  Name = 
REMARK  6 active torsions:
REMARK  status: ('A' for Active; 'I' for Inactive)
REMARK    1  A    between atoms: C_1  and  C_2
REMARK    2  A    between atoms: C_3  and  C_4
REMARK    3  A    between atoms: C_4  and  C_5
REMARK    4  A    between atoms: C_5  and  O_7
REMARK    5  A    between atoms: C_16  and  C_18
REMARK    6  A    between atoms: C_22  and  C_23
REMARK                            x       y       z     vdW  Elec       q    Type
REMARK                         _______ _______ _______ _____ _____    ______ ____
ROOT
ATOM      1  C   UNL     1      -0.907  12.498  22.244  0.00  0.00    +0.000 C 
ATOM      2  C   UNL     1      -1.390  11.979  20.922  0.00  0.00    +0.000 A 
ATOM      3  C   UNL     1      -2.547  12.303  20.226  0.00  0.00    +0.000 A 
ATOM      4  C   UNL     1      -2.525  11.551  19.014  0.00  0.00    +0.000 A 
ATOM      5  C   UNL     1      -3.392  11.511  17.900  0.00  0.00    +0.000 A 
ATOM      6  C   UNL     1      -3.088  10.683  16.825  0.00  0.00    +0.000 A 
ATOM      7  F   UNL     1      -3.904  10.658  15.763  0.00  0.00    +0.000 F 
ATOM      8  C   UNL     1      -1.947   9.901  16.822  0.00  0.00    +0.000 A 
ATOM      9  C   UNL     1      -1.066   9.934  17.908  0.00  0.00    +0.000 A 
ATOM     10  C   UNL     1      -1.375  10.751  19.018  0.00  0.00    +0.000 A 
ATOM     11  N   UNL     1      -0.677  11.009  20.205  0.00  0.00    +0.000 N 
ATOM     12  C   UNL     1       0.555  10.429  20.616  0.00  0.00    +0.000 C 
ATOM     13  O   UNL     1       1.296  11.115  21.319  0.00  0.00    +0.000 OA
ENDROOT
BRANCH  12  14
ATOM     14  C   UNL     1       1.022   9.050  20.323  0.00  0.00    +0.000 A 
ATOM     15  C   UNL     1       0.825   8.008  21.235  0.00  0.00    +0.000 A 
ATOM     16  C   UNL     1       1.375   6.750  20.984  0.00  0.00    +0.000 A 
ATOM     17  C   UNL     1       2.152   6.536  19.843  0.00  0.00    +0.000 A 
ATOM     18  C   UNL     1       2.388   7.578  18.934  0.00  0.00    +0.000 A 
ATOM     19  C   UNL     1       1.805   8.832  19.179  0.00  0.00    +0.000 A 
BRANCH  18  20
ATOM     20  C   UNL     1       3.277   7.380  17.728  0.00  0.00    +0.000 C 
ATOM     21  F   UNL     1       3.294   6.097  17.272  0.00  0.00    +0.000 F 
ATOM     22  F   UNL     1       2.896   8.148  16.672  0.00  0.00    +0.000 F 
ATOM     23  F   UNL     1       4.574   7.703  17.982  0.00  0.00    +0.000 F 
ENDBRANCH  18  20
ENDBRANCH  12  14
BRANCH   3  24
ATOM     24  C   UNL     1      -3.607  13.303  20.614  0.00  0.00    +0.000 C 
BRANCH  24  25
ATOM     25  C   UNL     1      -4.858  12.697  21.215  0.00  0.00    +0.000 C 
ATOM     26  O   UNL     1      -5.862  12.449  20.558  0.00  0.00    +0.000 OA
BRANCH  25  27
ATOM     27  O   UNL     1      -4.831  12.521  22.556  0.00  0.00    +0.000 OA
ATOM     28  H   UNL     1      -4.124  11.919  22.856  0.00  0.00    +0.000 HD
ENDBRANCH  25  27
ENDBRANCH  24  25
ENDBRANCH   3  24
TORSDOF 5
ENDMDL
MODEL 7
REMARK VINA RESULT:      -6.8      3.298      7.106
REMARK  Name = 
REMARK  6 active torsions:
REMARK  status: ('A' for Active; 'I' for Inactive)
REMARK    1  A    between atoms: C_1  and  C_2
REMARK    2  A    between atoms: C_3  and  C_4
REMARK    3  A    between atoms: C_4  and  C_5
REMARK    4  A    between atoms: C_5  and  O_7
REMARK    5  A    between atoms: C_16  and  C_18
REMARK    6  A    between atoms: C_22  and  C_23
REMARK                            x       y       z     vdW  Elec       q    Type
REMARK                         _______ _______ _______ _____ _____    ______ ____
ROOT
ATOM      1  C   UNL     1       5.701   6.626  16.206  0.00  0.00    +0.000 C 
ATOM      2  C   UNL     1       4.682   5.700  16.801  0.00  0.00    +0.000 A 
ATOM      3  C   UNL     1       4.515   4.337  16.597  0.00  0.00    +0.000 A 
ATOM      4  C   UNL     1       3.419   3.927  17.413  0.00  0.00    +0.000 A 
ATOM      5  C   UNL     1       2.833   2.667  17.662  0.00  0.00    +0.000 A 
ATOM      6  C   UNL     1       1.770   2.570  18.553  0.00  0.00    +0.000 A 
ATOM      7  F   UNL     1       1.227   1.371  18.800  0.00  0.00    +0.000 F 
ATOM      8  C   UNL     1       1.277   3.685  19.206  0.00  0.00    +0.000 A 
ATOM      9  C   UNL     1       1.849   4.942  18.986  0.00  0.00    +0.000 A 
ATOM     10  C   UNL     1       2.913   5.060  18.065  0.00  0.00    +0.000 A 
ATOM     11  N   UNL     1       3.689   6.161  17.678  0.00  0.00    +0.000 N 
ATOM     12  C   UNL     1       3.540   7.507  18.110  0.00  0.00    +0.000 C 
ATOM     13  O   UNL     1       4.556   8.200  18.165  0.00  0.00    +0.000 OA
ENDROOT
BRANCH  12  14
ATOM     14  C   UNL     1       2.265   8.186  18.456  0.00  0.00    +0.000 A 
ATOM     15  C   UNL     1       1.548   8.916  17.502  0.00  0.00    +0.000 A 
ATOM     16  C   UNL     1       0.416   9.637  17.885  0.00  0.00    +0.000 A 
ATOM     17  C   UNL     1       0.017   9.663  19.222  0.00  0.00    +0.000 A 
ATOM     18  C   UNL     1       0.742   8.964  20.199  0.00  0.00    +0.000 A 
ATOM     19  C   UNL     1       1.862   8.216  19.801  0.00  0.00    +0.000 A 
BRANCH  18  20
ATOM     20  C   UNL     1       0.359   9.033  21.659  0.00  0.00    +0.000 C 
ATOM     21  F   UNL     1       1.366   8.672  22.502  0.00  0.00    +0.000 F 
ATOM     22  F   UNL     1      -0.017  10.284  22.037  0.00  0.00    +0.000 F 
ATOM     23  F   UNL     1      -0.689   8.217  21.959  0.00  0.00    +0.000 F 
ENDBRANCH  18  20
ENDBRANCH  12  14
BRANCH   3  24
ATOM     24  C   UNL     1       5.354   3.424  15.739  0.00  0.00    +0.000 C 
BRANCH  24  25
ATOM     25  C   UNL     1       5.727   3.991  14.386  0.00  0.00    +0.000 C 
ATOM     26  O   UNL     1       4.956   4.009  13.434  0.00  0.00    +0.000 OA
BRANCH  25  27
ATOM     27  O   UNL     1       7.007   4.408  14.264  0.00  0.00    +0.000 OA
ATOM     28  H   UNL     1       7.551   4.233  15.055  0.00  0.00    +0.000 HD
ENDBRANCH  25  27
ENDBRANCH  24  25
ENDBRANCH   3  24
TORSDOF 5
ENDMDL
MODEL 8
REMARK VINA RESULT:      -6.8      3.916      6.655
REMARK  Name = 
REMARK  6 active torsions:
REMARK  status: ('A' for Active; 'I' for Inactive)
REMARK    1  A    between atoms: C_1  and  C_2
REMARK    2  A    between atoms: C_3  and  C_4
REMARK    3  A    between atoms: C_4  and  C_5
REMARK    4  A    between atoms: C_5  and  O_7
REMARK    5  A    between atoms: C_16  and  C_18
REMARK    6  A    between atoms: C_22  and  C_23
REMARK                            x       y       z     vdW  Elec       q    Type
REMARK                         _______ _______ _______ _____ _____    ______ ____
ROOT
ATOM      1  C   UNL     1       4.396   7.348  16.133  0.00  0.00    +0.000 C 
ATOM      2  C   UNL     1       3.755   6.658  17.300  0.00  0.00    +0.000 A 
ATOM      3  C   UNL     1       3.843   5.327  17.685  0.00  0.00    +0.000 A 
ATOM      4  C   UNL     1       3.067   5.187  18.874  0.00  0.00    +0.000 A 
ATOM      5  C   UNL     1       2.835   4.096  19.740  0.00  0.00    +0.000 A 
ATOM      6  C   UNL     1       2.040   4.273  20.866  0.00  0.00    +0.000 A 
ATOM      7  F   UNL     1       1.833   3.240  21.694  0.00  0.00    +0.000 F 
ATOM      8  C   UNL     1       1.475   5.501  21.160  0.00  0.00    +0.000 A 
ATOM      9  C   UNL     1       1.701   6.600  20.326  0.00  0.00    +0.000 A 
ATOM     10  C   UNL     1       2.486   6.429  19.164  0.00  0.00    +0.000 A 
ATOM     11  N   UNL     1       2.904   7.338  18.183  0.00  0.00    +0.000 N 
ATOM     12  C   UNL     1       2.568   8.717  18.096  0.00  0.00    +0.000 C 
ATOM     13  O   UNL     1       3.399   9.471  17.589  0.00  0.00    +0.000 OA
ENDROOT
BRANCH  12  14
ATOM     14  C   UNL     1       1.286   9.340  18.511  0.00  0.00    +0.000 A 
ATOM     15  C   UNL     1       1.037   9.669  19.848  0.00  0.00    +0.000 A 
ATOM     16  C   UNL     1      -0.219  10.147  20.224  0.00  0.00    +0.000 A 
ATOM     17  C   UNL     1      -1.240  10.264  19.279  0.00  0.00    +0.000 A 
ATOM     18  C   UNL     1      -1.020   9.907  17.940  0.00  0.00    +0.000 A 
ATOM     19  C   UNL     1       0.256   9.457  17.564  0.00  0.00    +0.000 A 
BRANCH  18  20
ATOM     20  C   UNL     1      -2.132   9.969  16.920  0.00  0.00    +0.000 C 
ATOM     21  F   UNL     1      -3.329   9.529  17.394  0.00  0.00    +0.000 F 
ATOM     22  F   UNL     1      -2.350  11.233  16.467  0.00  0.00    +0.000 F 
ATOM     23  F   UNL     1      -1.867   9.215  15.818  0.00  0.00    +0.000 F 
ENDBRANCH  18  20
ENDBRANCH  12  14
BRANCH   3  24
ATOM     24  C   UNL     1       4.649   4.230  17.035  0.00  0.00    +0.000 C 
BRANCH  24  25
ATOM     25  C   UNL     1       6.112   4.203  17.425  0.00  0.00    +0.000 C 
ATOM     26  O   UNL     1       6.501   4.384  18.572  0.00  0.00    +0.000 OA
BRANCH  25  27
ATOM     27  O   UNL     1       6.982   4.048  16.401  0.00  0.00    +0.000 OA
ATOM     28  H   UNL     1       6.595   4.244  15.527  0.00  0.00    +0.000 HD
ENDBRANCH  25  27
ENDBRANCH  24  25
ENDBRANCH   3  24
TORSDOF 5
ENDMDL
MODEL 9
REMARK VINA RESULT:      -6.8      6.391      9.460
REMARK  Name = 
REMARK  6 active torsions:
REMARK  status: ('A' for Active; 'I' for Inactive)
REMARK    1  A    between atoms: C_1  and  C_2
REMARK    2  A    between atoms: C_3  and  C_4
REMARK    3  A    between atoms: C_4  and  C_5
REMARK    4  A    between atoms: C_5  and  O_7
REMARK    5  A    between atoms: C_16  and  C_18
REMARK    6  A    between atoms: C_22  and  C_23
REMARK                            x       y       z     vdW  Elec       q    Type
REMARK                         _______ _______ _______ _____ _____    ______ ____
ROOT
ATOM      1  C   UNL     1      -2.623  14.246  23.844  0.00  0.00    +0.000 C 
ATOM      2  C   UNL     1      -3.299  13.626  22.658  0.00  0.00    +0.000 A 
ATOM      3  C   UNL     1      -4.652  13.405  22.439  0.00  0.00    +0.000 A 
ATOM      4  C   UNL     1      -4.772  12.809  21.148  0.00  0.00    +0.000 A 
ATOM      5  C   UNL     1      -5.888  12.422  20.375  0.00  0.00    +0.000 A 
ATOM      6  C   UNL     1      -5.690  11.885  19.108  0.00  0.00    +0.000 A 
ATOM      7  F   UNL     1      -6.751  11.533  18.370  0.00  0.00    +0.000 F 
ATOM      8  C   UNL     1      -4.419  11.728  18.586  0.00  0.00    +0.000 A 
ATOM      9  C   UNL     1      -3.299  12.116  19.327  0.00  0.00    +0.000 A 
ATOM     10  C   UNL     1      -3.482  12.640  20.626  0.00  0.00    +0.000 A 
ATOM     11  N   UNL     1      -2.569  13.136  21.566  0.00  0.00    +0.000 N 
ATOM     12  C   UNL     1      -1.154  13.180  21.442  0.00  0.00    +0.000 C 
ATOM     13  O   UNL     1      -0.564  14.098  22.012  0.00  0.00    +0.000 OA
ENDROOT
BRANCH  12  14
ATOM     14  C   UNL     1      -0.299  12.194  20.732  0.00  0.00    +0.000 A 
ATOM     15  C   UNL     1       0.177  12.442  19.441  0.00  0.00    +0.000 A 
ATOM     16  C   UNL     1       0.880  11.450  18.756  0.00  0.00    +0.000 A 
ATOM     17  C   UNL     1       1.080  10.198  19.340  0.00  0.00    +0.000 A 
ATOM     18  C   UNL     1       0.581   9.919  20.622  0.00  0.00    +0.000 A 
ATOM     19  C   UNL     1      -0.099  10.933  21.316  0.00  0.00    +0.000 A 
BRANCH  18  20
ATOM     20  C   UNL     1       0.735   8.550  21.242  0.00  0.00    +0.000 C 
ATOM     21  F   UNL     1      -0.452   7.953  21.538  0.00  0.00    +0.000 F 
ATOM     22  F   UNL     1       1.398   7.685  20.428  0.00  0.00    +0.000 F 
ATOM     23  F   UNL     1       1.436   8.585  22.408  0.00  0.00    +0.000 F 
ENDBRANCH  18  20
ENDBRANCH  12  14
BRANCH   3  24
ATOM     24  C   UNL     1      -5.804  13.774  23.340  0.00  0.00    +0.000 C 
BRANCH  24  25
ATOM     25  C   UNL     1      -6.436  12.607  24.070  0.00  0.00    +0.000 C 
ATOM     26  O   UNL     1      -7.648  12.445  24.147  0.00  0.00    +0.000 OA
BRANCH  25  27
ATOM     27  O   UNL     1      -5.572  11.787  24.711  0.00  0.00    +0.000 OA
ATOM     28  H   UNL     1      -5.993  10.986  25.076  0.00  0.00    +0.000 HD
ENDBRANCH  25  27
ENDBRANCH  24  25
ENDBRANCH   3  24
TORSDOF 5
ENDMDL
