MODEL 1
REMARK VINA RESULT:      -7.8      0.000      0.000
REMARK  Name = 
REMARK  8 active torsions:
REMARK  status: ('A' for Active; 'I' for Inactive)
REMARK    1  A    between atoms: C_1  and  C_2
REMARK    2  A    between atoms: C_2  and  C_3
REMARK    3  A    between atoms: C_3  and  C_4
REMARK    4  A    between atoms: N_6  and  C_7
REMARK    5  A    between atoms: C_14  and  S_15
REMARK    6  A    between atoms: S_15  and  C_16
REMARK    7  A    between atoms: N_17  and  C_18
REMARK    8  A    between atoms: C_28  and  O_29
REMARK                            x       y       z     vdW  Elec       q    Type
REMARK                         _______ _______ _______ _____ _____    ______ ____
ROOT
ATOM      1  C   UNL     1       1.692   8.160  19.437  0.00  0.00    +0.000 A 
ATOM      2  N   UNL     1       2.358   8.751  18.415  0.00  0.00    +0.000 NA
ATOM      3  C   UNL     1       3.361   8.086  17.826  0.00  0.00    +0.000 A 
ATOM      4  N   UNL     1       3.794   6.854  18.122  0.00  0.00    +0.000 NA
ATOM      5  C   UNL     1       3.116   6.289  19.124  0.00  0.00    +0.000 A 
ATOM      6  C   UNL     1       2.081   6.877  19.840  0.00  0.00    +0.000 A 
ATOM      7  N   UNL     1       1.649   6.022  20.835  0.00  0.00    +0.000 NA
ATOM      8  C   UNL     1       2.394   4.944  20.693  0.00  0.00    +0.000 A 
ATOM      9  N   UNL     1       3.243   5.020  19.611  0.00  0.00    +0.000 N 
ENDROOT
BRANCH   9  10
ATOM     10  C   UNL     1       4.118   3.997  19.051  0.00  0.00    +0.000 C 
ATOM     11  O   UNL     1       5.490   4.496  19.079  0.00  0.00    +0.000 OA
ATOM     12  C   UNL     1       6.033   4.220  17.781  0.00  0.00    +0.000 C 
ATOM     13  C   UNL     1       7.142   5.141  17.309  0.00  0.00    +0.000 C 
ATOM     14  O   UNL     1       7.522   4.809  15.972  0.00  0.00    +0.000 OA
ATOM     15  P   UNL     1       6.391   4.729  14.814  0.00  0.00    +0.000 P 
ATOM     16  O   UNL     1       6.983   4.026  13.600  0.00  0.00    +0.000 OA
ATOM     17  O   UNL     1       5.769   6.091  14.632  0.00  0.00    +0.000 OA
ATOM     18  O   UNL     1       5.295   3.753  15.558  0.00  0.00    +0.000 OA
ATOM     19  C   UNL     1       4.883   4.299  16.804  0.00  0.00    +0.000 C 
ATOM     20  C   UNL     1       3.809   3.567  17.584  0.00  0.00    +0.000 C 
BRANCH  20  21
ATOM     21  O   UNL     1       3.990   2.150  17.429  0.00  0.00    +0.000 OA
ATOM     22  H   UNL     1       3.157   1.826  17.024  0.00  0.00    +0.000 HD
ENDBRANCH  20  21
ENDBRANCH   9  10
BRANCH   1  25
ATOM     23  C   UNL     1       0.704   9.384  21.320  0.00  0.00    +0.000 C 
ATOM     24  O   UNL     1       1.712   9.528  22.018  0.00  0.00    +0.000 OA
ATOM     25  N   UNL     1       0.620   8.798  20.074  0.00  0.00    +0.000 N 
ATOM     26  H   UNL     1      -0.228   8.870  19.526  0.00  0.00    +0.000 HD
BRANCH  23  27
ATOM     27  C   UNL     1      -0.658   9.869  21.822  0.00  0.00    +0.000 C 
BRANCH  27  29
ATOM     28  C   UNL     1      -1.897  11.644  23.148  0.00  0.00    +0.000 C 
ATOM     29  C   UNL     1      -0.579  11.229  22.509  0.00  0.00    +0.000 C 
ENDBRANCH  27  29
ENDBRANCH  23  27
ENDBRANCH   1  25
BRANCH   8  30
ATOM     30  S   UNL     1       2.323   3.581  21.760  0.00  0.00    +0.000 S 
ATOM     31  C   UNL     1       1.298   2.458  20.777  0.00  0.00    +0.000 C 
ENDBRANCH   8  30
TORSDOF 6
ENDMDL
MODEL 2
REMARK VINA RESULT:      -7.3      1.023      1.042
REMARK  Name = 
REMARK  8 active torsions:
REMARK  status: ('A' for Active; 'I' for Inactive)
REMARK    1  A    between atoms: C_1  and  C_2
REMARK    2  A    between atoms: C_2  and  C_3
REMARK    3  A    between atoms: C_3  and  C_4
REMARK    4  A    between atoms: N_6  and  C_7
REMARK    5  A    between atoms: C_14  and  S_15
REMARK    6  A    between atoms: S_15  and  C_16
REMARK    7  A    between atoms: N_17  and  C_18
REMARK    8  A    between atoms: C_28  and  O_29
REMARK                            x       y       z     vdW  Elec       q    Type
REMARK                         _______ _______ _______ _____ _____    ______ ____
ROOT
ATOM      1  C   UNL     1       1.759   8.207  19.261  0.00  0.00    +0.000 A 
ATOM      2  N   UNL     1       2.426   8.756  18.216  0.00  0.00    +0.000 NA
ATOM      3  C   UNL     1       3.422   8.062  17.648  0.00  0.00    +0.000 A 
ATOM      4  N   UNL     1       3.846   6.838  17.987  0.00  0.00    +0.000 NA
ATOM      5  C   UNL     1       3.167   6.315  19.011  0.00  0.00    +0.000 A 
ATOM      6  C   UNL     1       2.139   6.937  19.709  0.00  0.00    +0.000 A 
ATOM      7  N   UNL     1       1.703   6.122  20.735  0.00  0.00    +0.000 NA
ATOM      8  C   UNL     1       2.440   5.033  20.630  0.00  0.00    +0.000 A 
ATOM      9  N   UNL     1       3.286   5.064  19.543  0.00  0.00    +0.000 N 
ENDROOT
BRANCH   9  10
ATOM     10  C   UNL     1       4.150   4.014  19.018  0.00  0.00    +0.000 C 
ATOM     11  O   UNL     1       5.531   4.487  19.063  0.00  0.00    +0.000 OA
ATOM     12  C   UNL     1       6.093   4.178  17.781  0.00  0.00    +0.000 C 
ATOM     13  C   UNL     1       7.229   5.068  17.314  0.00  0.00    +0.000 C 
ATOM     14  O   UNL     1       7.626   4.705  15.991  0.00  0.00    +0.000 OA
ATOM     15  P   UNL     1       6.517   4.626  14.814  0.00  0.00    +0.000 P 
ATOM     16  O   UNL     1       7.117   3.891  13.624  0.00  0.00    +0.000 OA
ATOM     17  O   UNL     1       5.925   5.997  14.595  0.00  0.00    +0.000 OA
ATOM     18  O   UNL     1       5.387   3.685  15.553  0.00  0.00    +0.000 OA
ATOM     19  C   UNL     1       4.964   4.261  16.781  0.00  0.00    +0.000 C 
ATOM     20  C   UNL     1       3.861   3.564  17.554  0.00  0.00    +0.000 C 
BRANCH  20  21
ATOM     21  O   UNL     1       4.016   2.141  17.427  0.00  0.00    +0.000 OA
ATOM     22  H   UNL     1       3.640   1.765  18.252  0.00  0.00    +0.000 HD
ENDBRANCH  20  21
ENDBRANCH   9  10
BRANCH   1  25
ATOM     23  C   UNL     1       0.579  10.251  19.934  0.00  0.00    +0.000 C 
ATOM     24  O   UNL     1       1.307  11.090  19.396  0.00  0.00    +0.000 OA
ATOM     25  N   UNL     1       0.694   8.877  19.877  0.00  0.00    +0.000 N 
ATOM     26  H   UNL     1      -0.046   8.282  20.229  0.00  0.00    +0.000 HD
BRANCH  23  27
ATOM     27  C   UNL     1      -0.604  10.695  20.797  0.00  0.00    +0.000 C 
BRANCH  27  29
ATOM     28  C   UNL     1      -1.988  12.509  19.683  0.00  0.00    +0.000 C 
ATOM     29  C   UNL     1      -0.884  12.191  20.682  0.00  0.00    +0.000 C 
ENDBRANCH  27  29
ENDBRANCH  23  27
ENDBRANCH   1  25
BRANCH   8  30
ATOM     30  S   UNL     1       2.361   3.711  21.746  0.00  0.00    +0.000 S 
ATOM     31  C   UNL     1       1.279   2.584  20.831  0.00  0.00    +0.000 C 
ENDBRANCH   8  30
TORSDOF 6
ENDMDL
MODEL 3
REMARK VINA RESULT:      -6.8      6.356     11.401
REMARK  Name = 
REMARK  8 active torsions:
REMARK  status: ('A' for Active; 'I' for Inactive)
REMARK    1  A    between atoms: C_1  and  C_2
REMARK    2  A    between atoms: C_2  and  C_3
REMARK    3  A    between atoms: C_3  and  C_4
REMARK    4  A    between atoms: N_6  and  C_7
REMARK    5  A    between atoms: C_14  and  S_15
REMARK    6  A    between atoms: S_15  and  C_16
REMARK    7  A    between atoms: N_17  and  C_18
REMARK    8  A    between atoms: C_28  and  O_29
REMARK                            x       y       z     vdW  Elec       q    Type
REMARK                         _______ _______ _______ _____ _____    ______ ____
ROOT
ATOM      1  C   UNL     1      -0.228  10.489  19.757  0.00  0.00    +0.000 A 
ATOM      2  N   UNL     1       0.044  11.088  20.942  0.00  0.00    +0.000 NA
ATOM      3  C   UNL     1      -0.812  12.004  21.415  0.00  0.00    +0.000 A 
ATOM      4  N   UNL     1      -1.956  12.406  20.848  0.00  0.00    +0.000 NA
ATOM      5  C   UNL     1      -2.206  11.795  19.687  0.00  0.00    +0.000 A 
ATOM      6  C   UNL     1      -1.392  10.855  19.070  0.00  0.00    +0.000 A 
ATOM      7  N   UNL     1      -1.940  10.474  17.861  0.00  0.00    +0.000 NA
ATOM      8  C   UNL     1      -3.066  11.155  17.779  0.00  0.00    +0.000 A 
ATOM      9  N   UNL     1      -3.318  11.908  18.904  0.00  0.00    +0.000 N 
ENDROOT
BRANCH   9  10
ATOM     10  C   UNL     1      -4.504  12.684  19.248  0.00  0.00    +0.000 C 
ATOM     11  O   UNL     1      -4.095  13.807  20.086  0.00  0.00    +0.000 OA
ATOM     12  C   UNL     1      -5.013  13.829  21.187  0.00  0.00    +0.000 C 
ATOM     13  C   UNL     1      -4.494  14.426  22.481  0.00  0.00    +0.000 C 
ATOM     14  O   UNL     1      -5.476  14.299  23.511  0.00  0.00    +0.000 OA
ATOM     15  P   UNL     1      -6.115  12.846  23.834  0.00  0.00    +0.000 P 
ATOM     16  O   UNL     1      -7.356  13.037  24.694  0.00  0.00    +0.000 OA
ATOM     17  O   UNL     1      -5.027  11.923  24.327  0.00  0.00    +0.000 OA
ATOM     18  O   UNL     1      -6.541  12.381  22.315  0.00  0.00    +0.000 OA
ATOM     19  C   UNL     1      -5.422  12.397  21.439  0.00  0.00    +0.000 C 
ATOM     20  C   UNL     1      -5.621  11.913  20.016  0.00  0.00    +0.000 C 
BRANCH  20  21
ATOM     21  O   UNL     1      -6.919  12.319  19.552  0.00  0.00    +0.000 OA
ATOM     22  H   UNL     1      -7.551  11.983  20.224  0.00  0.00    +0.000 HD
ENDBRANCH  20  21
ENDBRANCH   9  10
BRANCH   1  25
ATOM     23  C   UNL     1       1.676   9.777  18.382  0.00  0.00    +0.000 C 
ATOM     24  O   UNL     1       2.103  10.883  18.040  0.00  0.00    +0.000 OA
ATOM     25  N   UNL     1       0.618   9.506  19.226  0.00  0.00    +0.000 N 
ATOM     26  H   UNL     1       0.451   8.565  19.559  0.00  0.00    +0.000 HD
BRANCH  23  27
ATOM     27  C   UNL     1       2.325   8.499  17.846  0.00  0.00    +0.000 C 
BRANCH  27  29
ATOM     28  C   UNL     1       2.339   6.025  18.416  0.00  0.00    +0.000 C 
ATOM     29  C   UNL     1       2.529   7.445  18.931  0.00  0.00    +0.000 C 
ENDBRANCH  27  29
ENDBRANCH  23  27
ENDBRANCH   1  25
BRANCH   8  30
ATOM     30  S   UNL     1      -4.110  11.118  16.397  0.00  0.00    +0.000 S 
ATOM     31  C   UNL     1      -2.938  10.587  15.124  0.00  0.00    +0.000 C 
ENDBRANCH   8  30
TORSDOF 6
ENDMDL
MODEL 4
REMARK VINA RESULT:      -6.7      4.614      9.064
REMARK  Name = 
REMARK  8 active torsions:
REMARK  status: ('A' for Active; 'I' for Inactive)
REMARK    1  A    between atoms: C_1  and  C_2
REMARK    2  A    between atoms: C_2  and  C_3
REMARK    3  A    between atoms: C_3  and  C_4
REMARK    4  A    between atoms: N_6  and  C_7
REMARK    5  A    between atoms: C_14  and  S_15
REMARK    6  A    between atoms: S_15  and  C_16
REMARK    7  A    between atoms: N_17  and  C_18
REMARK    8  A    between atoms: C_28  and  O_29
REMARK                            x       y       z     vdW  Elec       q    Type
REMARK                         _______ _______ _______ _____ _____    ______ ____
ROOT
ATOM      1  C   UNL     1       2.392   7.055  19.458  0.00  0.00    +0.000 A 
ATOM      2  N   UNL     1       2.903   7.003  18.204  0.00  0.00    +0.000 NA
ATOM      3  C   UNL     1       2.705   8.043  17.382  0.00  0.00    +0.000 A 
ATOM      4  N   UNL     1       2.053   9.179  17.662  0.00  0.00    +0.000 NA
ATOM      5  C   UNL     1       1.568   9.209  18.905  0.00  0.00    +0.000 A 
ATOM      6  C   UNL     1       1.673   8.192  19.845  0.00  0.00    +0.000 A 
ATOM      7  N   UNL     1       1.013   8.548  21.005  0.00  0.00    +0.000 NA
ATOM      8  C   UNL     1       0.551   9.760  20.764  0.00  0.00    +0.000 A 
ATOM      9  N   UNL     1       0.936  10.243  19.533  0.00  0.00    +0.000 N 
ENDROOT
BRANCH   9  10
ATOM     10  C   UNL     1       0.741  11.570  18.962  0.00  0.00    +0.000 C 
ATOM     11  O   UNL     1       1.459  12.538  19.785  0.00  0.00    +0.000 OA
ATOM     12  C   UNL     1       0.543  13.617  20.009  0.00  0.00    +0.000 C 
ATOM     13  C   UNL     1       0.746  14.416  21.282  0.00  0.00    +0.000 C 
ATOM     14  O   UNL     1      -0.287  15.394  21.421  0.00  0.00    +0.000 OA
ATOM     15  P   UNL     1      -1.839  14.937  21.342  0.00  0.00    +0.000 P 
ATOM     16  O   UNL     1      -2.705  16.175  21.162  0.00  0.00    +0.000 OA
ATOM     17  O   UNL     1      -2.140  14.002  22.487  0.00  0.00    +0.000 OA
ATOM     18  O   UNL     1      -1.804  14.058  19.951  0.00  0.00    +0.000 OA
ATOM     19  C   UNL     1      -0.843  13.015  20.026  0.00  0.00    +0.000 C 
ATOM     20  C   UNL     1      -0.738  12.054  18.858  0.00  0.00    +0.000 C 
BRANCH  20  21
ATOM     21  O   UNL     1      -0.945  12.772  17.631  0.00  0.00    +0.000 OA
ATOM     22  H   UNL     1      -0.314  12.378  16.991  0.00  0.00    +0.000 HD
ENDBRANCH  20  21
ENDBRANCH   9  10
BRANCH   1  25
ATOM     23  C   UNL     1       1.906   4.810  20.322  0.00  0.00    +0.000 C 
ATOM     24  O   UNL     1       1.110   4.430  19.458  0.00  0.00    +0.000 OA
ATOM     25  N   UNL     1       2.590   6.008  20.368  0.00  0.00    +0.000 N 
ATOM     26  H   UNL     1       3.332   6.153  21.041  0.00  0.00    +0.000 HD
BRANCH  23  27
ATOM     27  C   UNL     1       2.220   3.921  21.527  0.00  0.00    +0.000 C 
BRANCH  27  29
ATOM     28  C   UNL     1       3.898   2.515  20.238  0.00  0.00    +0.000 C 
ATOM     29  C   UNL     1       2.656   2.516  21.120  0.00  0.00    +0.000 C 
ENDBRANCH  27  29
ENDBRANCH  23  27
ENDBRANCH   1  25
BRANCH   8  30
ATOM     30  S   UNL     1      -0.444  10.644  21.872  0.00  0.00    +0.000 S 
ATOM     31  C   UNL     1      -0.243   9.632  23.361  0.00  0.00    +0.000 C 
ENDBRANCH   8  30
TORSDOF 6
ENDMDL
MODEL 5
REMARK VINA RESULT:      -6.7      4.503      8.567
REMARK  Name = 
REMARK  8 active torsions:
REMARK  status: ('A' for Active; 'I' for Inactive)
REMARK    1  A    between atoms: C_1  and  C_2
REMARK    2  A    between atoms: C_2  and  C_3
REMARK    3  A    between atoms: C_3  and  C_4
REMARK    4  A    between atoms: N_6  and  C_7
REMARK    5  A    between atoms: C_14  and  S_15
REMARK    6  A    between atoms: S_15  and  C_16
REMARK    7  A    between atoms: N_17  and  C_18
REMARK    8  A    between atoms: C_28  and  O_29
REMARK                            x       y       z     vdW  Elec       q    Type
REMARK                         _______ _______ _______ _____ _____    ______ ____
ROOT
ATOM      1  C   UNL     1       2.431   7.013  19.472  0.00  0.00    +0.000 A 
ATOM      2  N   UNL     1       2.973   6.938  18.232  0.00  0.00    +0.000 NA
ATOM      3  C   UNL     1       2.777   7.954  17.379  0.00  0.00    +0.000 A 
ATOM      4  N   UNL     1       2.100   9.084  17.614  0.00  0.00    +0.000 NA
ATOM      5  C   UNL     1       1.584   9.138  18.844  0.00  0.00    +0.000 A 
ATOM      6  C   UNL     1       1.684   8.147  19.812  0.00  0.00    +0.000 A 
ATOM      7  N   UNL     1       0.990   8.522  20.946  0.00  0.00    +0.000 NA
ATOM      8  C   UNL     1       0.514   9.718  20.663  0.00  0.00    +0.000 A 
ATOM      9  N   UNL     1       0.920  10.176  19.429  0.00  0.00    +0.000 N 
ENDROOT
BRANCH   9  10
ATOM     10  C   UNL     1       0.717  11.485  18.819  0.00  0.00    +0.000 C 
ATOM     11  O   UNL     1       2.023  12.075  18.542  0.00  0.00    +0.000 OA
ATOM     12  C   UNL     1       1.955  13.422  19.025  0.00  0.00    +0.000 C 
ATOM     13  C   UNL     1       3.268  14.050  19.452  0.00  0.00    +0.000 C 
ATOM     14  O   UNL     1       3.039  15.352  19.994  0.00  0.00    +0.000 OA
ATOM     15  P   UNL     1       1.963  15.544  21.190  0.00  0.00    +0.000 P 
ATOM     16  O   UNL     1       1.652  17.027  21.335  0.00  0.00    +0.000 OA
ATOM     17  O   UNL     1       2.429  14.779  22.405  0.00  0.00    +0.000 OA
ATOM     18  O   UNL     1       0.675  14.752  20.541  0.00  0.00    +0.000 OA
ATOM     19  C   UNL     1       1.011  13.414  20.205  0.00  0.00    +0.000 C 
ATOM     20  C   UNL     1      -0.087  12.515  19.671  0.00  0.00    +0.000 C 
BRANCH  20  21
ATOM     21  O   UNL     1      -0.966  13.282  18.832  0.00  0.00    +0.000 OA
ATOM     22  H   UNL     1      -1.645  13.650  19.437  0.00  0.00    +0.000 HD
ENDBRANCH  20  21
ENDBRANCH   9  10
BRANCH   1  25
ATOM     23  C   UNL     1       1.928   4.802  20.409  0.00  0.00    +0.000 C 
ATOM     24  O   UNL     1       1.123   4.402  19.563  0.00  0.00    +0.000 OA
ATOM     25  N   UNL     1       2.624   5.993  20.413  0.00  0.00    +0.000 N 
ATOM     26  H   UNL     1       3.372   6.152  21.076  0.00  0.00    +0.000 HD
BRANCH  23  27
ATOM     27  C   UNL     1       2.241   3.948  21.639  0.00  0.00    +0.000 C 
BRANCH  27  29
ATOM     28  C   UNL     1       3.896   2.558  20.305  0.00  0.00    +0.000 C 
ATOM     29  C   UNL     1       2.720   2.546  21.272  0.00  0.00    +0.000 C 
ENDBRANCH  27  29
ENDBRANCH  23  27
ENDBRANCH   1  25
BRANCH   8  30
ATOM     30  S   UNL     1      -0.523  10.613  21.724  0.00  0.00    +0.000 S 
ATOM     31  C   UNL     1      -0.322   9.658  23.249  0.00  0.00    +0.000 C 
ENDBRANCH   8  30
TORSDOF 6
ENDMDL
MODEL 6
REMARK VINA RESULT:      -6.5      6.281     11.410
REMARK  Name = 
REMARK  8 active torsions:
REMARK  status: ('A' for Active; 'I' for Inactive)
REMARK    1  A    between atoms: C_1  and  C_2
REMARK    2  A    between atoms: C_2  and  C_3
REMARK    3  A    between atoms: C_3  and  C_4
REMARK    4  A    between atoms: N_6  and  C_7
REMARK    5  A    between atoms: C_14  and  S_15
REMARK    6  A    between atoms: S_15  and  C_16
REMARK    7  A    between atoms: N_17  and  C_18
REMARK    8  A    between atoms: C_28  and  O_29
REMARK                            x       y       z     vdW  Elec       q    Type
REMARK                         _______ _______ _______ _____ _____    ______ ____
ROOT
ATOM      1  C   UNL     1       0.178  10.811  20.491  0.00  0.00    +0.000 A 
ATOM      2  N   UNL     1       0.537  11.701  21.449  0.00  0.00    +0.000 NA
ATOM      3  C   UNL     1      -0.271  12.740  21.700  0.00  0.00    +0.000 A 
ATOM      4  N   UNL     1      -1.443  13.011  21.112  0.00  0.00    +0.000 NA
ATOM      5  C   UNL     1      -1.778  12.115  20.180  0.00  0.00    +0.000 A 
ATOM      6  C   UNL     1      -1.022  11.014  19.799  0.00  0.00    +0.000 A 
ATOM      7  N   UNL     1      -1.654  10.337  18.775  0.00  0.00    +0.000 NA
ATOM      8  C   UNL     1      -2.771  11.008  18.574  0.00  0.00    +0.000 A 
ATOM      9  N   UNL     1      -2.936  12.047  19.462  0.00  0.00    +0.000 N 
ENDROOT
BRANCH   9  10
ATOM     10  C   UNL     1      -4.084  12.927  19.647  0.00  0.00    +0.000 C 
ATOM     11  O   UNL     1      -3.741  13.930  20.652  0.00  0.00    +0.000 OA
ATOM     12  C   UNL     1      -4.853  13.975  21.554  0.00  0.00    +0.000 C 
ATOM     13  C   UNL     1      -4.547  14.409  22.975  0.00  0.00    +0.000 C 
ATOM     14  O   UNL     1      -5.723  14.320  23.782  0.00  0.00    +0.000 OA
ATOM     15  P   UNL     1      -6.553  12.930  23.837  0.00  0.00    +0.000 P 
ATOM     16  O   UNL     1      -7.916  13.199  24.459  0.00  0.00    +0.000 OA
ATOM     17  O   UNL     1      -5.682  11.853  24.436  0.00  0.00    +0.000 OA
ATOM     18  O   UNL     1      -6.712  12.633  22.226  0.00  0.00    +0.000 OA
ATOM     19  C   UNL     1      -5.445  12.585  21.585  0.00  0.00    +0.000 C 
ATOM     20  C   UNL     1      -5.403  12.236  20.111  0.00  0.00    +0.000 C 
BRANCH  20  21
ATOM     21  O   UNL     1      -6.536  12.823  19.450  0.00  0.00    +0.000 OA
ATOM     22  H   UNL     1      -7.240  12.141  19.488  0.00  0.00    +0.000 HD
ENDBRANCH  20  21
ENDBRANCH   9  10
BRANCH   1  25
ATOM     23  C   UNL     1       0.835   8.471  20.831  0.00  0.00    +0.000 C 
ATOM     24  O   UNL     1      -0.029   8.135  21.646  0.00  0.00    +0.000 OA
ATOM     25  N   UNL     1       0.971   9.692  20.204  0.00  0.00    +0.000 N 
ATOM     26  H   UNL     1       1.624   9.809  19.439  0.00  0.00    +0.000 HD
BRANCH  23  27
ATOM     27  C   UNL     1       1.932   7.487  20.420  0.00  0.00    +0.000 C 
BRANCH  27  29
ATOM     28  C   UNL     1       2.529   6.456  18.177  0.00  0.00    +0.000 C 
ATOM     29  C   UNL     1       2.439   7.734  19.002  0.00  0.00    +0.000 C 
ENDBRANCH  27  29
ENDBRANCH  23  27
ENDBRANCH   1  25
BRANCH   8  30
ATOM     30  S   UNL     1      -3.903  10.630  17.318  0.00  0.00    +0.000 S 
ATOM     31  C   UNL     1      -2.908  11.030  15.859  0.00  0.00    +0.000 C 
ENDBRANCH   8  30
TORSDOF 6
ENDMDL
MODEL 7
REMARK VINA RESULT:      -6.5      4.736      9.236
REMARK  Name = 
REMARK  8 active torsions:
REMARK  status: ('A' for Active; 'I' for Inactive)
REMARK    1  A    between atoms: C_1  and  C_2
REMARK    2  A    between atoms: C_2  and  C_3
REMARK    3  A    between atoms: C_3  and  C_4
REMARK    4  A    between atoms: N_6  and  C_7
REMARK    5  A    between atoms: C_14  and  S_15
REMARK    6  A    between atoms: S_15  and  C_16
REMARK    7  A    between atoms: N_17  and  C_18
REMARK    8  A    between atoms: C_28  and  O_29
REMARK                            x       y       z     vdW  Elec       q    Type
REMARK                         _______ _______ _______ _____ _____    ______ ____
ROOT
ATOM      1  C   UNL     1       2.354   7.184  19.519  0.00  0.00    +0.000 A 
ATOM      2  N   UNL     1       2.774   7.257  18.233  0.00  0.00    +0.000 NA
ATOM      3  C   UNL     1       2.400   8.308  17.489  0.00  0.00    +0.000 A 
ATOM      4  N   UNL     1       1.647   9.344  17.879  0.00  0.00    +0.000 NA
ATOM      5  C   UNL     1       1.254   9.253  19.152  0.00  0.00    +0.000 A 
ATOM      6  C   UNL     1       1.542   8.208  20.020  0.00  0.00    +0.000 A 
ATOM      7  N   UNL     1       0.932   8.426  21.241  0.00  0.00    +0.000 NA
ATOM      8  C   UNL     1       0.320   9.585  21.104  0.00  0.00    +0.000 A 
ATOM      9  N   UNL     1       0.556  10.172  19.880  0.00  0.00    +0.000 N 
ENDROOT
BRANCH   9  10
ATOM     10  C   UNL     1       0.171  11.495  19.403  0.00  0.00    +0.000 C 
ATOM     11  O   UNL     1       0.295  12.440  20.509  0.00  0.00    +0.000 OA
ATOM     12  C   UNL     1      -0.915  13.208  20.505  0.00  0.00    +0.000 C 
ATOM     13  C   UNL     1      -1.347  13.786  21.840  0.00  0.00    +0.000 C 
ATOM     14  O   UNL     1      -2.608  14.444  21.706  0.00  0.00    +0.000 OA
ATOM     15  P   UNL     1      -3.862  13.649  21.059  0.00  0.00    +0.000 P 
ATOM     16  O   UNL     1      -4.950  14.654  20.709  0.00  0.00    +0.000 OA
ATOM     17  O   UNL     1      -4.216  12.476  21.940  0.00  0.00    +0.000 OA
ATOM     18  O   UNL     1      -3.155  13.074  19.689  0.00  0.00    +0.000 OA
ATOM     19  C   UNL     1      -2.005  12.297  19.991  0.00  0.00    +0.000 C 
ATOM     20  C   UNL     1      -1.279  11.621  18.845  0.00  0.00    +0.000 C 
BRANCH  20  21
ATOM     21  O   UNL     1      -1.301  12.480  17.693  0.00  0.00    +0.000 OA
ATOM     22  H   UNL     1      -0.369  12.526  17.387  0.00  0.00    +0.000 HD
ENDBRANCH  20  21
ENDBRANCH   9  10
BRANCH   1  25
ATOM     23  C   UNL     1       1.987   4.975  20.522  0.00  0.00    +0.000 C 
ATOM     24  O   UNL     1       0.953   4.654  19.930  0.00  0.00    +0.000 OA
ATOM     25  N   UNL     1       2.735   6.123  20.350  0.00  0.00    +0.000 N 
ATOM     26  H   UNL     1       3.647   6.213  20.778  0.00  0.00    +0.000 HD
BRANCH  23  27
ATOM     27  C   UNL     1       2.575   4.061  21.599  0.00  0.00    +0.000 C 
BRANCH  27  29
ATOM     28  C   UNL     1       3.870   2.540  20.031  0.00  0.00    +0.000 C 
ATOM     29  C   UNL     1       2.791   2.634  21.102  0.00  0.00    +0.000 C 
ENDBRANCH  27  29
ENDBRANCH  23  27
ENDBRANCH   1  25
BRANCH   8  30
ATOM     30  S   UNL     1      -0.685  10.289  22.326  0.00  0.00    +0.000 S 
ATOM     31  C   UNL     1      -0.032   9.456  23.796  0.00  0.00    +0.000 C 
ENDBRANCH   8  30
TORSDOF 6
ENDMDL
MODEL 8
REMARK VINA RESULT:      -6.4      4.041      8.643
REMARK  Name = 
REMARK  8 active torsions:
REMARK  status: ('A' for Active; 'I' for Inactive)
REMARK    1  A    between atoms: C_1  and  C_2
REMARK    2  A    between atoms: C_2  and  C_3
REMARK    3  A    between atoms: C_3  and  C_4
REMARK    4  A    between atoms: N_6  and  C_7
REMARK    5  A    between atoms: C_14  and  S_15
REMARK    6  A    between atoms: S_15  and  C_16
REMARK    7  A    between atoms: N_17  and  C_18
REMARK    8  A    between atoms: C_28  and  O_29
REMARK                            x       y       z     vdW  Elec       q    Type
REMARK                         _______ _______ _______ _____ _____    ______ ____
ROOT
ATOM      1  C   UNL     1       3.030   6.428  19.240  0.00  0.00    +0.000 A 
ATOM      2  N   UNL     1       3.633   6.594  18.037  0.00  0.00    +0.000 NA
ATOM      3  C   UNL     1       3.355   7.693  17.321  0.00  0.00    +0.000 A 
ATOM      4  N   UNL     1       2.536   8.694  17.667  0.00  0.00    +0.000 NA
ATOM      5  C   UNL     1       1.963   8.512  18.859  0.00  0.00    +0.000 A 
ATOM      6  C   UNL     1       2.137   7.410  19.686  0.00  0.00    +0.000 A 
ATOM      7  N   UNL     1       1.353   7.537  20.816  0.00  0.00    +0.000 NA
ATOM      8  C   UNL     1       0.750   8.701  20.671  0.00  0.00    +0.000 A 
ATOM      9  N   UNL     1       1.153   9.374  19.539  0.00  0.00    +0.000 N 
ENDROOT
BRANCH   9  10
ATOM     10  C   UNL     1       0.821  10.725  19.103  0.00  0.00    +0.000 C 
ATOM     11  O   UNL     1       1.233  11.662  20.145  0.00  0.00    +0.000 OA
ATOM     12  C   UNL     1       0.123  12.548  20.335  0.00  0.00    +0.000 C 
ATOM     13  C   UNL     1      -0.005  13.177  21.710  0.00  0.00    +0.000 C 
ATOM     14  O   UNL     1      -1.199  13.959  21.784  0.00  0.00    +0.000 OA
ATOM     15  P   UNL     1      -2.621  13.290  21.389  0.00  0.00    +0.000 P 
ATOM     16  O   UNL     1      -3.649  14.398  21.211  0.00  0.00    +0.000 OA
ATOM     17  O   UNL     1      -2.925  12.166  22.349  0.00  0.00    +0.000 OA
ATOM     18  O   UNL     1      -2.229  12.636  19.931  0.00  0.00    +0.000 OA
ATOM     19  C   UNL     1      -1.126  11.749  20.045  0.00  0.00    +0.000 C 
ATOM     20  C   UNL     1      -0.686  10.993  18.807  0.00  0.00    +0.000 C 
BRANCH  20  21
ATOM     21  O   UNL     1      -0.828  11.840  17.655  0.00  0.00    +0.000 OA
ATOM     22  H   UNL     1      -0.336  11.387  16.938  0.00  0.00    +0.000 HD
ENDBRANCH  20  21
ENDBRANCH   9  10
BRANCH   1  25
ATOM     23  C   UNL     1       3.281   4.012  19.582  0.00  0.00    +0.000 C 
ATOM     24  O   UNL     1       3.124   3.626  18.420  0.00  0.00    +0.000 OA
ATOM     25  N   UNL     1       3.302   5.312  20.042  0.00  0.00    +0.000 N 
ATOM     26  H   UNL     1       3.590   5.520  20.990  0.00  0.00    +0.000 HD
BRANCH  23  27
ATOM     27  C   UNL     1       3.468   2.998  20.713  0.00  0.00    +0.000 C 
BRANCH  27  29
ATOM     28  C   UNL     1       0.932   3.117  20.741  0.00  0.00    +0.000 C 
ATOM     29  C   UNL     1       2.195   2.786  21.526  0.00  0.00    +0.000 C 
ENDBRANCH  27  29
ENDBRANCH  23  27
ENDBRANCH   1  25
BRANCH   8  30
ATOM     30  S   UNL     1      -0.434   9.311  21.779  0.00  0.00    +0.000 S 
ATOM     31  C   UNL     1       0.564   9.419  23.286  0.00  0.00    +0.000 C 
ENDBRANCH   8  30
TORSDOF 6
ENDMDL
MODEL 9
REMARK VINA RESULT:      -6.4      4.512      9.452
REMARK  Name = 
REMARK  8 active torsions:
REMARK  status: ('A' for Active; 'I' for Inactive)
REMARK    1  A    between atoms: C_1  and  C_2
REMARK    2  A    between atoms: C_2  and  C_3
REMARK    3  A    between atoms: C_3  and  C_4
REMARK    4  A    between atoms: N_6  and  C_7
REMARK    5  A    between atoms: C_14  and  S_15
REMARK    6  A    between atoms: S_15  and  C_16
REMARK    7  A    between atoms: N_17  and  C_18
REMARK    8  A    between atoms: C_28  and  O_29
REMARK                            x       y       z     vdW  Elec       q    Type
REMARK                         _______ _______ _______ _____ _____    ______ ____
ROOT
ATOM      1  C   UNL     1       2.302   7.538  19.325  0.00  0.00    +0.000 A 
ATOM      2  N   UNL     1       2.634   7.869  18.053  0.00  0.00    +0.000 NA
ATOM      3  C   UNL     1       2.166   9.015  17.540  0.00  0.00    +0.000 A 
ATOM      4  N   UNL     1       1.394   9.918  18.157  0.00  0.00    +0.000 NA
ATOM      5  C   UNL     1       1.089   9.574  19.411  0.00  0.00    +0.000 A 
ATOM      6  C   UNL     1       1.479   8.406  20.052  0.00  0.00    +0.000 A 
ATOM      7  N   UNL     1       0.941   8.361  21.324  0.00  0.00    +0.000 NA
ATOM      8  C   UNL     1       0.271   9.491  21.440  0.00  0.00    +0.000 A 
ATOM      9  N   UNL     1       0.401  10.304  20.336  0.00  0.00    +0.000 N 
ENDROOT
BRANCH   9  10
ATOM     10  C   UNL     1      -0.073  11.668  20.136  0.00  0.00    +0.000 C 
ATOM     11  O   UNL     1       0.244  12.448  21.329  0.00  0.00    +0.000 OA
ATOM     12  C   UNL     1      -0.952  13.168  21.655  0.00  0.00    +0.000 C 
ATOM     13  C   UNL     1      -1.138  13.533  23.115  0.00  0.00    +0.000 C 
ATOM     14  O   UNL     1      -2.406  14.161  23.309  0.00  0.00    +0.000 OA
ATOM     15  P   UNL     1      -3.752  13.427  22.786  0.00  0.00    +0.000 P 
ATOM     16  O   UNL     1      -4.892  14.435  22.789  0.00  0.00    +0.000 OA
ATOM     17  O   UNL     1      -3.932  12.128  23.533  0.00  0.00    +0.000 OA
ATOM     18  O   UNL     1      -3.303  13.079  21.242  0.00  0.00    +0.000 OA
ATOM     19  C   UNL     1      -2.112  12.305  21.215  0.00  0.00    +0.000 C 
ATOM     20  C   UNL     1      -1.602  11.825  19.871  0.00  0.00    +0.000 C 
BRANCH  20  21
ATOM     21  O   UNL     1      -1.838  12.840  18.881  0.00  0.00    +0.000 OA
ATOM     22  H   UNL     1      -1.527  12.453  18.034  0.00  0.00    +0.000 HD
ENDBRANCH  20  21
ENDBRANCH   9  10
BRANCH   1  25
ATOM     23  C   UNL     1       2.747   5.125  19.316  0.00  0.00    +0.000 C 
ATOM     24  O   UNL     1       2.392   4.858  18.164  0.00  0.00    +0.000 OA
ATOM     25  N   UNL     1       2.783   6.365  19.921  0.00  0.00    +0.000 N 
ATOM     26  H   UNL     1       3.235   6.488  20.818  0.00  0.00    +0.000 HD
BRANCH  23  27
ATOM     27  C   UNL     1       3.201   4.010  20.260  0.00  0.00    +0.000 C 
BRANCH  27  29
ATOM     28  C   UNL     1       1.104   2.819  21.055  0.00  0.00    +0.000 C 
ATOM     29  C   UNL     1       2.226   3.785  21.413  0.00  0.00    +0.000 C 
ENDBRANCH  27  29
ENDBRANCH  23  27
ENDBRANCH   1  25
BRANCH   8  30
ATOM     30  S   UNL     1      -0.683   9.901  22.826  0.00  0.00    +0.000 S 
ATOM     31  C   UNL     1       0.423   9.350  24.150  0.00  0.00    +0.000 C 
ENDBRANCH   8  30
TORSDOF 6
ENDMDL
