MODEL 1
REMARK VINA RESULT:      -8.0      0.000      0.000
REMARK  Name = 
REMARK  8 active torsions:
REMARK  status: ('A' for Active; 'I' for Inactive)
REMARK    1  A    between atoms: C_1  and  C_2
REMARK    2  A    between atoms: C_2  and  O_3
REMARK    3  A    between atoms: O_3  and  C_4
REMARK    4  A    between atoms: C_4  and  C_6
REMARK    5  A    between atoms: C_6  and  C_7
REMARK    6  A    between atoms: C_10  and  N_11
REMARK    7  A    between atoms: C_12  and  C_14
REMARK    8  A    between atoms: C_18  and  N_19
REMARK                            x       y       z     vdW  Elec       q    Type
REMARK                         _______ _______ _______ _____ _____    ______ ____
ROOT
ATOM      1  N   UNL     1       2.179   7.510  18.788  0.00  0.00    +0.000 N 
ATOM      2  C   UNL     1       1.781   8.755  18.325  0.00  0.00    +0.000 C 
ATOM      3  O   UNL     1       2.122   9.276  17.270  0.00  0.00    +0.000 OA
ATOM      4  H   UNL     1       1.756   7.149  19.634  0.00  0.00    +0.000 HD
ENDROOT
BRANCH   1   8
ATOM      5  C   UNL     1       4.702   4.792  16.711  0.00  0.00    +0.000 A 
ATOM      6  C   UNL     1       5.004   6.153  16.726  0.00  0.00    +0.000 A 
ATOM      7  C   UNL     1       4.194   7.054  17.415  0.00  0.00    +0.000 A 
ATOM      8  C   UNL     1       3.058   6.625  18.107  0.00  0.00    +0.000 A 
ATOM      9  C   UNL     1       2.772   5.255  18.123  0.00  0.00    +0.000 A 
ATOM     10  C   UNL     1       3.589   4.344  17.434  0.00  0.00    +0.000 A 
BRANCH   5  11
ATOM     11  C   UNL     1       5.585   3.833  15.954  0.00  0.00    +0.000 C 
BRANCH  11  12
ATOM     12  C   UNL     1       6.986   4.346  15.715  0.00  0.00    +0.000 C 
ATOM     13  O   UNL     1       7.837   4.562  16.565  0.00  0.00    +0.000 OA
BRANCH  12  14
ATOM     14  O   UNL     1       7.126   4.620  14.383  0.00  0.00    +0.000 OA
BRANCH  14  16
ATOM     15  C   UNL     1       6.848   3.884  12.132  0.00  0.00    +0.000 C 
ATOM     16  C   UNL     1       6.232   3.904  13.520  0.00  0.00    +0.000 C 
ENDBRANCH  14  16
ENDBRANCH  12  14
ENDBRANCH  11  12
ENDBRANCH   5  11
ENDBRANCH   1   8
BRANCH   2  17
ATOM     17  C   UNL     1       0.825   9.537  19.152  0.00  0.00    +0.000 A 
ATOM     18  C   UNL     1      -0.065  10.374  18.453  0.00  0.00    +0.000 A 
ATOM     19  C   UNL     1      -0.921  11.243  19.126  0.00  0.00    +0.000 A 
ATOM     20  C   UNL     1      -0.898  11.287  20.516  0.00  0.00    +0.000 A 
ATOM     21  C   UNL     1      -0.022  10.447  21.222  0.00  0.00    +0.000 A 
ATOM     22  C   UNL     1       0.843   9.562  20.549  0.00  0.00    +0.000 A 
BRANCH  21  23
ATOM     23  N   UNL     1       0.011  10.521  22.689  0.00  0.00    +0.000 N 
ATOM     24  O   UNL     1      -0.656  11.412  23.236  0.00  0.00    +0.000 OA
ATOM     25  O   UNL     1       0.688   9.678  23.290  0.00  0.00    +0.000 OA
ENDBRANCH  21  23
ENDBRANCH   2  17
TORSDOF 7
ENDMDL
MODEL 2
REMARK VINA RESULT:      -7.7      0.955      1.587
REMARK  Name = 
REMARK  8 active torsions:
REMARK  status: ('A' for Active; 'I' for Inactive)
REMARK    1  A    between atoms: C_1  and  C_2
REMARK    2  A    between atoms: C_2  and  O_3
REMARK    3  A    between atoms: O_3  and  C_4
REMARK    4  A    between atoms: C_4  and  C_6
REMARK    5  A    between atoms: C_6  and  C_7
REMARK    6  A    between atoms: C_10  and  N_11
REMARK    7  A    between atoms: C_12  and  C_14
REMARK    8  A    between atoms: C_18  and  N_19
REMARK                            x       y       z     vdW  Elec       q    Type
REMARK                         _______ _______ _______ _____ _____    ______ ____
ROOT
ATOM      1  N   UNL     1       2.579   7.410  18.719  0.00  0.00    +0.000 N 
ATOM      2  C   UNL     1       2.006   8.583  18.251  0.00  0.00    +0.000 C 
ATOM      3  O   UNL     1       2.134   9.050  17.125  0.00  0.00    +0.000 OA
ATOM      4  H   UNL     1       2.325   7.080  19.641  0.00  0.00    +0.000 HD
ENDROOT
BRANCH   1   8
ATOM      5  C   UNL     1       5.191   4.889  16.508  0.00  0.00    +0.000 A 
ATOM      6  C   UNL     1       3.975   4.394  16.977  0.00  0.00    +0.000 A 
ATOM      7  C   UNL     1       3.101   5.213  17.691  0.00  0.00    +0.000 A 
ATOM      8  C   UNL     1       3.416   6.548  17.961  0.00  0.00    +0.000 A 
ATOM      9  C   UNL     1       4.621   7.057  17.460  0.00  0.00    +0.000 A 
ATOM     10  C   UNL     1       5.500   6.235  16.736  0.00  0.00    +0.000 A 
BRANCH   5  11
ATOM     11  C   UNL     1       6.126   3.986  15.744  0.00  0.00    +0.000 C 
BRANCH  11  12
ATOM     12  C   UNL     1       6.328   4.391  14.302  0.00  0.00    +0.000 C 
ATOM     13  O   UNL     1       7.183   5.151  13.872  0.00  0.00    +0.000 OA
BRANCH  12  14
ATOM     14  O   UNL     1       5.331   3.832  13.551  0.00  0.00    +0.000 OA
BRANCH  14  16
ATOM     15  C   UNL     1       4.497   3.167  11.419  0.00  0.00    +0.000 C 
ATOM     16  C   UNL     1       5.742   3.334  12.270  0.00  0.00    +0.000 C 
ENDBRANCH  14  16
ENDBRANCH  12  14
ENDBRANCH  11  12
ENDBRANCH   5  11
ENDBRANCH   1   8
BRANCH   2  17
ATOM     17  C   UNL     1       1.125   9.347  19.171  0.00  0.00    +0.000 A 
ATOM     18  C   UNL     1       0.466  10.463  18.620  0.00  0.00    +0.000 A 
ATOM     19  C   UNL     1      -0.288  11.324  19.415  0.00  0.00    +0.000 A 
ATOM     20  C   UNL     1      -0.394  11.079  20.781  0.00  0.00    +0.000 A 
ATOM     21  C   UNL     1       0.250   9.961  21.337  0.00  0.00    +0.000 A 
ATOM     22  C   UNL     1       1.011   9.084  20.539  0.00  0.00    +0.000 A 
BRANCH  21  23
ATOM     23  N   UNL     1       0.152   9.728  22.784  0.00  0.00    +0.000 N 
ATOM     24  O   UNL     1       1.210   9.648  23.427  0.00  0.00    +0.000 OA
ATOM     25  O   UNL     1      -0.979   9.644  23.275  0.00  0.00    +0.000 OA
ENDBRANCH  21  23
ENDBRANCH   2  17
TORSDOF 7
ENDMDL
MODEL 3
REMARK VINA RESULT:      -7.5      0.806      1.050
REMARK  Name = 
REMARK  8 active torsions:
REMARK  status: ('A' for Active; 'I' for Inactive)
REMARK    1  A    between atoms: C_1  and  C_2
REMARK    2  A    between atoms: C_2  and  O_3
REMARK    3  A    between atoms: O_3  and  C_4
REMARK    4  A    between atoms: C_4  and  C_6
REMARK    5  A    between atoms: C_6  and  C_7
REMARK    6  A    between atoms: C_10  and  N_11
REMARK    7  A    between atoms: C_12  and  C_14
REMARK    8  A    between atoms: C_18  and  N_19
REMARK                            x       y       z     vdW  Elec       q    Type
REMARK                         _______ _______ _______ _____ _____    ______ ____
ROOT
ATOM      1  N   UNL     1       2.235   7.466  18.630  0.00  0.00    +0.000 N 
ATOM      2  C   UNL     1       1.868   8.735  18.209  0.00  0.00    +0.000 C 
ATOM      3  O   UNL     1       2.360   9.357  17.274  0.00  0.00    +0.000 OA
ATOM      4  H   UNL     1       1.691   7.019  19.357  0.00  0.00    +0.000 HD
ENDROOT
BRANCH   1   8
ATOM      5  C   UNL     1       5.187   5.016  16.800  0.00  0.00    +0.000 A 
ATOM      6  C   UNL     1       5.431   6.374  16.995  0.00  0.00    +0.000 A 
ATOM      7  C   UNL     1       4.478   7.187  17.607  0.00  0.00    +0.000 A 
ATOM      8  C   UNL     1       3.253   6.670  18.040  0.00  0.00    +0.000 A 
ATOM      9  C   UNL     1       3.020   5.299  17.877  0.00  0.00    +0.000 A 
ATOM     10  C   UNL     1       3.981   4.477  17.265  0.00  0.00    +0.000 A 
BRANCH   5  11
ATOM     11  C   UNL     1       6.226   4.152  16.130  0.00  0.00    +0.000 C 
BRANCH  11  12
ATOM     12  C   UNL     1       6.588   4.600  14.733  0.00  0.00    +0.000 C 
ATOM     13  O   UNL     1       7.502   5.349  14.423  0.00  0.00    +0.000 OA
BRANCH  12  14
ATOM     14  O   UNL     1       5.661   4.097  13.863  0.00  0.00    +0.000 OA
BRANCH  14  16
ATOM     15  C   UNL     1       5.042   3.034  11.820  0.00  0.00    +0.000 C 
ATOM     16  C   UNL     1       6.193   3.617  12.620  0.00  0.00    +0.000 C 
ENDBRANCH  14  16
ENDBRANCH  12  14
ENDBRANCH  11  12
ENDBRANCH   5  11
ENDBRANCH   1   8
BRANCH   2  17
ATOM     17  C   UNL     1       0.753   9.414  18.921  0.00  0.00    +0.000 A 
ATOM     18  C   UNL     1      -0.228  10.017  18.111  0.00  0.00    +0.000 A 
ATOM     19  C   UNL     1      -1.250  10.785  18.664  0.00  0.00    +0.000 A 
ATOM     20  C   UNL     1      -1.307  10.959  20.043  0.00  0.00    +0.000 A 
ATOM     21  C   UNL     1      -0.340  10.350  20.859  0.00  0.00    +0.000 A 
ATOM     22  C   UNL     1       0.695   9.570  20.308  0.00  0.00    +0.000 A 
BRANCH  21  23
ATOM     23  N   UNL     1      -0.395  10.563  22.312  0.00  0.00    +0.000 N 
ATOM     24  O   UNL     1      -0.655   9.584  23.028  0.00  0.00    +0.000 OA
ATOM     25  O   UNL     1      -0.159  11.702  22.733  0.00  0.00    +0.000 OA
ENDBRANCH  21  23
ENDBRANCH   2  17
TORSDOF 7
ENDMDL
MODEL 4
REMARK VINA RESULT:      -7.4      1.766      2.431
REMARK  Name = 
REMARK  8 active torsions:
REMARK  status: ('A' for Active; 'I' for Inactive)
REMARK    1  A    between atoms: C_1  and  C_2
REMARK    2  A    between atoms: C_2  and  O_3
REMARK    3  A    between atoms: O_3  and  C_4
REMARK    4  A    between atoms: C_4  and  C_6
REMARK    5  A    between atoms: C_6  and  C_7
REMARK    6  A    between atoms: C_10  and  N_11
REMARK    7  A    between atoms: C_12  and  C_14
REMARK    8  A    between atoms: C_18  and  N_19
REMARK                            x       y       z     vdW  Elec       q    Type
REMARK                         _______ _______ _______ _____ _____    ______ ____
ROOT
ATOM      1  N   UNL     1       2.305   7.476  18.776  0.00  0.00    +0.000 N 
ATOM      2  C   UNL     1       1.877   8.707  18.303  0.00  0.00    +0.000 C 
ATOM      3  O   UNL     1       2.158   9.201  17.217  0.00  0.00    +0.000 OA
ATOM      4  H   UNL     1       1.931   7.136  19.653  0.00  0.00    +0.000 HD
ENDROOT
BRANCH   1   8
ATOM      5  C   UNL     1       4.932   4.847  16.713  0.00  0.00    +0.000 A 
ATOM      6  C   UNL     1       3.750   4.359  17.269  0.00  0.00    +0.000 A 
ATOM      7  C   UNL     1       2.872   5.211  17.935  0.00  0.00    +0.000 A 
ATOM      8  C   UNL     1       3.147   6.575  18.070  0.00  0.00    +0.000 A 
ATOM      9  C   UNL     1       4.316   7.075  17.482  0.00  0.00    +0.000 A 
ATOM     10  C   UNL     1       5.200   6.218  16.805  0.00  0.00    +0.000 A 
BRANCH   5  11
ATOM     11  C   UNL     1       5.874   3.909  16.002  0.00  0.00    +0.000 C 
BRANCH  11  12
ATOM     12  C   UNL     1       6.458   4.474  14.728  0.00  0.00    +0.000 C 
ATOM     13  O   UNL     1       7.441   5.195  14.636  0.00  0.00    +0.000 OA
BRANCH  12  14
ATOM     14  O   UNL     1       5.649   4.121  13.685  0.00  0.00    +0.000 OA
BRANCH  14  16
ATOM     15  C   UNL     1       5.362   2.731  11.769  0.00  0.00    +0.000 C 
ATOM     16  C   UNL     1       6.333   3.616  12.530  0.00  0.00    +0.000 C 
ENDBRANCH  14  16
ENDBRANCH  12  14
ENDBRANCH  11  12
ENDBRANCH   5  11
ENDBRANCH   1   8
BRANCH   2  17
ATOM     17  C   UNL     1       0.966   9.509  19.161  0.00  0.00    +0.000 A 
ATOM     18  C   UNL     1       1.053   9.279  20.548  0.00  0.00    +0.000 A 
ATOM     19  C   UNL     1       0.167   9.880  21.438  0.00  0.00    +0.000 A 
ATOM     20  C   UNL     1      -0.825  10.727  20.951  0.00  0.00    +0.000 A 
ATOM     21  C   UNL     1      -0.911  10.971  19.571  0.00  0.00    +0.000 A 
ATOM     22  C   UNL     1      -0.016  10.370  18.664  0.00  0.00    +0.000 A 
BRANCH  21  23
ATOM     23  N   UNL     1      -1.978  11.846  19.066  0.00  0.00    +0.000 N 
ATOM     24  O   UNL     1      -2.137  11.910  17.837  0.00  0.00    +0.000 OA
ATOM     25  O   UNL     1      -2.665  12.451  19.898  0.00  0.00    +0.000 OA
ENDBRANCH  21  23
ENDBRANCH   2  17
TORSDOF 7
ENDMDL
MODEL 5
REMARK VINA RESULT:      -7.4      1.342      2.072
REMARK  Name = 
REMARK  8 active torsions:
REMARK  status: ('A' for Active; 'I' for Inactive)
REMARK    1  A    between atoms: C_1  and  C_2
REMARK    2  A    between atoms: C_2  and  O_3
REMARK    3  A    between atoms: O_3  and  C_4
REMARK    4  A    between atoms: C_4  and  C_6
REMARK    5  A    between atoms: C_6  and  C_7
REMARK    6  A    between atoms: C_10  and  N_11
REMARK    7  A    between atoms: C_12  and  C_14
REMARK    8  A    between atoms: C_18  and  N_19
REMARK                            x       y       z     vdW  Elec       q    Type
REMARK                         _______ _______ _______ _____ _____    ______ ____
ROOT
ATOM      1  N   UNL     1       2.466   7.306  19.331  0.00  0.00    +0.000 N 
ATOM      2  C   UNL     1       1.733   8.420  18.948  0.00  0.00    +0.000 C 
ATOM      3  O   UNL     1       1.580   8.824  17.801  0.00  0.00    +0.000 OA
ATOM      4  H   UNL     1       2.444   7.021  20.301  0.00  0.00    +0.000 HD
ENDROOT
BRANCH   1   8
ATOM      5  C   UNL     1       4.671   4.790  16.709  0.00  0.00    +0.000 A 
ATOM      6  C   UNL     1       3.653   4.255  17.498  0.00  0.00    +0.000 A 
ATOM      7  C   UNL     1       2.912   5.071  18.351  0.00  0.00    +0.000 A 
ATOM      8  C   UNL     1       3.166   6.442  18.446  0.00  0.00    +0.000 A 
ATOM      9  C   UNL     1       4.164   6.988  17.628  0.00  0.00    +0.000 A 
ATOM     10  C   UNL     1       4.908   6.169  16.764  0.00  0.00    +0.000 A 
BRANCH   5  11
ATOM     11  C   UNL     1       5.467   3.892  15.797  0.00  0.00    +0.000 C 
BRANCH  11  12
ATOM     12  C   UNL     1       6.859   4.399  15.496  0.00  0.00    +0.000 C 
ATOM     13  O   UNL     1       7.765   4.556  16.301  0.00  0.00    +0.000 OA
BRANCH  12  14
ATOM     14  O   UNL     1       6.918   4.747  14.175  0.00  0.00    +0.000 OA
BRANCH  14  16
ATOM     15  C   UNL     1       7.001   3.754  12.009  0.00  0.00    +0.000 C 
ATOM     16  C   UNL     1       6.194   3.883  13.288  0.00  0.00    +0.000 C 
ENDBRANCH  14  16
ENDBRANCH  12  14
ENDBRANCH  11  12
ENDBRANCH   5  11
ENDBRANCH   1   8
BRANCH   2  17
ATOM     17  C   UNL     1       1.033   9.194  20.005  0.00  0.00    +0.000 A 
ATOM     18  C   UNL     1       1.144   8.699  21.318  0.00  0.00    +0.000 A 
ATOM     19  C   UNL     1       0.432   9.270  22.370  0.00  0.00    +0.000 A 
ATOM     20  C   UNL     1      -0.407  10.352  22.122  0.00  0.00    +0.000 A 
ATOM     21  C   UNL     1      -0.515  10.860  20.817  0.00  0.00    +0.000 A 
ATOM     22  C   UNL     1       0.205  10.291  19.749  0.00  0.00    +0.000 A 
BRANCH  21  23
ATOM     23  N   UNL     1      -1.424  11.986  20.562  0.00  0.00    +0.000 N 
ATOM     24  O   UNL     1      -2.264  12.257  21.434  0.00  0.00    +0.000 OA
ATOM     25  O   UNL     1      -1.283  12.607  19.502  0.00  0.00    +0.000 OA
ENDBRANCH  21  23
ENDBRANCH   2  17
TORSDOF 7
ENDMDL
MODEL 6
REMARK VINA RESULT:      -7.4      2.681      9.095
REMARK  Name = 
REMARK  8 active torsions:
REMARK  status: ('A' for Active; 'I' for Inactive)
REMARK    1  A    between atoms: C_1  and  C_2
REMARK    2  A    between atoms: C_2  and  O_3
REMARK    3  A    between atoms: O_3  and  C_4
REMARK    4  A    between atoms: C_4  and  C_6
REMARK    5  A    between atoms: C_6  and  C_7
REMARK    6  A    between atoms: C_10  and  N_11
REMARK    7  A    between atoms: C_12  and  C_14
REMARK    8  A    between atoms: C_18  and  N_19
REMARK                            x       y       z     vdW  Elec       q    Type
REMARK                         _______ _______ _______ _____ _____    ______ ____
ROOT
ATOM      1  N   UNL     1       3.406   7.567  18.232  0.00  0.00    +0.000 N 
ATOM      2  C   UNL     1       3.399   6.216  17.918  0.00  0.00    +0.000 C 
ATOM      3  O   UNL     1       2.414   5.488  17.879  0.00  0.00    +0.000 OA
ATOM      4  H   UNL     1       4.272   8.082  18.142  0.00  0.00    +0.000 HD
ENDROOT
BRANCH   1   8
ATOM      5  C   UNL     1       0.030   9.901  19.336  0.00  0.00    +0.000 A 
ATOM      6  C   UNL     1       0.454   9.873  18.009  0.00  0.00    +0.000 A 
ATOM      7  C   UNL     1       1.551   9.100  17.629  0.00  0.00    +0.000 A 
ATOM      8  C   UNL     1       2.258   8.336  18.563  0.00  0.00    +0.000 A 
ATOM      9  C   UNL     1       1.811   8.336  19.890  0.00  0.00    +0.000 A 
ATOM     10  C   UNL     1       0.703   9.109  20.273  0.00  0.00    +0.000 A 
BRANCH   5  11
ATOM     11  C   UNL     1      -1.154  10.748  19.730  0.00  0.00    +0.000 C 
BRANCH  11  12
ATOM     12  C   UNL     1      -1.729  11.566  18.596  0.00  0.00    +0.000 C 
ATOM     13  O   UNL     1      -1.189  12.506  18.032  0.00  0.00    +0.000 OA
BRANCH  12  14
ATOM     14  O   UNL     1      -3.005  11.139  18.357  0.00  0.00    +0.000 OA
BRANCH  14  16
ATOM     15  C   UNL     1      -2.797  10.088  16.227  0.00  0.00    +0.000 C 
ATOM     16  C   UNL     1      -3.107   9.870  17.697  0.00  0.00    +0.000 C 
ENDBRANCH  14  16
ENDBRANCH  12  14
ENDBRANCH  11  12
ENDBRANCH   5  11
ENDBRANCH   1   8
BRANCH   2  17
ATOM     17  C   UNL     1       4.691   5.574  17.562  0.00  0.00    +0.000 A 
ATOM     18  C   UNL     1       5.560   5.285  18.631  0.00  0.00    +0.000 A 
ATOM     19  C   UNL     1       6.845   4.797  18.408  0.00  0.00    +0.000 A 
ATOM     20  C   UNL     1       7.282   4.589  17.103  0.00  0.00    +0.000 A 
ATOM     21  C   UNL     1       6.418   4.864  16.031  0.00  0.00    +0.000 A 
ATOM     22  C   UNL     1       5.115   5.354  16.248  0.00  0.00    +0.000 A 
BRANCH  21  23
ATOM     23  N   UNL     1       6.900   4.666  14.657  0.00  0.00    +0.000 N 
ATOM     24  O   UNL     1       6.387   3.752  13.993  0.00  0.00    +0.000 OA
ATOM     25  O   UNL     1       7.774   5.435  14.240  0.00  0.00    +0.000 OA
ENDBRANCH  21  23
ENDBRANCH   2  17
TORSDOF 7
ENDMDL
MODEL 7
REMARK VINA RESULT:      -7.3      1.759      2.444
REMARK  Name = 
REMARK  8 active torsions:
REMARK  status: ('A' for Active; 'I' for Inactive)
REMARK    1  A    between atoms: C_1  and  C_2
REMARK    2  A    between atoms: C_2  and  O_3
REMARK    3  A    between atoms: O_3  and  C_4
REMARK    4  A    between atoms: C_4  and  C_6
REMARK    5  A    between atoms: C_6  and  C_7
REMARK    6  A    between atoms: C_10  and  N_11
REMARK    7  A    between atoms: C_12  and  C_14
REMARK    8  A    between atoms: C_18  and  N_19
REMARK                            x       y       z     vdW  Elec       q    Type
REMARK                         _______ _______ _______ _____ _____    ______ ____
ROOT
ATOM      1  N   UNL     1       2.191   7.781  18.824  0.00  0.00    +0.000 N 
ATOM      2  C   UNL     1       1.734   7.667  20.129  0.00  0.00    +0.000 C 
ATOM      3  O   UNL     1       1.913   6.711  20.876  0.00  0.00    +0.000 OA
ATOM      4  H   UNL     1       2.057   8.659  18.339  0.00  0.00    +0.000 HD
ENDROOT
BRANCH   1   8
ATOM      5  C   UNL     1       4.575   4.904  16.800  0.00  0.00    +0.000 A 
ATOM      6  C   UNL     1       3.385   4.516  17.415  0.00  0.00    +0.000 A 
ATOM      7  C   UNL     1       2.585   5.451  18.069  0.00  0.00    +0.000 A 
ATOM      8  C   UNL     1       2.950   6.799  18.134  0.00  0.00    +0.000 A 
ATOM      9  C   UNL     1       4.127   7.197  17.486  0.00  0.00    +0.000 A 
ATOM     10  C   UNL     1       4.931   6.257  16.821  0.00  0.00    +0.000 A 
BRANCH   5  11
ATOM     11  C   UNL     1       5.431   3.877  16.102  0.00  0.00    +0.000 C 
BRANCH  11  12
ATOM     12  C   UNL     1       6.740   4.422  15.579  0.00  0.00    +0.000 C 
ATOM     13  O   UNL     1       7.764   4.595  16.222  0.00  0.00    +0.000 OA
BRANCH  12  14
ATOM     14  O   UNL     1       6.568   4.781  14.271  0.00  0.00    +0.000 OA
BRANCH  14  16
ATOM     15  C   UNL     1       6.594   3.539  12.236  0.00  0.00    +0.000 C 
ATOM     16  C   UNL     1       5.795   3.863  13.486  0.00  0.00    +0.000 C 
ENDBRANCH  14  16
ENDBRANCH  12  14
ENDBRANCH  11  12
ENDBRANCH   5  11
ENDBRANCH   1   8
BRANCH   2  17
ATOM     17  C   UNL     1       0.981   8.809  20.710  0.00  0.00    +0.000 A 
ATOM     18  C   UNL     1       0.852   8.822  22.112  0.00  0.00    +0.000 A 
ATOM     19  C   UNL     1       0.066   9.774  22.758  0.00  0.00    +0.000 A 
ATOM     20  C   UNL     1      -0.606  10.732  22.005  0.00  0.00    +0.000 A 
ATOM     21  C   UNL     1      -0.473  10.733  20.607  0.00  0.00    +0.000 A 
ATOM     22  C   UNL     1       0.323   9.777  19.947  0.00  0.00    +0.000 A 
BRANCH  21  23
ATOM     23  N   UNL     1      -1.209  11.734  19.822  0.00  0.00    +0.000 N 
ATOM     24  O   UNL     1      -1.992  11.322  18.952  0.00  0.00    +0.000 OA
ATOM     25  O   UNL     1      -1.016  12.926  20.088  0.00  0.00    +0.000 OA
ENDBRANCH  21  23
ENDBRANCH   2  17
TORSDOF 7
ENDMDL
MODEL 8
REMARK VINA RESULT:      -7.3      0.850      1.470
REMARK  Name = 
REMARK  8 active torsions:
REMARK  status: ('A' for Active; 'I' for Inactive)
REMARK    1  A    between atoms: C_1  and  C_2
REMARK    2  A    between atoms: C_2  and  O_3
REMARK    3  A    between atoms: O_3  and  C_4
REMARK    4  A    between atoms: C_4  and  C_6
REMARK    5  A    between atoms: C_6  and  C_7
REMARK    6  A    between atoms: C_10  and  N_11
REMARK    7  A    between atoms: C_12  and  C_14
REMARK    8  A    between atoms: C_18  and  N_19
REMARK                            x       y       z     vdW  Elec       q    Type
REMARK                         _______ _______ _______ _____ _____    ______ ____
ROOT
ATOM      1  N   UNL     1       2.189   7.480  18.602  0.00  0.00    +0.000 N 
ATOM      2  C   UNL     1       1.958   8.807  18.271  0.00  0.00    +0.000 C 
ATOM      3  O   UNL     1       2.581   9.464  17.445  0.00  0.00    +0.000 OA
ATOM      4  H   UNL     1       1.548   7.019  19.235  0.00  0.00    +0.000 HD
ENDROOT
BRANCH   1   8
ATOM      5  C   UNL     1       5.292   5.111  16.922  0.00  0.00    +0.000 A 
ATOM      6  C   UNL     1       4.249   4.502  17.620  0.00  0.00    +0.000 A 
ATOM      7  C   UNL     1       3.217   5.265  18.163  0.00  0.00    +0.000 A 
ATOM      8  C   UNL     1       3.196   6.657  18.031  0.00  0.00    +0.000 A 
ATOM      9  C   UNL     1       4.223   7.266  17.300  0.00  0.00    +0.000 A 
ATOM     10  C   UNL     1       5.261   6.499  16.746  0.00  0.00    +0.000 A 
BRANCH   5  11
ATOM     11  C   UNL     1       6.404   4.271  16.346  0.00  0.00    +0.000 C 
BRANCH  11  12
ATOM     12  C   UNL     1       6.713   4.570  14.898  0.00  0.00    +0.000 C 
ATOM     13  O   UNL     1       7.583   5.320  14.480  0.00  0.00    +0.000 OA
BRANCH  12  14
ATOM     14  O   UNL     1       5.793   3.928  14.116  0.00  0.00    +0.000 OA
BRANCH  14  16
ATOM     15  C   UNL     1       5.017   3.386  11.927  0.00  0.00    +0.000 C 
ATOM     16  C   UNL     1       6.245   3.597  12.796  0.00  0.00    +0.000 C 
ENDBRANCH  14  16
ENDBRANCH  12  14
ENDBRANCH  11  12
ENDBRANCH   5  11
ENDBRANCH   1   8
BRANCH   2  17
ATOM     17  C   UNL     1       0.836   9.511  18.944  0.00  0.00    +0.000 A 
ATOM     18  C   UNL     1      -0.272   9.834  18.137  0.00  0.00    +0.000 A 
ATOM     19  C   UNL     1      -1.327  10.599  18.628  0.00  0.00    +0.000 A 
ATOM     20  C   UNL     1      -1.289  11.056  19.941  0.00  0.00    +0.000 A 
ATOM     21  C   UNL     1      -0.194  10.729  20.757  0.00  0.00    +0.000 A 
ATOM     22  C   UNL     1       0.875   9.951  20.270  0.00  0.00    +0.000 A 
BRANCH  21  23
ATOM     23  N   UNL     1      -0.152  11.238  22.135  0.00  0.00    +0.000 N 
ATOM     24  O   UNL     1      -0.104  10.407  23.055  0.00  0.00    +0.000 OA
ATOM     25  O   UNL     1      -0.149  12.465  22.292  0.00  0.00    +0.000 OA
ENDBRANCH  21  23
ENDBRANCH   2  17
TORSDOF 7
ENDMDL
MODEL 9
REMARK VINA RESULT:      -7.3      6.256      8.330
REMARK  Name = 
REMARK  8 active torsions:
REMARK  status: ('A' for Active; 'I' for Inactive)
REMARK    1  A    between atoms: C_1  and  C_2
REMARK    2  A    between atoms: C_2  and  O_3
REMARK    3  A    between atoms: O_3  and  C_4
REMARK    4  A    between atoms: C_4  and  C_6
REMARK    5  A    between atoms: C_6  and  C_7
REMARK    6  A    between atoms: C_10  and  N_11
REMARK    7  A    between atoms: C_12  and  C_14
REMARK    8  A    between atoms: C_18  and  N_19
REMARK                            x       y       z     vdW  Elec       q    Type
REMARK                         _______ _______ _______ _____ _____    ______ ____
ROOT
ATOM      1  N   UNL     1       8.705   8.355  18.711  0.00  0.00    +0.000 N 
ATOM      2  C   UNL     1       8.590   9.684  18.331  0.00  0.00    +0.000 C 
ATOM      3  O   UNL     1       7.735  10.150  17.587  0.00  0.00    +0.000 OA
ATOM      4  H   UNL     1       9.400   8.107  19.404  0.00  0.00    +0.000 HD
ENDROOT
BRANCH   1   8
ATOM      5  C   UNL     1       6.099   5.188  17.596  0.00  0.00    +0.000 A 
ATOM      6  C   UNL     1       6.117   6.370  16.857  0.00  0.00    +0.000 A 
ATOM      7  C   UNL     1       6.977   7.411  17.202  0.00  0.00    +0.000 A 
ATOM      8  C   UNL     1       7.842   7.306  18.296  0.00  0.00    +0.000 A 
ATOM      9  C   UNL     1       7.850   6.106  19.018  0.00  0.00    +0.000 A 
ATOM     10  C   UNL     1       6.989   5.054  18.669  0.00  0.00    +0.000 A 
BRANCH   5  11
ATOM     11  C   UNL     1       5.157   4.075  17.213  0.00  0.00    +0.000 C 
BRANCH  11  12
ATOM     12  C   UNL     1       4.183   3.692  18.302  0.00  0.00    +0.000 C 
ATOM     13  O   UNL     1       4.105   2.607  18.860  0.00  0.00    +0.000 OA
BRANCH  12  14
ATOM     14  O   UNL     1       3.328   4.739  18.508  0.00  0.00    +0.000 OA
BRANCH  14  16
ATOM     15  C   UNL     1       1.772   4.849  20.311  0.00  0.00    +0.000 C 
ATOM     16  C   UNL     1       1.996   4.369  18.888  0.00  0.00    +0.000 C 
ENDBRANCH  14  16
ENDBRANCH  12  14
ENDBRANCH  11  12
ENDBRANCH   5  11
ENDBRANCH   1   8
BRANCH   2  17
ATOM     17  C   UNL     1       9.562  10.659  18.890  0.00  0.00    +0.000 A 
ATOM     18  C   UNL     1       9.551  10.818  20.290  0.00  0.00    +0.000 A 
ATOM     19  C   UNL     1      10.330  11.789  20.913  0.00  0.00    +0.000 A 
ATOM     20  C   UNL     1      11.136  12.620  20.142  0.00  0.00    +0.000 A 
ATOM     21  C   UNL     1      11.162  12.461  18.747  0.00  0.00    +0.000 A 
ATOM     22  C   UNL     1      10.381  11.478  18.109  0.00  0.00    +0.000 A 
BRANCH  21  23
ATOM     23  N   UNL     1      11.998  13.361  17.941  0.00  0.00    +0.000 N 
ATOM     24  O   UNL     1      12.313  12.988  16.801  0.00  0.00    +0.000 OA
ATOM     25  O   UNL     1      12.319  14.446  18.441  0.00  0.00    +0.000 OA
ENDBRANCH  21  23
ENDBRANCH   2  17
TORSDOF 7
ENDMDL
