MODEL 1
REMARK VINA RESULT:      -6.0      0.000      0.000
REMARK  Name = 
REMARK  5 active torsions:
REMARK  status: ('A' for Active; 'I' for Inactive)
REMARK    1  A    between atoms: C_1  and  C_2
REMARK    2  A    between atoms: C_3  and  C_4
REMARK    3  A    between atoms: C_4  and  N_5
REMARK    4  A    between atoms: C_10  and  C_11
REMARK    5  A    between atoms: C_10  and  C_12
REMARK                            x       y       z     vdW  Elec       q    Type
REMARK                         _______ _______ _______ _____ _____    ______ ____
ROOT
ATOM      1  C   UNL     1       2.811   6.469  18.243  0.00  0.00    +0.000 C 
ATOM      2  C   UNL     1       3.424   5.069  18.085  0.00  0.00    +0.000 C 
ATOM      3  C   UNL     1       4.381   4.715  19.279  0.00  0.00    +0.000 C 
ATOM      4  C   UNL     1       4.339   3.195  19.646  0.00  0.00    +0.000 C 
ATOM      5  C   UNL     1       3.075   2.455  19.106  0.00  0.00    +0.000 C 
ATOM      6  C   UNL     1       3.101   2.682  17.587  0.00  0.00    +0.000 C 
ATOM      7  C   UNL     1       2.319   3.988  17.860  0.00  0.00    +0.000 C 
ATOM      8  C   UNL     1       1.772   3.296  19.151  0.00  0.00    +0.000 C 
ATOM      9  C   UNL     1       1.412   4.079  20.435  0.00  0.00    +0.000 C 
ATOM     10  C   UNL     1       0.510   2.438  18.816  0.00  0.00    +0.000 C 
ENDROOT
BRANCH   3  11
ATOM     11  C   UNL     1       5.819   5.228  19.020  0.00  0.00    +0.000 C 
BRANCH  11  12
ATOM     12  N   UNL     1       6.651   4.252  18.322  0.00  0.00    +0.000 NA
ATOM     13  H   UNL     1       7.656   4.366  18.582  0.00  0.00    +0.000 HD
ATOM     14  H   UNL     1       6.542   4.365  17.287  0.00  0.00    +0.000 HD
ENDBRANCH  11  12
ENDBRANCH   3  11
TORSDOF 2
ENDMDL
MODEL 2
REMARK VINA RESULT:      -6.0      1.578      2.375
REMARK  Name = 
REMARK  5 active torsions:
REMARK  status: ('A' for Active; 'I' for Inactive)
REMARK    1  A    between atoms: C_1  and  C_2
REMARK    2  A    between atoms: C_3  and  C_4
REMARK    3  A    between atoms: C_4  and  N_5
REMARK    4  A    between atoms: C_10  and  C_11
REMARK    5  A    between atoms: C_10  and  C_12
REMARK                            x       y       z     vdW  Elec       q    Type
REMARK                         _______ _______ _______ _____ _____    ______ ____
ROOT
ATOM      1  C   UNL     1       5.321   5.924  15.561  0.00  0.00    +0.000 C 
ATOM      2  C   UNL     1       5.344   4.876  16.685  0.00  0.00    +0.000 C 
ATOM      3  C   UNL     1       5.927   5.467  18.018  0.00  0.00    +0.000 C 
ATOM      4  C   UNL     1       5.242   4.862  19.288  0.00  0.00    +0.000 C 
ATOM      5  C   UNL     1       3.865   4.186  18.995  0.00  0.00    +0.000 C 
ATOM      6  C   UNL     1       4.167   3.115  17.936  0.00  0.00    +0.000 C 
ATOM      7  C   UNL     1       3.938   4.223  16.882  0.00  0.00    +0.000 C 
ATOM      8  C   UNL     1       3.007   4.916  17.928  0.00  0.00    +0.000 C 
ATOM      9  C   UNL     1       2.831   6.450  18.009  0.00  0.00    +0.000 C 
ATOM     10  C   UNL     1       1.560   4.332  17.843  0.00  0.00    +0.000 C 
ENDROOT
BRANCH   3  11
ATOM     11  C   UNL     1       7.470   5.350  18.059  0.00  0.00    +0.000 C 
BRANCH  11  12
ATOM     12  N   UNL     1       7.971   4.198  17.314  0.00  0.00    +0.000 NA
ATOM     13  H   UNL     1       8.101   3.375  17.944  0.00  0.00    +0.000 HD
ATOM     14  H   UNL     1       8.882   4.437  16.856  0.00  0.00    +0.000 HD
ENDBRANCH  11  12
ENDBRANCH   3  11
TORSDOF 2
ENDMDL
MODEL 3
REMARK VINA RESULT:      -5.7      2.236      4.054
REMARK  Name = 
REMARK  5 active torsions:
REMARK  status: ('A' for Active; 'I' for Inactive)
REMARK    1  A    between atoms: C_1  and  C_2
REMARK    2  A    between atoms: C_3  and  C_4
REMARK    3  A    between atoms: C_4  and  N_5
REMARK    4  A    between atoms: C_10  and  C_11
REMARK    5  A    between atoms: C_10  and  C_12
REMARK                            x       y       z     vdW  Elec       q    Type
REMARK                         _______ _______ _______ _____ _____    ______ ____
ROOT
ATOM      1  C   UNL     1       3.394   1.983  18.342  0.00  0.00    +0.000 C 
ATOM      2  C   UNL     1       2.572   3.261  18.571  0.00  0.00    +0.000 C 
ATOM      3  C   UNL     1       2.488   3.634  20.094  0.00  0.00    +0.000 C 
ATOM      4  C   UNL     1       2.470   5.181  20.329  0.00  0.00    +0.000 C 
ATOM      5  C   UNL     1       2.991   6.005  19.111  0.00  0.00    +0.000 C 
ATOM      6  C   UNL     1       2.093   5.589  17.936  0.00  0.00    +0.000 C 
ATOM      7  C   UNL     1       3.100   4.441  17.692  0.00  0.00    +0.000 C 
ATOM      8  C   UNL     1       4.180   5.353  18.357  0.00  0.00    +0.000 C 
ATOM      9  C   UNL     1       5.377   4.789  19.160  0.00  0.00    +0.000 C 
ATOM     10  C   UNL     1       4.804   6.320  17.300  0.00  0.00    +0.000 C 
ENDROOT
BRANCH   3  11
ATOM     11  C   UNL     1       1.308   2.910  20.787  0.00  0.00    +0.000 C 
BRANCH  11  12
ATOM     12  N   UNL     1       1.626   2.482  22.147  0.00  0.00    +0.000 NA
ATOM     13  H   UNL     1       2.028   3.272  22.700  0.00  0.00    +0.000 HD
ATOM     14  H   UNL     1       2.308   1.689  22.121  0.00  0.00    +0.000 HD
ENDBRANCH  11  12
ENDBRANCH   3  11
TORSDOF 2
ENDMDL
MODEL 4
REMARK VINA RESULT:      -5.6      1.405      2.385
REMARK  Name = 
REMARK  5 active torsions:
REMARK  status: ('A' for Active; 'I' for Inactive)
REMARK    1  A    between atoms: C_1  and  C_2
REMARK    2  A    between atoms: C_3  and  C_4
REMARK    3  A    between atoms: C_4  and  N_5
REMARK    4  A    between atoms: C_10  and  C_11
REMARK    5  A    between atoms: C_10  and  C_12
REMARK                            x       y       z     vdW  Elec       q    Type
REMARK                         _______ _______ _______ _____ _____    ______ ____
ROOT
ATOM      1  C   UNL     1       5.373   5.223  19.210  0.00  0.00    +0.000 C 
ATOM      2  C   UNL     1       4.148   5.154  18.285  0.00  0.00    +0.000 C 
ATOM      3  C   UNL     1       4.217   3.917  17.320  0.00  0.00    +0.000 C 
ATOM      4  C   UNL     1       2.805   3.311  17.025  0.00  0.00    +0.000 C 
ATOM      5  C   UNL     1       1.716   3.727  18.062  0.00  0.00    +0.000 C 
ATOM      6  C   UNL     1       1.704   5.263  18.030  0.00  0.00    +0.000 C 
ATOM      7  C   UNL     1       2.816   5.204  19.102  0.00  0.00    +0.000 C 
ATOM      8  C   UNL     1       2.226   3.820  19.525  0.00  0.00    +0.000 C 
ATOM      9  C   UNL     1       3.093   2.679  20.105  0.00  0.00    +0.000 C 
ATOM     10  C   UNL     1       1.055   4.014  20.541  0.00  0.00    +0.000 C 
ENDROOT
BRANCH   3  11
ATOM     11  C   UNL     1       5.005   4.253  16.030  0.00  0.00    +0.000 C 
BRANCH  11  12
ATOM     12  N   UNL     1       6.264   3.519  15.929  0.00  0.00    +0.000 NA
ATOM     13  H   UNL     1       6.090   2.497  15.803  0.00  0.00    +0.000 HD
ATOM     14  H   UNL     1       6.837   3.673  16.792  0.00  0.00    +0.000 HD
ENDBRANCH  11  12
ENDBRANCH   3  11
TORSDOF 2
ENDMDL
MODEL 5
REMARK VINA RESULT:      -5.6      2.267      3.937
REMARK  Name = 
REMARK  5 active torsions:
REMARK  status: ('A' for Active; 'I' for Inactive)
REMARK    1  A    between atoms: C_1  and  C_2
REMARK    2  A    between atoms: C_3  and  C_4
REMARK    3  A    between atoms: C_4  and  N_5
REMARK    4  A    between atoms: C_10  and  C_11
REMARK    5  A    between atoms: C_10  and  C_12
REMARK                            x       y       z     vdW  Elec       q    Type
REMARK                         _______ _______ _______ _____ _____    ______ ____
ROOT
ATOM      1  C   UNL     1       4.497   2.100  20.204  0.00  0.00    +0.000 C 
ATOM      2  C   UNL     1       3.364   2.808  19.445  0.00  0.00    +0.000 C 
ATOM      3  C   UNL     1       2.896   4.112  20.185  0.00  0.00    +0.000 C 
ATOM      4  C   UNL     1       2.462   5.239  19.190  0.00  0.00    +0.000 C 
ATOM      5  C   UNL     1       2.999   5.034  17.739  0.00  0.00    +0.000 C 
ATOM      6  C   UNL     1       2.476   3.653  17.313  0.00  0.00    +0.000 C 
ATOM      7  C   UNL     1       3.756   3.070  17.955  0.00  0.00    +0.000 C 
ATOM      8  C   UNL     1       4.434   4.448  17.664  0.00  0.00    +0.000 C 
ATOM      9  C   UNL     1       5.549   5.041  18.557  0.00  0.00    +0.000 C 
ATOM     10  C   UNL     1       5.003   4.478  16.209  0.00  0.00    +0.000 C 
ENDROOT
BRANCH   3  11
ATOM     11  C   UNL     1       1.811   3.800  21.245  0.00  0.00    +0.000 C 
BRANCH  11  12
ATOM     12  N   UNL     1       0.679   3.058  20.695  0.00  0.00    +0.000 NA
ATOM     13  H   UNL     1      -0.188   3.237  21.249  0.00  0.00    +0.000 HD
ATOM     14  H   UNL     1       0.891   2.033  20.695  0.00  0.00    +0.000 HD
ENDBRANCH  11  12
ENDBRANCH   3  11
TORSDOF 2
ENDMDL
MODEL 6
REMARK VINA RESULT:      -5.6      0.960      1.011
REMARK  Name = 
REMARK  5 active torsions:
REMARK  status: ('A' for Active; 'I' for Inactive)
REMARK    1  A    between atoms: C_1  and  C_2
REMARK    2  A    between atoms: C_3  and  C_4
REMARK    3  A    between atoms: C_4  and  N_5
REMARK    4  A    between atoms: C_10  and  C_11
REMARK    5  A    between atoms: C_10  and  C_12
REMARK                            x       y       z     vdW  Elec       q    Type
REMARK                         _______ _______ _______ _____ _____    ______ ____
ROOT
ATOM      1  C   UNL     1       3.843   6.999  17.659  0.00  0.00    +0.000 C 
ATOM      2  C   UNL     1       4.285   5.527  17.655  0.00  0.00    +0.000 C 
ATOM      3  C   UNL     1       5.172   5.183  18.904  0.00  0.00    +0.000 C 
ATOM      4  C   UNL     1       4.940   3.722  19.415  0.00  0.00    +0.000 C 
ATOM      5  C   UNL     1       3.605   3.087  18.913  0.00  0.00    +0.000 C 
ATOM      6  C   UNL     1       3.684   3.158  17.381  0.00  0.00    +0.000 C 
ATOM      7  C   UNL     1       3.060   4.568  17.504  0.00  0.00    +0.000 C 
ATOM      8  C   UNL     1       2.413   4.078  18.839  0.00  0.00    +0.000 C 
ATOM      9  C   UNL     1       2.129   5.022  20.031  0.00  0.00    +0.000 C 
ATOM     10  C   UNL     1       1.062   3.347  18.554  0.00  0.00    +0.000 C 
ENDROOT
BRANCH   3  11
ATOM     11  C   UNL     1       6.665   5.493  18.638  0.00  0.00    +0.000 C 
BRANCH  11  12
ATOM     12  N   UNL     1       7.385   4.360  18.061  0.00  0.00    +0.000 NA
ATOM     13  H   UNL     1       6.745   3.546  17.920  0.00  0.00    +0.000 HD
ATOM     14  H   UNL     1       8.174   4.081  18.689  0.00  0.00    +0.000 HD
ENDBRANCH  11  12
ENDBRANCH   3  11
TORSDOF 2
ENDMDL
MODEL 7
REMARK VINA RESULT:      -5.5      1.367      1.899
REMARK  Name = 
REMARK  5 active torsions:
REMARK  status: ('A' for Active; 'I' for Inactive)
REMARK    1  A    between atoms: C_1  and  C_2
REMARK    2  A    between atoms: C_3  and  C_4
REMARK    3  A    between atoms: C_4  and  N_5
REMARK    4  A    between atoms: C_10  and  C_11
REMARK    5  A    between atoms: C_10  and  C_12
REMARK                            x       y       z     vdW  Elec       q    Type
REMARK                         _______ _______ _______ _____ _____    ______ ____
ROOT
ATOM      1  C   UNL     1       1.333   4.699  17.425  0.00  0.00    +0.000 C 
ATOM      2  C   UNL     1       2.367   3.627  17.807  0.00  0.00    +0.000 C 
ATOM      3  C   UNL     1       3.795   4.246  18.016  0.00  0.00    +0.000 C 
ATOM      4  C   UNL     1       4.602   3.517  19.140  0.00  0.00    +0.000 C 
ATOM      5  C   UNL     1       3.710   2.678  20.108  0.00  0.00    +0.000 C 
ATOM      6  C   UNL     1       2.961   1.690  19.201  0.00  0.00    +0.000 C 
ATOM      7  C   UNL     1       1.889   2.792  19.038  0.00  0.00    +0.000 C 
ATOM      8  C   UNL     1       2.338   3.324  20.437  0.00  0.00    +0.000 C 
ATOM      9  C   UNL     1       2.272   4.819  20.827  0.00  0.00    +0.000 C 
ATOM     10  C   UNL     1       1.591   2.561  21.577  0.00  0.00    +0.000 C 
ENDROOT
BRANCH   3  11
ATOM     11  C   UNL     1       4.574   4.329  16.680  0.00  0.00    +0.000 C 
BRANCH  11  12
ATOM     12  N   UNL     1       5.904   3.731  16.761  0.00  0.00    +0.000 NA
ATOM     13  H   UNL     1       6.566   4.363  17.264  0.00  0.00    +0.000 HD
ATOM     14  H   UNL     1       6.267   3.535  15.799  0.00  0.00    +0.000 HD
ENDBRANCH  11  12
ENDBRANCH   3  11
TORSDOF 2
ENDMDL
MODEL 8
REMARK VINA RESULT:      -5.5      2.166      3.539
REMARK  Name = 
REMARK  5 active torsions:
REMARK  status: ('A' for Active; 'I' for Inactive)
REMARK    1  A    between atoms: C_1  and  C_2
REMARK    2  A    between atoms: C_3  and  C_4
REMARK    3  A    between atoms: C_4  and  N_5
REMARK    4  A    between atoms: C_10  and  C_11
REMARK    5  A    between atoms: C_10  and  C_12
REMARK                            x       y       z     vdW  Elec       q    Type
REMARK                         _______ _______ _______ _____ _____    ______ ____
ROOT
ATOM      1  C   UNL     1       1.498   3.116  21.649  0.00  0.00    +0.000 C 
ATOM      2  C   UNL     1       1.367   3.887  20.326  0.00  0.00    +0.000 C 
ATOM      3  C   UNL     1       2.195   5.222  20.348  0.00  0.00    +0.000 C 
ATOM      4  C   UNL     1       2.797   5.573  18.947  0.00  0.00    +0.000 C 
ATOM      5  C   UNL     1       2.859   4.357  17.969  0.00  0.00    +0.000 C 
ATOM      6  C   UNL     1       1.410   3.857  17.867  0.00  0.00    +0.000 C 
ATOM      7  C   UNL     1       1.721   2.981  19.103  0.00  0.00    +0.000 C 
ATOM      8  C   UNL     1       3.215   3.008  18.647  0.00  0.00    +0.000 C 
ATOM      9  C   UNL     1       4.398   2.941  19.641  0.00  0.00    +0.000 C 
ATOM     10  C   UNL     1       3.486   1.881  17.599  0.00  0.00    +0.000 C 
ENDROOT
BRANCH   3  11
ATOM     11  C   UNL     1       1.373   6.385  20.954  0.00  0.00    +0.000 C 
BRANCH  11  12
ATOM     12  N   UNL     1       1.971   7.694  20.700  0.00  0.00    +0.000 NA
ATOM     13  H   UNL     1       1.728   8.034  19.742  0.00  0.00    +0.000 HD
ATOM     14  H   UNL     1       3.012   7.635  20.798  0.00  0.00    +0.000 HD
ENDBRANCH  11  12
ENDBRANCH   3  11
TORSDOF 2
ENDMDL
MODEL 9
REMARK VINA RESULT:      -5.5      2.015      3.912
REMARK  Name = 
REMARK  5 active torsions:
REMARK  status: ('A' for Active; 'I' for Inactive)
REMARK    1  A    between atoms: C_1  and  C_2
REMARK    2  A    between atoms: C_3  and  C_4
REMARK    3  A    between atoms: C_4  and  N_5
REMARK    4  A    between atoms: C_10  and  C_11
REMARK    5  A    between atoms: C_10  and  C_12
REMARK                            x       y       z     vdW  Elec       q    Type
REMARK                         _______ _______ _______ _____ _____    ______ ____
ROOT
ATOM      1  C   UNL     1       2.143   5.060  20.885  0.00  0.00    +0.000 C 
ATOM      2  C   UNL     1       2.761   4.189  19.779  0.00  0.00    +0.000 C 
ATOM      3  C   UNL     1       1.738   3.906  18.622  0.00  0.00    +0.000 C 
ATOM      4  C   UNL     1       2.429   3.828  17.221  0.00  0.00    +0.000 C 
ATOM      5  C   UNL     1       3.846   4.483  17.184  0.00  0.00    +0.000 C 
ATOM      6  C   UNL     1       4.650   3.749  18.268  0.00  0.00    +0.000 C 
ATOM      7  C   UNL     1       4.102   4.801  19.259  0.00  0.00    +0.000 C 
ATOM      8  C   UNL     1       3.978   5.770  18.040  0.00  0.00    +0.000 C 
ATOM      9  C   UNL     1       2.892   6.866  17.945  0.00  0.00    +0.000 C 
ATOM     10  C   UNL     1       5.335   6.503  17.786  0.00  0.00    +0.000 C 
ENDROOT
BRANCH   3  11
ATOM     11  C   UNL     1       0.868   2.662  18.930  0.00  0.00    +0.000 C 
BRANCH  11  12
ATOM     12  N   UNL     1       1.621   1.413  18.853  0.00  0.00    +0.000 NA
ATOM     13  H   UNL     1       2.602   1.548  19.186  0.00  0.00    +0.000 HD
ATOM     14  H   UNL     1       1.631   1.063  17.866  0.00  0.00    +0.000 HD
ENDBRANCH  11  12
ENDBRANCH   3  11
TORSDOF 2
ENDMDL
