MODEL 1
REMARK VINA RESULT:      -8.2      0.000      0.000
REMARK  Name = 
REMARK  3 active torsions:
REMARK  status: ('A' for Active; 'I' for Inactive)
REMARK    1  A    between atoms: C_2  and  C_11
REMARK    2  A    between atoms: N_15  and  S_16
REMARK    3  A    between atoms: S_16  and  C_19
REMARK                            x       y       z     vdW  Elec       q    Type
REMARK                         _______ _______ _______ _____ _____    ______ ____
ROOT
ATOM      1  C   UNL     1       1.970   4.019  18.733  0.00  0.00    +0.000 C 
ATOM      2  C   UNL     1       1.347   2.831  19.473  0.00  0.00    +0.000 C 
ATOM      3  C   UNL     1       1.834   1.624  18.704  0.00  0.00    +0.000 C 
ATOM      4  C   UNL     1       3.127   2.059  18.034  0.00  0.00    +0.000 C 
ATOM      5  N   UNL     1       3.332   3.503  18.360  0.00  0.00    +0.000 NA
ENDROOT
BRANCH   1   7
ATOM      6  O   UNL     1       0.777   5.165  20.426  0.00  0.00    +0.000 OA
ATOM      7  C   UNL     1       1.552   5.278  19.470  0.00  0.00    +0.000 C 
ATOM      8  N   UNL     1       2.061   6.484  19.069  0.00  0.00    +0.000 N 
ATOM      9  C   UNL     1       1.772   7.687  19.717  0.00  0.00    +0.000 A 
ATOM     10  C   UNL     1       1.688   7.792  21.102  0.00  0.00    +0.000 A 
ATOM     11  C   UNL     1       1.258   8.996  21.661  0.00  0.00    +0.000 A 
ATOM     12  C   UNL     1       0.924  10.046  20.816  0.00  0.00    +0.000 A 
ATOM     13 CL   UNL     1       0.279  11.507  21.443  0.00  0.00    +0.000 Cl
ATOM     14  C   UNL     1       1.102   9.873  19.454  0.00  0.00    +0.000 A 
ATOM     15  N   UNL     1       1.550   8.727  18.889  0.00  0.00    +0.000 NA
ATOM     16  H   UNL     1       2.244   6.624  18.076  0.00  0.00    +0.000 HD
ENDBRANCH   1   7
BRANCH   5  17
ATOM     17  S   UNL     1       4.614   3.838  19.408  0.00  0.00    +0.000 S 
ATOM     18  O   UNL     1       4.107   4.707  20.444  0.00  0.00    +0.000 OA
ATOM     19  O   UNL     1       5.198   2.552  19.754  0.00  0.00    +0.000 OA
BRANCH  17  20
ATOM     20  C   UNL     1       5.834   4.748  18.475  0.00  0.00    +0.000 A 
ATOM     21  C   UNL     1       6.665   5.597  19.225  0.00  0.00    +0.000 A 
ATOM     22  C   UNL     1       7.590   6.411  18.590  0.00  0.00    +0.000 A 
ATOM     23  C   UNL     1       7.674   6.399  17.204  0.00  0.00    +0.000 A 
ATOM     24  C   UNL     1       6.898   5.517  16.439  0.00  0.00    +0.000 A 
ATOM     25  C   UNL     1       7.078   5.491  15.048  0.00  0.00    +0.000 A 
ATOM     26  C   UNL     1       6.422   4.553  14.259  0.00  0.00    +0.000 A 
ATOM     27  C   UNL     1       5.534   3.664  14.847  0.00  0.00    +0.000 A 
ATOM     28  C   UNL     1       5.279   3.733  16.221  0.00  0.00    +0.000 A 
ATOM     29  C   UNL     1       5.964   4.643  17.065  0.00  0.00    +0.000 A 
ENDBRANCH  17  20
ENDBRANCH   5  17
TORSDOF 3
ENDMDL
MODEL 2
REMARK VINA RESULT:      -7.8      1.153      1.556
REMARK  Name = 
REMARK  3 active torsions:
REMARK  status: ('A' for Active; 'I' for Inactive)
REMARK    1  A    between atoms: C_2  and  C_11
REMARK    2  A    between atoms: N_15  and  S_16
REMARK    3  A    between atoms: S_16  and  C_19
REMARK                            x       y       z     vdW  Elec       q    Type
REMARK                         _______ _______ _______ _____ _____    ______ ____
ROOT
ATOM      1  C   UNL     1       2.328   4.573  18.101  0.00  0.00    +0.000 C 
ATOM      2  C   UNL     1       1.240   4.155  19.095  0.00  0.00    +0.000 C 
ATOM      3  C   UNL     1       1.224   2.646  19.008  0.00  0.00    +0.000 C 
ATOM      4  C   UNL     1       2.610   2.248  18.530  0.00  0.00    +0.000 C 
ATOM      5  N   UNL     1       3.374   3.509  18.285  0.00  0.00    +0.000 NA
ENDROOT
BRANCH   1   7
ATOM      6  O   UNL     1       3.359   6.632  17.551  0.00  0.00    +0.000 OA
ATOM      7  C   UNL     1       2.429   6.086  18.155  0.00  0.00    +0.000 C 
ATOM      8  N   UNL     1       1.481   6.792  18.847  0.00  0.00    +0.000 N 
ATOM      9  C   UNL     1       1.464   8.187  18.911  0.00  0.00    +0.000 A 
ATOM     10  C   UNL     1       1.762   8.992  17.815  0.00  0.00    +0.000 A 
ATOM     11  C   UNL     1       1.859  10.371  18.001  0.00  0.00    +0.000 A 
ATOM     12  C   UNL     1       1.661  10.893  19.272  0.00  0.00    +0.000 A 
ATOM     13 CL   UNL     1       1.883  12.566  19.580  0.00  0.00    +0.000 Cl
ATOM     14  C   UNL     1       1.303  10.023  20.288  0.00  0.00    +0.000 A 
ATOM     15  N   UNL     1       1.169   8.685  20.128  0.00  0.00    +0.000 NA
ATOM     16  H   UNL     1       1.083   6.370  19.685  0.00  0.00    +0.000 HD
ENDBRANCH   1   7
BRANCH   5  17
ATOM     17  S   UNL     1       4.632   3.821  19.370  0.00  0.00    +0.000 S 
ATOM     18  O   UNL     1       4.103   4.679  20.404  0.00  0.00    +0.000 OA
ATOM     19  O   UNL     1       5.197   2.526  19.713  0.00  0.00    +0.000 OA
BRANCH  17  20
ATOM     20  C   UNL     1       5.881   4.735  18.481  0.00  0.00    +0.000 A 
ATOM     21  C   UNL     1       6.682   5.586  19.260  0.00  0.00    +0.000 A 
ATOM     22  C   UNL     1       7.626   6.403  18.658  0.00  0.00    +0.000 A 
ATOM     23  C   UNL     1       7.759   6.392  17.276  0.00  0.00    +0.000 A 
ATOM     24  C   UNL     1       7.013   5.508  16.483  0.00  0.00    +0.000 A 
ATOM     25  C   UNL     1       7.242   5.484  15.100  0.00  0.00    +0.000 A 
ATOM     26  C   UNL     1       6.617   4.544  14.288  0.00  0.00    +0.000 A 
ATOM     27  C   UNL     1       5.712   3.653  14.844  0.00  0.00    +0.000 A 
ATOM     28  C   UNL     1       5.408   3.720  16.208  0.00  0.00    +0.000 A 
ATOM     29  C   UNL     1       6.060   4.631  17.076  0.00  0.00    +0.000 A 
ENDBRANCH  17  20
ENDBRANCH   5  17
TORSDOF 3
ENDMDL
MODEL 3
REMARK VINA RESULT:      -7.6      5.616      8.701
REMARK  Name = 
REMARK  3 active torsions:
REMARK  status: ('A' for Active; 'I' for Inactive)
REMARK    1  A    between atoms: C_2  and  C_11
REMARK    2  A    between atoms: N_15  and  S_16
REMARK    3  A    between atoms: S_16  and  C_19
REMARK                            x       y       z     vdW  Elec       q    Type
REMARK                         _______ _______ _______ _____ _____    ______ ____
ROOT
ATOM      1  C   UNL     1      -0.318  13.885  20.535  0.00  0.00    +0.000 C 
ATOM      2  C   UNL     1      -0.517  15.047  19.556  0.00  0.00    +0.000 C 
ATOM      3  C   UNL     1       0.884  15.552  19.298  0.00  0.00    +0.000 C 
ATOM      4  C   UNL     1       1.802  14.371  19.567  0.00  0.00    +0.000 C 
ATOM      5  N   UNL     1       0.945  13.240  20.035  0.00  0.00    +0.000 NA
ENDROOT
BRANCH   1   7
ATOM      6  O   UNL     1      -1.906  12.841  21.947  0.00  0.00    +0.000 OA
ATOM      7  C   UNL     1      -1.688  13.298  20.820  0.00  0.00    +0.000 C 
ATOM      8  N   UNL     1      -2.637  13.315  19.833  0.00  0.00    +0.000 N 
ATOM      9  C   UNL     1      -3.939  12.843  20.018  0.00  0.00    +0.000 A 
ATOM     10  C   UNL     1      -4.657  13.061  21.190  0.00  0.00    +0.000 A 
ATOM     11  C   UNL     1      -5.895  12.438  21.347  0.00  0.00    +0.000 A 
ATOM     12  C   UNL     1      -6.365  11.616  20.332  0.00  0.00    +0.000 A 
ATOM     13 CL   UNL     1      -7.824  10.733  20.521  0.00  0.00    +0.000 Cl
ATOM     14  C   UNL     1      -5.614  11.511  19.173  0.00  0.00    +0.000 A 
ATOM     15  N   UNL     1      -4.427  12.132  18.982  0.00  0.00    +0.000 NA
ATOM     16  H   UNL     1      -2.330  13.207  18.867  0.00  0.00    +0.000 HD
ENDBRANCH   1   7
BRANCH   5  17
ATOM     17  S   UNL     1       0.796  11.946  18.959  0.00  0.00    +0.000 S 
ATOM     18  O   UNL     1      -0.537  11.999  18.405  0.00  0.00    +0.000 OA
ATOM     19  O   UNL     1       1.954  12.015  18.083  0.00  0.00    +0.000 OA
BRANCH  17  20
ATOM     20  C   UNL     1       0.934  10.445  19.916  0.00  0.00    +0.000 A 
ATOM     21  C   UNL     1       0.500  10.531  21.249  0.00  0.00    +0.000 A 
ATOM     22  C   UNL     1       0.641   9.447  22.102  0.00  0.00    +0.000 A 
ATOM     23  C   UNL     1       1.236   8.283  21.636  0.00  0.00    +0.000 A 
ATOM     24  C   UNL     1       1.622   8.153  20.294  0.00  0.00    +0.000 A 
ATOM     25  C   UNL     1       2.147   6.928  19.858  0.00  0.00    +0.000 A 
ATOM     26  C   UNL     1       2.432   6.710  18.514  0.00  0.00    +0.000 A 
ATOM     27  C   UNL     1       2.246   7.736  17.599  0.00  0.00    +0.000 A 
ATOM     28  C   UNL     1       1.804   8.991  18.032  0.00  0.00    +0.000 A 
ATOM     29  C   UNL     1       1.457   9.237  19.385  0.00  0.00    +0.000 A 
ENDBRANCH  17  20
ENDBRANCH   5  17
TORSDOF 3
ENDMDL
MODEL 4
REMARK VINA RESULT:      -7.4      5.781     10.736
REMARK  Name = 
REMARK  3 active torsions:
REMARK  status: ('A' for Active; 'I' for Inactive)
REMARK    1  A    between atoms: C_2  and  C_11
REMARK    2  A    between atoms: N_15  and  S_16
REMARK    3  A    between atoms: S_16  and  C_19
REMARK                            x       y       z     vdW  Elec       q    Type
REMARK                         _______ _______ _______ _____ _____    ______ ____
ROOT
ATOM      1  C   UNL     1       0.450  13.245  20.043  0.00  0.00    +0.000 C 
ATOM      2  C   UNL     1       0.915  14.113  21.217  0.00  0.00    +0.000 C 
ATOM      3  C   UNL     1       0.343  15.478  20.912  0.00  0.00    +0.000 C 
ATOM      4  C   UNL     1      -0.868  15.228  20.029  0.00  0.00    +0.000 C 
ATOM      5  N   UNL     1      -0.939  13.756  19.781  0.00  0.00    +0.000 NA
ENDROOT
BRANCH   1   7
ATOM      6  O   UNL     1       1.497  11.596  21.380  0.00  0.00    +0.000 OA
ATOM      7  C   UNL     1       0.960  11.838  20.294  0.00  0.00    +0.000 C 
ATOM      8  N   UNL     1       0.789  10.886  19.325  0.00  0.00    +0.000 N 
ATOM      9  C   UNL     1       1.181   9.555  19.486  0.00  0.00    +0.000 A 
ATOM     10  C   UNL     1       1.015   8.863  20.682  0.00  0.00    +0.000 A 
ATOM     11  C   UNL     1       1.560   7.585  20.801  0.00  0.00    +0.000 A 
ATOM     12  C   UNL     1       2.254   7.048  19.725  0.00  0.00    +0.000 A 
ATOM     13 CL   UNL     1       3.044   5.531  19.856  0.00  0.00    +0.000 Cl
ATOM     14  C   UNL     1       2.311   7.782  18.552  0.00  0.00    +0.000 A 
ATOM     15  N   UNL     1       1.762   9.010  18.399  0.00  0.00    +0.000 NA
ATOM     16  H   UNL     1       0.833  11.177  18.350  0.00  0.00    +0.000 HD
ENDBRANCH   1   7
BRANCH   5  17
ATOM     17  S   UNL     1      -2.227  12.954  20.525  0.00  0.00    +0.000 S 
ATOM     18  O   UNL     1      -1.665  11.901  21.337  0.00  0.00    +0.000 OA
ATOM     19  O   UNL     1      -3.046  13.988  21.135  0.00  0.00    +0.000 OA
BRANCH  17  20
ATOM     20  C   UNL     1      -3.195  12.195  19.231  0.00  0.00    +0.000 A 
ATOM     21  C   UNL     1      -2.472  11.748  18.112  0.00  0.00    +0.000 A 
ATOM     22  C   UNL     1      -3.136  11.220  17.016  0.00  0.00    +0.000 A 
ATOM     23  C   UNL     1      -4.523  11.157  17.021  0.00  0.00    +0.000 A 
ATOM     24  C   UNL     1      -5.262  11.540  18.150  0.00  0.00    +0.000 A 
ATOM     25  C   UNL     1      -6.655  11.382  18.130  0.00  0.00    +0.000 A 
ATOM     26  C   UNL     1      -7.419  11.634  19.264  0.00  0.00    +0.000 A 
ATOM     27  C   UNL     1      -6.803  12.100  20.416  0.00  0.00    +0.000 A 
ATOM     28  C   UNL     1      -5.425  12.344  20.425  0.00  0.00    +0.000 A 
ATOM     29  C   UNL     1      -4.606  12.054  19.305  0.00  0.00    +0.000 A 
ENDBRANCH  17  20
ENDBRANCH   5  17
TORSDOF 3
ENDMDL
MODEL 5
REMARK VINA RESULT:      -7.4      4.833      7.905
REMARK  Name = 
REMARK  3 active torsions:
REMARK  status: ('A' for Active; 'I' for Inactive)
REMARK    1  A    between atoms: C_2  and  C_11
REMARK    2  A    between atoms: N_15  and  S_16
REMARK    3  A    between atoms: S_16  and  C_19
REMARK                            x       y       z     vdW  Elec       q    Type
REMARK                         _______ _______ _______ _____ _____    ______ ____
ROOT
ATOM      1  C   UNL     1       0.251  12.967  20.011  0.00  0.00    +0.000 C 
ATOM      2  C   UNL     1       0.198  14.108  18.990  0.00  0.00    +0.000 C 
ATOM      3  C   UNL     1       1.649  14.380  18.668  0.00  0.00    +0.000 C 
ATOM      4  C   UNL     1       2.384  13.083  18.960  0.00  0.00    +0.000 C 
ATOM      5  N   UNL     1       1.381  12.117  19.502  0.00  0.00    +0.000 NA
ENDROOT
BRANCH   1   7
ATOM      6  O   UNL     1      -1.414  12.168  21.492  0.00  0.00    +0.000 OA
ATOM      7  C   UNL     1      -1.182  12.611  20.362  0.00  0.00    +0.000 C 
ATOM      8  N   UNL     1      -2.164  12.812  19.430  0.00  0.00    +0.000 N 
ATOM      9  C   UNL     1      -3.515  12.561  19.679  0.00  0.00    +0.000 A 
ATOM     10  C   UNL     1      -4.124  12.866  20.893  0.00  0.00    +0.000 A 
ATOM     11  C   UNL     1      -5.439  12.454  21.109  0.00  0.00    +0.000 A 
ATOM     12  C   UNL     1      -6.094  11.749  20.107  0.00  0.00    +0.000 A 
ATOM     13 CL   UNL     1      -7.669  11.119  20.362  0.00  0.00    +0.000 Cl
ATOM     14  C   UNL     1      -5.433  11.550  18.907  0.00  0.00    +0.000 A 
ATOM     15  N   UNL     1      -4.169  11.969  18.660  0.00  0.00    +0.000 NA
ATOM     16  H   UNL     1      -1.931  12.681  18.447  0.00  0.00    +0.000 HD
ENDBRANCH   1   7
BRANCH   5  17
ATOM     17  S   UNL     1       0.996  10.821  18.487  0.00  0.00    +0.000 S 
ATOM     18  O   UNL     1      -0.387  10.975  18.101  0.00  0.00    +0.000 OA
ATOM     19  O   UNL     1       2.037  10.781  17.473  0.00  0.00    +0.000 OA
BRANCH  17  20
ATOM     20  C   UNL     1       1.134   9.330  19.459  0.00  0.00    +0.000 A 
ATOM     21  C   UNL     1       0.347   9.287  20.622  0.00  0.00    +0.000 A 
ATOM     22  C   UNL     1       0.442   8.211  21.491  0.00  0.00    +0.000 A 
ATOM     23  C   UNL     1       1.337   7.187  21.216  0.00  0.00    +0.000 A 
ATOM     24  C   UNL     1       2.089   7.179  20.032  0.00  0.00    +0.000 A 
ATOM     25  C   UNL     1       2.920   6.081  19.767  0.00  0.00    +0.000 A 
ATOM     26  C   UNL     1       3.592   5.969  18.555  0.00  0.00    +0.000 A 
ATOM     27  C   UNL     1       3.482   6.982  17.615  0.00  0.00    +0.000 A 
ATOM     28  C   UNL     1       2.725   8.124  17.898  0.00  0.00    +0.000 A 
ATOM     29  C   UNL     1       1.987   8.253  19.102  0.00  0.00    +0.000 A 
ENDBRANCH  17  20
ENDBRANCH   5  17
TORSDOF 3
ENDMDL
MODEL 6
REMARK VINA RESULT:      -7.4      5.454     10.155
REMARK  Name = 
REMARK  3 active torsions:
REMARK  status: ('A' for Active; 'I' for Inactive)
REMARK    1  A    between atoms: C_2  and  C_11
REMARK    2  A    between atoms: N_15  and  S_16
REMARK    3  A    between atoms: S_16  and  C_19
REMARK                            x       y       z     vdW  Elec       q    Type
REMARK                         _______ _______ _______ _____ _____    ______ ____
ROOT
ATOM      1  C   UNL     1       0.140  13.233  20.307  0.00  0.00    +0.000 C 
ATOM      2  C   UNL     1       0.549  13.995  21.572  0.00  0.00    +0.000 C 
ATOM      3  C   UNL     1      -0.154  15.326  21.440  0.00  0.00    +0.000 C 
ATOM      4  C   UNL     1      -1.356  15.069  20.546  0.00  0.00    +0.000 C 
ATOM      5  N   UNL     1      -1.296  13.637  20.124  0.00  0.00    +0.000 NA
ENDROOT
BRANCH   1   7
ATOM      6  O   UNL     1       1.451  11.581  21.384  0.00  0.00    +0.000 OA
ATOM      7  C   UNL     1       0.785  11.861  20.381  0.00  0.00    +0.000 C 
ATOM      8  N   UNL     1       0.590  10.978  19.353  0.00  0.00    +0.000 N 
ATOM      9  C   UNL     1       1.101   9.678  19.356  0.00  0.00    +0.000 A 
ATOM     10  C   UNL     1       1.118   8.881  20.496  0.00  0.00    +0.000 A 
ATOM     11  C   UNL     1       1.773   7.650  20.448  0.00  0.00    +0.000 A 
ATOM     12  C   UNL     1       2.390   7.265  19.265  0.00  0.00    +0.000 A 
ATOM     13 CL   UNL     1       3.308   5.818  19.183  0.00  0.00    +0.000 Cl
ATOM     14  C   UNL     1       2.265   8.092  18.162  0.00  0.00    +0.000 A 
ATOM     15  N   UNL     1       1.606   9.275  18.173  0.00  0.00    +0.000 NA
ATOM     16  H   UNL     1       0.507  11.349  18.408  0.00  0.00    +0.000 HD
ENDBRANCH   1   7
BRANCH   5  17
ATOM     17  S   UNL     1      -2.486  12.633  20.780  0.00  0.00    +0.000 S 
ATOM     18  O   UNL     1      -1.852  11.382  21.123  0.00  0.00    +0.000 OA
ATOM     19  O   UNL     1      -3.154  13.418  21.805  0.00  0.00    +0.000 OA
BRANCH  17  20
ATOM     20  C   UNL     1      -3.676  12.311  19.488  0.00  0.00    +0.000 A 
ATOM     21  C   UNL     1      -4.945  12.886  19.672  0.00  0.00    +0.000 A 
ATOM     22  C   UNL     1      -5.966  12.629  18.771  0.00  0.00    +0.000 A 
ATOM     23  C   UNL     1      -5.733  11.781  17.697  0.00  0.00    +0.000 A 
ATOM     24  C   UNL     1      -4.460  11.245  17.459  0.00  0.00    +0.000 A 
ATOM     25  C   UNL     1      -4.261  10.458  16.315  0.00  0.00    +0.000 A 
ATOM     26  C   UNL     1      -2.992  10.004  15.972  0.00  0.00    +0.000 A 
ATOM     27  C   UNL     1      -1.916  10.287  16.799  0.00  0.00    +0.000 A 
ATOM     28  C   UNL     1      -2.112  10.998  17.987  0.00  0.00    +0.000 A 
ATOM     29  C   UNL     1      -3.381  11.519  18.347  0.00  0.00    +0.000 A 
ENDBRANCH  17  20
ENDBRANCH   5  17
TORSDOF 3
ENDMDL
MODEL 7
REMARK VINA RESULT:      -7.3      4.371      8.730
REMARK  Name = 
REMARK  3 active torsions:
REMARK  status: ('A' for Active; 'I' for Inactive)
REMARK    1  A    between atoms: C_2  and  C_11
REMARK    2  A    between atoms: N_15  and  S_16
REMARK    3  A    between atoms: S_16  and  C_19
REMARK                            x       y       z     vdW  Elec       q    Type
REMARK                         _______ _______ _______ _____ _____    ______ ____
ROOT
ATOM      1  C   UNL     1       1.097   9.106  21.408  0.00  0.00    +0.000 C 
ATOM      2  C   UNL     1      -0.254   8.723  22.020  0.00  0.00    +0.000 C 
ATOM      3  C   UNL     1      -0.641   9.934  22.838  0.00  0.00    +0.000 C 
ATOM      4  C   UNL     1       0.083  11.108  22.201  0.00  0.00    +0.000 C 
ATOM      5  N   UNL     1       0.917  10.564  21.088  0.00  0.00    +0.000 NA
ENDROOT
BRANCH   1   7
ATOM      6  O   UNL     1       1.941   8.190  19.394  0.00  0.00    +0.000 OA
ATOM      7  C   UNL     1       1.542   7.945  20.538  0.00  0.00    +0.000 C 
ATOM      8  N   UNL     1       1.507   6.677  21.052  0.00  0.00    +0.000 N 
ATOM      9  C   UNL     1       1.942   5.554  20.345  0.00  0.00    +0.000 A 
ATOM     10  C   UNL     1       3.077   5.567  19.539  0.00  0.00    +0.000 A 
ATOM     11  C   UNL     1       3.361   4.447  18.758  0.00  0.00    +0.000 A 
ATOM     12  C   UNL     1       2.500   3.359  18.807  0.00  0.00    +0.000 A 
ATOM     13 CL   UNL     1       2.737   2.004  17.782  0.00  0.00    +0.000 Cl
ATOM     14  C   UNL     1       1.433   3.408  19.688  0.00  0.00    +0.000 A 
ATOM     15  N   UNL     1       1.153   4.469  20.481  0.00  0.00    +0.000 NA
ATOM     16  H   UNL     1       0.765   6.444  21.711  0.00  0.00    +0.000 HD
ENDBRANCH   1   7
BRANCH   5  17
ATOM     17  S   UNL     1       0.408  10.971  19.529  0.00  0.00    +0.000 S 
ATOM     18  O   UNL     1       1.479  10.626  18.624  0.00  0.00    +0.000 OA
ATOM     19  O   UNL     1      -0.906  10.371  19.366  0.00  0.00    +0.000 OA
BRANCH  17  20
ATOM     20  C   UNL     1       0.200  12.743  19.487  0.00  0.00    +0.000 A 
ATOM     21  C   UNL     1      -1.048  13.220  19.923  0.00  0.00    +0.000 A 
ATOM     22  C   UNL     1      -1.343  14.572  19.852  0.00  0.00    +0.000 A 
ATOM     23  C   UNL     1      -0.406  15.451  19.326  0.00  0.00    +0.000 A 
ATOM     24  C   UNL     1       0.867  15.007  18.941  0.00  0.00    +0.000 A 
ATOM     25  C   UNL     1       1.803  15.949  18.488  0.00  0.00    +0.000 A 
ATOM     26  C   UNL     1       3.113  15.578  18.210  0.00  0.00    +0.000 A 
ATOM     27  C   UNL     1       3.489  14.248  18.327  0.00  0.00    +0.000 A 
ATOM     28  C   UNL     1       2.546  13.282  18.695  0.00  0.00    +0.000 A 
ATOM     29  C   UNL     1       1.213  13.629  19.034  0.00  0.00    +0.000 A 
ENDBRANCH  17  20
ENDBRANCH   5  17
TORSDOF 3
ENDMDL
MODEL 8
REMARK VINA RESULT:      -7.3      5.435     10.913
REMARK  Name = 
REMARK  3 active torsions:
REMARK  status: ('A' for Active; 'I' for Inactive)
REMARK    1  A    between atoms: C_2  and  C_11
REMARK    2  A    between atoms: N_15  and  S_16
REMARK    3  A    between atoms: S_16  and  C_19
REMARK                            x       y       z     vdW  Elec       q    Type
REMARK                         _______ _______ _______ _____ _____    ______ ____
ROOT
ATOM      1  C   UNL     1      -0.414  12.151  18.832  0.00  0.00    +0.000 C 
ATOM      2  C   UNL     1       0.768  13.095  18.590  0.00  0.00    +0.000 C 
ATOM      3  C   UNL     1       0.184  14.473  18.800  0.00  0.00    +0.000 C 
ATOM      4  C   UNL     1      -1.009  14.277  19.721  0.00  0.00    +0.000 C 
ATOM      5  N   UNL     1      -1.140  12.810  19.971  0.00  0.00    +0.000 NA
ENDROOT
BRANCH   1   7
ATOM      6  O   UNL     1      -0.249  10.092  17.676  0.00  0.00    +0.000 OA
ATOM      7  C   UNL     1       0.103  10.733  18.671  0.00  0.00    +0.000 C 
ATOM      8  N   UNL     1       0.953  10.224  19.616  0.00  0.00    +0.000 N 
ATOM      9  C   UNL     1       1.518   8.950  19.526  0.00  0.00    +0.000 A 
ATOM     10  C   UNL     1       1.976   8.414  18.326  0.00  0.00    +0.000 A 
ATOM     11  C   UNL     1       2.396   7.084  18.299  0.00  0.00    +0.000 A 
ATOM     12  C   UNL     1       2.338   6.339  19.470  0.00  0.00    +0.000 A 
ATOM     13 CL   UNL     1       2.731   4.669  19.468  0.00  0.00    +0.000 Cl
ATOM     14  C   UNL     1       1.932   6.974  20.631  0.00  0.00    +0.000 A 
ATOM     15  N   UNL     1       1.552   8.272  20.691  0.00  0.00    +0.000 NA
ATOM     16  H   UNL     1       0.828  10.514  20.584  0.00  0.00    +0.000 HD
ENDBRANCH   1   7
BRANCH   5  17
ATOM     17  S   UNL     1      -0.771  12.303  21.540  0.00  0.00    +0.000 S 
ATOM     18  O   UNL     1      -1.224  10.938  21.667  0.00  0.00    +0.000 OA
ATOM     19  O   UNL     1       0.630  12.630  21.749  0.00  0.00    +0.000 OA
BRANCH  17  20
ATOM     20  C   UNL     1      -1.731  13.308  22.660  0.00  0.00    +0.000 A 
ATOM     21  C   UNL     1      -0.991  14.110  23.545  0.00  0.00    +0.000 A 
ATOM     22  C   UNL     1      -1.637  14.865  24.511  0.00  0.00    +0.000 A 
ATOM     23  C   UNL     1      -3.020  14.806  24.614  0.00  0.00    +0.000 A 
ATOM     24  C   UNL     1      -3.783  14.060  23.704  0.00  0.00    +0.000 A 
ATOM     25  C   UNL     1      -5.182  14.097  23.806  0.00  0.00    +0.000 A 
ATOM     26  C   UNL     1      -5.985  13.474  22.857  0.00  0.00    +0.000 A 
ATOM     27  C   UNL     1      -5.396  12.759  21.825  0.00  0.00    +0.000 A 
ATOM     28  C   UNL     1      -4.003  12.641  21.758  0.00  0.00    +0.000 A 
ATOM     29  C   UNL     1      -3.151  13.302  22.678  0.00  0.00    +0.000 A 
ENDBRANCH  17  20
ENDBRANCH   5  17
TORSDOF 3
ENDMDL
MODEL 9
REMARK VINA RESULT:      -7.2      4.844     10.133
REMARK  Name = 
REMARK  3 active torsions:
REMARK  status: ('A' for Active; 'I' for Inactive)
REMARK    1  A    between atoms: C_2  and  C_11
REMARK    2  A    between atoms: N_15  and  S_16
REMARK    3  A    between atoms: S_16  and  C_19
REMARK                            x       y       z     vdW  Elec       q    Type
REMARK                         _______ _______ _______ _____ _____    ______ ____
ROOT
ATOM      1  C   UNL     1      -0.182  10.062  19.535  0.00  0.00    +0.000 C 
ATOM      2  C   UNL     1       0.212  11.022  18.407  0.00  0.00    +0.000 C 
ATOM      3  C   UNL     1      -0.915  12.028  18.372  0.00  0.00    +0.000 C 
ATOM      4  C   UNL     1      -1.515  12.020  19.769  0.00  0.00    +0.000 C 
ATOM      5  N   UNL     1      -0.788  10.981  20.558  0.00  0.00    +0.000 NA
ENDROOT
BRANCH   1   7
ATOM      6  O   UNL     1       1.295   8.700  20.787  0.00  0.00    +0.000 OA
ATOM      7  C   UNL     1       0.927   9.032  19.656  0.00  0.00    +0.000 C 
ATOM      8  N   UNL     1       1.462   8.494  18.516  0.00  0.00    +0.000 N 
ATOM      9  C   UNL     1       2.449   7.506  18.530  0.00  0.00    +0.000 A 
ATOM     10  C   UNL     1       2.444   6.452  19.439  0.00  0.00    +0.000 A 
ATOM     11  C   UNL     1       3.540   5.590  19.476  0.00  0.00    +0.000 A 
ATOM     12  C   UNL     1       4.600   5.815  18.608  0.00  0.00    +0.000 A 
ATOM     13 CL   UNL     1       6.021   4.857  18.690  0.00  0.00    +0.000 Cl
ATOM     14  C   UNL     1       4.489   6.847  17.692  0.00  0.00    +0.000 A 
ATOM     15  N   UNL     1       3.422   7.677  17.613  0.00  0.00    +0.000 NA
ATOM     16  H   UNL     1       1.532   9.086  17.690  0.00  0.00    +0.000 HD
ENDBRANCH   1   7
BRANCH   5  17
ATOM     17  S   UNL     1       0.216  11.568  21.783  0.00  0.00    +0.000 S 
ATOM     18  O   UNL     1       0.180  10.610  22.864  0.00  0.00    +0.000 OA
ATOM     19  O   UNL     1       1.479  11.899  21.144  0.00  0.00    +0.000 OA
BRANCH  17  20
ATOM     20  C   UNL     1      -0.504  13.090  22.373  0.00  0.00    +0.000 A 
ATOM     21  C   UNL     1       0.220  14.259  22.084  0.00  0.00    +0.000 A 
ATOM     22  C   UNL     1      -0.208  15.485  22.568  0.00  0.00    +0.000 A 
ATOM     23  C   UNL     1      -1.346  15.548  23.361  0.00  0.00    +0.000 A 
ATOM     24  C   UNL     1      -2.118  14.405  23.613  0.00  0.00    +0.000 A 
ATOM     25  C   UNL     1      -3.301  14.539  24.355  0.00  0.00    +0.000 A 
ATOM     26  C   UNL     1      -4.161  13.461  24.530  0.00  0.00    +0.000 A 
ATOM     27  C   UNL     1      -3.821  12.221  24.009  0.00  0.00    +0.000 A 
ATOM     28  C   UNL     1      -2.604  12.051  23.339  0.00  0.00    +0.000 A 
ATOM     29  C   UNL     1      -1.724  13.137  23.100  0.00  0.00    +0.000 A 
ENDBRANCH  17  20
ENDBRANCH   5  17
TORSDOF 3
ENDMDL
