MODEL 1
REMARK VINA RESULT:      -6.4      0.000      0.000
REMARK  Name = 
REMARK  7 active torsions:
REMARK  status: ('A' for Active; 'I' for Inactive)
REMARK    1  A    between atoms: C_1  and  C_2
REMARK    2  A    between atoms: C_5  and  O_6
REMARK    3  A    between atoms: O_6  and  C_7
REMARK    4  A    between atoms: C_7  and  C_8
REMARK    5  A    between atoms: C_11  and  C_12
REMARK    6  A    between atoms: C_12  and  S_13
REMARK    7  A    between atoms: S_13  and  C_14
REMARK                            x       y       z     vdW  Elec       q    Type
REMARK                         _______ _______ _______ _____ _____    ______ ____
ROOT
ATOM      1  C   UNL     1       5.157   5.978  18.222  0.00  0.00    +0.000 A 
ATOM      2  C   UNL     1       4.111   6.382  17.416  0.00  0.00    +0.000 A 
ATOM      3  S   UNL     1       2.613   6.053  18.174  0.00  0.00    +0.000 S 
ATOM      4  C   UNL     1       3.448   5.362  19.510  0.00  0.00    +0.000 A 
ATOM      5  N   UNL     1       4.763   5.398  19.427  0.00  0.00    +0.000 NA
ENDROOT
BRANCH   1   6
ATOM      6  C   UNL     1       6.625   6.145  17.944  0.00  0.00    +0.000 C 
BRANCH   6   7
ATOM      7  O   UNL     1       7.237   4.920  17.517  0.00  0.00    +0.000 OA
BRANCH   7  12
ATOM      8  C   UNL     1       5.917   3.618  12.213  0.00  0.00    +0.000 C 
ATOM      9  C   UNL     1       6.231   3.939  13.640  0.00  0.00    +0.000 A 
ATOM     10  C   UNL     1       5.556   3.345  14.707  0.00  0.00    +0.000 A 
ATOM     11  C   UNL     1       5.900   3.683  16.015  0.00  0.00    +0.000 A 
ATOM     12  C   UNL     1       6.911   4.610  16.210  0.00  0.00    +0.000 A 
ATOM     13  N   UNL     1       7.580   5.207  15.200  0.00  0.00    +0.000 NA
ATOM     14  C   UNL     1       7.225   4.860  13.945  0.00  0.00    +0.000 A 
ENDBRANCH   7  12
ENDBRANCH   6   7
ENDBRANCH   1   6
BRANCH   4  15
ATOM     15  C   UNL     1       2.704   4.843  20.684  0.00  0.00    +0.000 C 
BRANCH  15  16
ATOM     16  S   UNL     1       1.944   3.287  20.263  0.00  0.00    +0.000 S 
ATOM     17  C   UNL     1       1.804   2.400  21.799  0.00  0.00    +0.000 C 
ATOM     18  O   UNL     1       0.589   3.583  19.828  0.00  0.00    +0.000 OA
ATOM     19  O   UNL     1       2.827   2.538  19.387  0.00  0.00    +0.000 OA
ENDBRANCH  15  16
ENDBRANCH   4  15
TORSDOF 5
ENDMDL
MODEL 2
REMARK VINA RESULT:      -6.3      3.436      6.797
REMARK  Name = 
REMARK  7 active torsions:
REMARK  status: ('A' for Active; 'I' for Inactive)
REMARK    1  A    between atoms: C_1  and  C_2
REMARK    2  A    between atoms: C_5  and  O_6
REMARK    3  A    between atoms: O_6  and  C_7
REMARK    4  A    between atoms: C_7  and  C_8
REMARK    5  A    between atoms: C_11  and  C_12
REMARK    6  A    between atoms: C_12  and  S_13
REMARK    7  A    between atoms: S_13  and  C_14
REMARK                            x       y       z     vdW  Elec       q    Type
REMARK                         _______ _______ _______ _____ _____    ______ ____
ROOT
ATOM      1  C   UNL     1       2.703   4.541  19.007  0.00  0.00    +0.000 A 
ATOM      2  C   UNL     1       2.526   3.171  19.016  0.00  0.00    +0.000 A 
ATOM      3  S   UNL     1       3.601   2.424  17.914  0.00  0.00    +0.000 S 
ATOM      4  C   UNL     1       4.209   3.970  17.468  0.00  0.00    +0.000 A 
ATOM      5  N   UNL     1       3.679   4.988  18.117  0.00  0.00    +0.000 NA
ENDROOT
BRANCH   1   6
ATOM      6  C   UNL     1       1.997   5.546  19.873  0.00  0.00    +0.000 C 
BRANCH   6   7
ATOM      7  O   UNL     1       2.739   6.768  19.999  0.00  0.00    +0.000 OA
BRANCH   7  12
ATOM      8  C   UNL     1      -0.328  11.267  18.612  0.00  0.00    +0.000 C 
ATOM      9  C   UNL     1       0.498  10.062  18.935  0.00  0.00    +0.000 A 
ATOM     10  C   UNL     1       1.262   9.399  17.975  0.00  0.00    +0.000 A 
ATOM     11  C   UNL     1       2.015   8.284  18.341  0.00  0.00    +0.000 A 
ATOM     12  C   UNL     1       1.976   7.870  19.663  0.00  0.00    +0.000 A 
ATOM     13  N   UNL     1       1.242   8.485  20.615  0.00  0.00    +0.000 NA
ATOM     14  C   UNL     1       0.523   9.561  20.231  0.00  0.00    +0.000 A 
ENDBRANCH   7  12
ENDBRANCH   6   7
ENDBRANCH   1   6
BRANCH   4  15
ATOM     15  C   UNL     1       5.305   4.098  16.476  0.00  0.00    +0.000 C 
BRANCH  15  16
ATOM     16  S   UNL     1       6.758   4.745  17.278  0.00  0.00    +0.000 S 
ATOM     17  C   UNL     1       6.569   6.514  17.240  0.00  0.00    +0.000 C 
ATOM     18  O   UNL     1       6.682   4.347  18.674  0.00  0.00    +0.000 OA
ATOM     19  O   UNL     1       7.935   4.400  16.501  0.00  0.00    +0.000 OA
ENDBRANCH  15  16
ENDBRANCH   4  15
TORSDOF 5
ENDMDL
MODEL 3
REMARK VINA RESULT:      -6.2      1.621      2.026
REMARK  Name = 
REMARK  7 active torsions:
REMARK  status: ('A' for Active; 'I' for Inactive)
REMARK    1  A    between atoms: C_1  and  C_2
REMARK    2  A    between atoms: C_5  and  O_6
REMARK    3  A    between atoms: O_6  and  C_7
REMARK    4  A    between atoms: C_7  and  C_8
REMARK    5  A    between atoms: C_11  and  C_12
REMARK    6  A    between atoms: C_12  and  S_13
REMARK    7  A    between atoms: S_13  and  C_14
REMARK                            x       y       z     vdW  Elec       q    Type
REMARK                         _______ _______ _______ _____ _____    ______ ____
ROOT
ATOM      1  C   UNL     1       5.798   5.576  17.280  0.00  0.00    +0.000 A 
ATOM      2  C   UNL     1       5.123   6.769  17.109  0.00  0.00    +0.000 A 
ATOM      3  S   UNL     1       3.633   6.735  17.948  0.00  0.00    +0.000 S 
ATOM      4  C   UNL     1       3.962   5.126  18.456  0.00  0.00    +0.000 A 
ATOM      5  N   UNL     1       5.123   4.640  18.062  0.00  0.00    +0.000 NA
ENDROOT
BRANCH   1   6
ATOM      6  C   UNL     1       7.164   5.232  16.755  0.00  0.00    +0.000 C 
BRANCH   6   7
ATOM      7  O   UNL     1       7.398   5.786  15.452  0.00  0.00    +0.000 OA
BRANCH   7  12
ATOM      8  C   UNL     1       5.409   2.498  11.353  0.00  0.00    +0.000 C 
ATOM      9  C   UNL     1       5.976   3.384  12.417  0.00  0.00    +0.000 A 
ATOM     10  C   UNL     1       7.086   4.200  12.198  0.00  0.00    +0.000 A 
ATOM     11  C   UNL     1       7.563   5.008  13.230  0.00  0.00    +0.000 A 
ATOM     12  C   UNL     1       6.909   4.969  14.451  0.00  0.00    +0.000 A 
ATOM     13  N   UNL     1       5.837   4.186  14.697  0.00  0.00    +0.000 NA
ATOM     14  C   UNL     1       5.398   3.415  13.680  0.00  0.00    +0.000 A 
ENDBRANCH   7  12
ENDBRANCH   6   7
ENDBRANCH   1   6
BRANCH   4  15
ATOM     15  C   UNL     1       3.014   4.398  19.337  0.00  0.00    +0.000 C 
BRANCH  15  16
ATOM     16  S   UNL     1       2.263   3.064  18.425  0.00  0.00    +0.000 S 
ATOM     17  C   UNL     1       0.759   2.685  19.296  0.00  0.00    +0.000 C 
ATOM     18  O   UNL     1       1.872   3.604  17.132  0.00  0.00    +0.000 OA
ATOM     19  O   UNL     1       3.123   1.896  18.479  0.00  0.00    +0.000 OA
ENDBRANCH  15  16
ENDBRANCH   4  15
TORSDOF 5
ENDMDL
MODEL 4
REMARK VINA RESULT:      -6.2      4.041      7.943
REMARK  Name = 
REMARK  7 active torsions:
REMARK  status: ('A' for Active; 'I' for Inactive)
REMARK    1  A    between atoms: C_1  and  C_2
REMARK    2  A    between atoms: C_5  and  O_6
REMARK    3  A    between atoms: O_6  and  C_7
REMARK    4  A    between atoms: C_7  and  C_8
REMARK    5  A    between atoms: C_11  and  C_12
REMARK    6  A    between atoms: C_12  and  S_13
REMARK    7  A    between atoms: S_13  and  C_14
REMARK                            x       y       z     vdW  Elec       q    Type
REMARK                         _______ _______ _______ _____ _____    ______ ____
ROOT
ATOM      1  C   UNL     1       2.903   5.710  19.007  0.00  0.00    +0.000 A 
ATOM      2  C   UNL     1       2.282   4.751  18.230  0.00  0.00    +0.000 A 
ATOM      3  S   UNL     1       3.433   3.913  17.283  0.00  0.00    +0.000 S 
ATOM      4  C   UNL     1       4.681   4.900  17.936  0.00  0.00    +0.000 A 
ATOM      5  N   UNL     1       4.285   5.782  18.833  0.00  0.00    +0.000 NA
ENDROOT
BRANCH   1   6
ATOM      6  C   UNL     1       2.251   6.613  20.015  0.00  0.00    +0.000 C 
BRANCH   6   7
ATOM      7  O   UNL     1       2.031   7.933  19.496  0.00  0.00    +0.000 OA
BRANCH   7  12
ATOM      8  C   UNL     1      -1.081  11.087  22.952  0.00  0.00    +0.000 C 
ATOM      9  C   UNL     1      -0.274  10.268  21.995  0.00  0.00    +0.000 A 
ATOM     10  C   UNL     1      -0.289  10.494  20.618  0.00  0.00    +0.000 A 
ATOM     11  C   UNL     1       0.491   9.699  19.779  0.00  0.00    +0.000 A 
ATOM     12  C   UNL     1       1.261   8.700  20.351  0.00  0.00    +0.000 A 
ATOM     13  N   UNL     1       1.294   8.450  21.677  0.00  0.00    +0.000 NA
ATOM     14  C   UNL     1       0.529   9.236  22.464  0.00  0.00    +0.000 A 
ENDBRANCH   7  12
ENDBRANCH   6   7
ENDBRANCH   1   6
BRANCH   4  15
ATOM     15  C   UNL     1       6.098   4.690  17.548  0.00  0.00    +0.000 C 
BRANCH  15  16
ATOM     16  S   UNL     1       6.618   6.011  16.471  0.00  0.00    +0.000 S 
ATOM     17  C   UNL     1       7.443   7.183  17.527  0.00  0.00    +0.000 C 
ATOM     18  O   UNL     1       7.632   5.460  15.587  0.00  0.00    +0.000 OA
ATOM     19  O   UNL     1       5.451   6.660  15.902  0.00  0.00    +0.000 OA
ENDBRANCH  15  16
ENDBRANCH   4  15
TORSDOF 5
ENDMDL
MODEL 5
REMARK VINA RESULT:      -6.1      3.869      7.240
REMARK  Name = 
REMARK  7 active torsions:
REMARK  status: ('A' for Active; 'I' for Inactive)
REMARK    1  A    between atoms: C_1  and  C_2
REMARK    2  A    between atoms: C_5  and  O_6
REMARK    3  A    between atoms: O_6  and  C_7
REMARK    4  A    between atoms: C_7  and  C_8
REMARK    5  A    between atoms: C_11  and  C_12
REMARK    6  A    between atoms: C_12  and  S_13
REMARK    7  A    between atoms: S_13  and  C_14
REMARK                            x       y       z     vdW  Elec       q    Type
REMARK                         _______ _______ _______ _____ _____    ______ ____
ROOT
ATOM      1  C   UNL     1       2.870   5.171  19.733  0.00  0.00    +0.000 A 
ATOM      2  C   UNL     1       2.944   3.894  20.256  0.00  0.00    +0.000 A 
ATOM      3  S   UNL     1       4.106   2.969  19.409  0.00  0.00    +0.000 S 
ATOM      4  C   UNL     1       4.413   4.309  18.377  0.00  0.00    +0.000 A 
ATOM      5  N   UNL     1       3.726   5.399  18.655  0.00  0.00    +0.000 NA
ENDROOT
BRANCH   1   6
ATOM      6  C   UNL     1       2.017   6.302  20.234  0.00  0.00    +0.000 C 
BRANCH   6   7
ATOM      7  O   UNL     1       2.515   7.581  19.815  0.00  0.00    +0.000 OA
BRANCH   7  12
ATOM      8  C   UNL     1      -1.578  11.395  19.296  0.00  0.00    +0.000 C 
ATOM      9  C   UNL     1      -0.481  10.383  19.387  0.00  0.00    +0.000 A 
ATOM     10  C   UNL     1       0.346  10.075  18.306  0.00  0.00    +0.000 A 
ATOM     11  C   UNL     1       1.356   9.126  18.458  0.00  0.00    +0.000 A 
ATOM     12  C   UNL     1       1.501   8.512  19.691  0.00  0.00    +0.000 A 
ATOM     13  N   UNL     1       0.714   8.781  20.755  0.00  0.00    +0.000 NA
ATOM     14  C   UNL     1      -0.254   9.705  20.579  0.00  0.00    +0.000 A 
ENDBRANCH   7  12
ENDBRANCH   6   7
ENDBRANCH   1   6
BRANCH   4  15
ATOM     15  C   UNL     1       5.442   4.227  17.310  0.00  0.00    +0.000 C 
BRANCH  15  16
ATOM     16  S   UNL     1       6.960   4.954  17.893  0.00  0.00    +0.000 S 
ATOM     17  C   UNL     1       6.899   6.654  17.372  0.00  0.00    +0.000 C 
ATOM     18  O   UNL     1       6.894   4.960  19.346  0.00  0.00    +0.000 OA
ATOM     19  O   UNL     1       8.086   4.319  17.233  0.00  0.00    +0.000 OA
ENDBRANCH  15  16
ENDBRANCH   4  15
TORSDOF 5
ENDMDL
MODEL 6
REMARK VINA RESULT:      -6.1      5.479      7.386
REMARK  Name = 
REMARK  7 active torsions:
REMARK  status: ('A' for Active; 'I' for Inactive)
REMARK    1  A    between atoms: C_1  and  C_2
REMARK    2  A    between atoms: C_5  and  O_6
REMARK    3  A    between atoms: O_6  and  C_7
REMARK    4  A    between atoms: C_7  and  C_8
REMARK    5  A    between atoms: C_11  and  C_12
REMARK    6  A    between atoms: C_12  and  S_13
REMARK    7  A    between atoms: S_13  and  C_14
REMARK                            x       y       z     vdW  Elec       q    Type
REMARK                         _______ _______ _______ _____ _____    ______ ____
ROOT
ATOM      1  C   UNL     1       1.045   9.385  18.833  0.00  0.00    +0.000 A 
ATOM      2  C   UNL     1       0.734   9.628  20.157  0.00  0.00    +0.000 A 
ATOM      3  S   UNL     1      -0.582  10.715  20.269  0.00  0.00    +0.000 S 
ATOM      4  C   UNL     1      -0.633  10.822  18.554  0.00  0.00    +0.000 A 
ATOM      5  N   UNL     1       0.248  10.073  17.920  0.00  0.00    +0.000 NA
ENDROOT
BRANCH   1   6
ATOM      6  C   UNL     1       2.097   8.444  18.313  0.00  0.00    +0.000 C 
BRANCH   6   7
ATOM      7  O   UNL     1       2.642   7.616  19.351  0.00  0.00    +0.000 OA
BRANCH   7  12
ATOM      8  C   UNL     1       0.953   2.275  18.922  0.00  0.00    +0.000 C 
ATOM      9  C   UNL     1       1.387   3.697  19.081  0.00  0.00    +0.000 A 
ATOM     10  C   UNL     1       1.355   4.357  20.310  0.00  0.00    +0.000 A 
ATOM     11  C   UNL     1       1.779   5.682  20.393  0.00  0.00    +0.000 A 
ATOM     12  C   UNL     1       2.220   6.305  19.237  0.00  0.00    +0.000 A 
ATOM     13  N   UNL     1       2.256   5.699  18.031  0.00  0.00    +0.000 NA
ATOM     14  C   UNL     1       1.840   4.415  17.982  0.00  0.00    +0.000 A 
ENDBRANCH   7  12
ENDBRANCH   6   7
ENDBRANCH   1   6
BRANCH   4  15
ATOM     15  C   UNL     1      -1.659  11.651  17.874  0.00  0.00    +0.000 C 
BRANCH  15  16
ATOM     16  S   UNL     1      -2.843  10.588  17.072  0.00  0.00    +0.000 S 
ATOM     17  C   UNL     1      -4.343  11.542  16.974  0.00  0.00    +0.000 C 
ATOM     18  O   UNL     1      -2.381  10.396  15.707  0.00  0.00    +0.000 OA
ATOM     19  O   UNL     1      -3.099   9.429  17.909  0.00  0.00    +0.000 OA
ENDBRANCH  15  16
ENDBRANCH   4  15
TORSDOF 5
ENDMDL
MODEL 7
REMARK VINA RESULT:      -6.0      3.841      7.584
REMARK  Name = 
REMARK  7 active torsions:
REMARK  status: ('A' for Active; 'I' for Inactive)
REMARK    1  A    between atoms: C_1  and  C_2
REMARK    2  A    between atoms: C_5  and  O_6
REMARK    3  A    between atoms: O_6  and  C_7
REMARK    4  A    between atoms: C_7  and  C_8
REMARK    5  A    between atoms: C_11  and  C_12
REMARK    6  A    between atoms: C_12  and  S_13
REMARK    7  A    between atoms: S_13  and  C_14
REMARK                            x       y       z     vdW  Elec       q    Type
REMARK                         _______ _______ _______ _____ _____    ______ ____
ROOT
ATOM      1  C   UNL     1       3.103   5.270  19.692  0.00  0.00    +0.000 A 
ATOM      2  C   UNL     1       3.071   3.893  19.799  0.00  0.00    +0.000 A 
ATOM      3  S   UNL     1       4.579   3.225  19.349  0.00  0.00    +0.000 S 
ATOM      4  C   UNL     1       5.169   4.803  19.005  0.00  0.00    +0.000 A 
ATOM      5  N   UNL     1       4.318   5.783  19.239  0.00  0.00    +0.000 NA
ENDROOT
BRANCH   1   6
ATOM      6  C   UNL     1       2.001   6.228  20.049  0.00  0.00    +0.000 C 
BRANCH   6   7
ATOM      7  O   UNL     1       2.235   7.542  19.525  0.00  0.00    +0.000 OA
BRANCH   7  12
ATOM      8  C   UNL     1      -0.772  11.413  22.272  0.00  0.00    +0.000 C 
ATOM      9  C   UNL     1       0.037  10.361  21.582  0.00  0.00    +0.000 A 
ATOM     10  C   UNL     1       0.501   9.222  22.241  0.00  0.00    +0.000 A 
ATOM     11  C   UNL     1       1.246   8.274  21.539  0.00  0.00    +0.000 A 
ATOM     12  C   UNL     1       1.502   8.502  20.197  0.00  0.00    +0.000 A 
ATOM     13  N   UNL     1       1.073   9.596  19.532  0.00  0.00    +0.000 NA
ATOM     14  C   UNL     1       0.355  10.496  20.236  0.00  0.00    +0.000 A 
ENDBRANCH   7  12
ENDBRANCH   6   7
ENDBRANCH   1   6
BRANCH   4  15
ATOM     15  C   UNL     1       6.568   5.009  18.552  0.00  0.00    +0.000 C 
BRANCH  15  16
ATOM     16  S   UNL     1       6.591   5.217  16.782  0.00  0.00    +0.000 S 
ATOM     17  C   UNL     1       5.177   4.318  16.183  0.00  0.00    +0.000 C 
ATOM     18  O   UNL     1       6.334   6.624  16.519  0.00  0.00    +0.000 OA
ATOM     19  O   UNL     1       7.785   4.597  16.238  0.00  0.00    +0.000 OA
ENDBRANCH  15  16
ENDBRANCH   4  15
TORSDOF 5
ENDMDL
MODEL 8
REMARK VINA RESULT:      -6.0      3.905      7.729
REMARK  Name = 
REMARK  7 active torsions:
REMARK  status: ('A' for Active; 'I' for Inactive)
REMARK    1  A    between atoms: C_1  and  C_2
REMARK    2  A    between atoms: C_5  and  O_6
REMARK    3  A    between atoms: O_6  and  C_7
REMARK    4  A    between atoms: C_7  and  C_8
REMARK    5  A    between atoms: C_11  and  C_12
REMARK    6  A    between atoms: C_12  and  S_13
REMARK    7  A    between atoms: S_13  and  C_14
REMARK                            x       y       z     vdW  Elec       q    Type
REMARK                         _______ _______ _______ _____ _____    ______ ____
ROOT
ATOM      1  C   UNL     1       3.202   5.443  19.019  0.00  0.00    +0.000 A 
ATOM      2  C   UNL     1       2.711   4.348  18.334  0.00  0.00    +0.000 A 
ATOM      3  S   UNL     1       3.977   3.536  17.520  0.00  0.00    +0.000 S 
ATOM      4  C   UNL     1       5.093   4.710  18.098  0.00  0.00    +0.000 A 
ATOM      5  N   UNL     1       4.576   5.637  18.880  0.00  0.00    +0.000 NA
ENDROOT
BRANCH   1   6
ATOM      6  C   UNL     1       2.424   6.377  19.902  0.00  0.00    +0.000 C 
BRANCH   6   7
ATOM      7  O   UNL     1       2.190   7.646  19.273  0.00  0.00    +0.000 OA
BRANCH   7  12
ATOM      8  C   UNL     1      -0.767  11.124  22.548  0.00  0.00    +0.000 C 
ATOM      9  C   UNL     1       0.005  10.222  21.638  0.00  0.00    +0.000 A 
ATOM     10  C   UNL     1       0.139  10.474  20.272  0.00  0.00    +0.000 A 
ATOM     11  C   UNL     1       0.877   9.597  19.479  0.00  0.00    +0.000 A 
ATOM     12  C   UNL     1       1.456   8.493  20.083  0.00  0.00    +0.000 A 
ATOM     13  N   UNL     1       1.341   8.217  21.399  0.00  0.00    +0.000 NA
ATOM     14  C   UNL     1       0.620   9.084  22.143  0.00  0.00    +0.000 A 
ENDBRANCH   7  12
ENDBRANCH   6   7
ENDBRANCH   1   6
BRANCH   4  15
ATOM     15  C   UNL     1       6.539   4.606  17.777  0.00  0.00    +0.000 C 
BRANCH  15  16
ATOM     16  S   UNL     1       6.894   5.572  16.323  0.00  0.00    +0.000 S 
ATOM     17  C   UNL     1       5.309   6.094  15.705  0.00  0.00    +0.000 C 
ATOM     18  O   UNL     1       7.583   6.771  16.771  0.00  0.00    +0.000 OA
ATOM     19  O   UNL     1       7.514   4.726  15.319  0.00  0.00    +0.000 OA
ENDBRANCH  15  16
ENDBRANCH   4  15
TORSDOF 5
ENDMDL
MODEL 9
REMARK VINA RESULT:      -6.0      1.252      1.562
REMARK  Name = 
REMARK  7 active torsions:
REMARK  status: ('A' for Active; 'I' for Inactive)
REMARK    1  A    between atoms: C_1  and  C_2
REMARK    2  A    between atoms: C_5  and  O_6
REMARK    3  A    between atoms: O_6  and  C_7
REMARK    4  A    between atoms: C_7  and  C_8
REMARK    5  A    between atoms: C_11  and  C_12
REMARK    6  A    between atoms: C_12  and  S_13
REMARK    7  A    between atoms: S_13  and  C_14
REMARK                            x       y       z     vdW  Elec       q    Type
REMARK                         _______ _______ _______ _____ _____    ______ ____
ROOT
ATOM      1  C   UNL     1       5.273   6.129  18.124  0.00  0.00    +0.000 A 
ATOM      2  C   UNL     1       4.421   7.046  17.539  0.00  0.00    +0.000 A 
ATOM      3  S   UNL     1       2.816   6.795  18.075  0.00  0.00    +0.000 S 
ATOM      4  C   UNL     1       3.347   5.461  19.022  0.00  0.00    +0.000 A 
ATOM      5  N   UNL     1       4.644   5.226  18.980  0.00  0.00    +0.000 NA
ENDROOT
BRANCH   1   6
ATOM      6  C   UNL     1       6.765   6.053  17.960  0.00  0.00    +0.000 C 
BRANCH   6   7
ATOM      7  O   UNL     1       7.200   4.745  17.561  0.00  0.00    +0.000 OA
BRANCH   7  12
ATOM      8  C   UNL     1       5.615   3.575  12.299  0.00  0.00    +0.000 C 
ATOM      9  C   UNL     1       6.073   3.911  13.683  0.00  0.00    +0.000 A 
ATOM     10  C   UNL     1       7.100   4.823  13.930  0.00  0.00    +0.000 A 
ATOM     11  C   UNL     1       7.477   5.099  15.244  0.00  0.00    +0.000 A 
ATOM     12  C   UNL     1       6.811   4.447  16.269  0.00  0.00    +0.000 A 
ATOM     13  N   UNL     1       5.818   3.555  16.064  0.00  0.00    +0.000 NA
ATOM     14  C   UNL     1       5.475   3.308  14.782  0.00  0.00    +0.000 A 
ENDBRANCH   7  12
ENDBRANCH   6   7
ENDBRANCH   1   6
BRANCH   4  15
ATOM     15  C   UNL     1       2.393   4.704  19.870  0.00  0.00    +0.000 C 
BRANCH  15  16
ATOM     16  S   UNL     1       1.669   3.386  18.914  0.00  0.00    +0.000 S 
ATOM     17  C   UNL     1       2.956   2.172  18.733  0.00  0.00    +0.000 C 
ATOM     18  O   UNL     1       0.638   2.782  19.742  0.00  0.00    +0.000 OA
ATOM     19  O   UNL     1       1.324   3.879  17.592  0.00  0.00    +0.000 OA
ENDBRANCH  15  16
ENDBRANCH   4  15
TORSDOF 5
ENDMDL
