MODEL 1
REMARK VINA RESULT:      -8.4      0.000      0.000
REMARK  Name = 
REMARK  10 active torsions:
REMARK  status: ('A' for Active; 'I' for Inactive)
REMARK    1  A    between atoms: C_1  and  C_2
REMARK    2  A    between atoms: N_4  and  C_5
REMARK    3  A    between atoms: C_10  and  N_11
REMARK    4  A    between atoms: C_12  and  C_14
REMARK    5  A    between atoms: C_14  and  C_15
REMARK    6  A    between atoms: C_15  and  C_16
REMARK    7  A    between atoms: N_17  and  N_18
REMARK    8  A    between atoms: C_19  and  C_21
REMARK    9  A    between atoms: N_23  and  C_24
REMARK   10  A    between atoms: C_30  and  C_31
REMARK                            x       y       z     vdW  Elec       q    Type
REMARK                         _______ _______ _______ _____ _____    ______ ____
ROOT
ATOM      1  C   UNL     1       7.804   7.248  18.187  0.00  0.00    +0.000 C 
ATOM      2  C   UNL     1       6.828   7.747  17.135  0.00  0.00    +0.000 C 
ATOM      3  N   UNL     1       8.614   8.037  18.842  0.00  0.00    +0.000 NA
ENDROOT
BRANCH   3   4
ATOM      4  N   UNL     1       8.671   9.328  18.406  0.00  0.00    +0.000 N 
ATOM      5  C   UNL     1       9.146  10.378  19.174  0.00  0.00    +0.000 C 
ATOM      6  O   UNL     1       9.596  10.348  20.306  0.00  0.00    +0.000 OA
ATOM      7  H   UNL     1       8.347   9.574  17.466  0.00  0.00    +0.000 HD
BRANCH   5   8
ATOM      8  C   UNL     1       9.047  11.686  18.382  0.00  0.00    +0.000 C 
ATOM      9  O   UNL     1       8.257  11.709  17.447  0.00  0.00    +0.000 OA
ATOM     10  N   UNL     1       9.909  12.691  18.802  0.00  0.00    +0.000 N 
ATOM     11  H   UNL     1      10.561  12.426  19.536  0.00  0.00    +0.000 HD
BRANCH  10  12
ATOM     12  C   UNL     1      10.019  13.985  18.225  0.00  0.00    +0.000 A 
ATOM     13  C   UNL     1      11.021  14.257  17.279  0.00  0.00    +0.000 A 
ATOM     14  C   UNL     1      11.163  15.519  16.708  0.00  0.00    +0.000 A 
ATOM     15  C   UNL     1      10.289  16.534  17.062  0.00  0.00    +0.000 A 
ATOM     16  C   UNL     1       9.270  16.286  17.985  0.00  0.00    +0.000 A 
ATOM     17 CL   UNL     1       8.227  17.622  18.342  0.00  0.00    +0.000 Cl
ATOM     18  C   UNL     1       9.119  15.018  18.593  0.00  0.00    +0.000 A 
ATOM     19  C   UNL     1       8.039  14.780  19.618  0.00  0.00    +0.000 C 
ENDBRANCH  10  12
ENDBRANCH   5   8
ENDBRANCH   3   4
BRANCH   1  20
ATOM     20  C   UNL     1       7.719   5.784  18.545  0.00  0.00    +0.000 C 
BRANCH  20  22
ATOM     21  N   UNL     1       5.447   4.875  18.854  0.00  0.00    +0.000 N 
ATOM     22  C   UNL     1       6.569   4.934  18.059  0.00  0.00    +0.000 C 
ATOM     23  O   UNL     1       6.703   4.364  16.974  0.00  0.00    +0.000 OA
ATOM     24  H   UNL     1       5.426   5.490  19.665  0.00  0.00    +0.000 HD
BRANCH  21  30
ATOM     25  C   UNL     1       3.114   4.722  18.127  0.00  0.00    +0.000 A 
ATOM     26  C   UNL     1       1.942   3.968  17.942  0.00  0.00    +0.000 A 
ATOM     27  C   UNL     1       1.918   2.606  18.233  0.00  0.00    +0.000 A 
ATOM     28  C   UNL     1       3.053   1.994  18.748  0.00  0.00    +0.000 A 
ATOM     29  C   UNL     1       4.218   2.739  18.953  0.00  0.00    +0.000 A 
ATOM     30  C   UNL     1       4.279   4.100  18.623  0.00  0.00    +0.000 A 
BRANCH  25  34
ATOM     31  C   UNL     1       2.604   8.431  17.831  0.00  0.00    +0.000 C 
ATOM     32  C   UNL     1       2.621   7.095  18.515  0.00  0.00    +0.000 C 
ATOM     33  O   UNL     1       2.267   6.980  19.685  0.00  0.00    +0.000 OA
ATOM     34  N   UNL     1       3.128   6.078  17.725  0.00  0.00    +0.000 N 
ATOM     35  H   UNL     1       3.687   6.333  16.919  0.00  0.00    +0.000 HD
ENDBRANCH  25  34
ENDBRANCH  21  30
ENDBRANCH  20  22
ENDBRANCH   1  20
TORSDOF 7
ENDMDL
MODEL 2
REMARK VINA RESULT:      -8.4      5.949      7.976
REMARK  Name = 
REMARK  10 active torsions:
REMARK  status: ('A' for Active; 'I' for Inactive)
REMARK    1  A    between atoms: C_1  and  C_2
REMARK    2  A    between atoms: N_4  and  C_5
REMARK    3  A    between atoms: C_10  and  N_11
REMARK    4  A    between atoms: C_12  and  C_14
REMARK    5  A    between atoms: C_14  and  C_15
REMARK    6  A    between atoms: C_15  and  C_16
REMARK    7  A    between atoms: N_17  and  N_18
REMARK    8  A    between atoms: C_19  and  C_21
REMARK    9  A    between atoms: N_23  and  C_24
REMARK   10  A    between atoms: C_30  and  C_31
REMARK                            x       y       z     vdW  Elec       q    Type
REMARK                         _______ _______ _______ _____ _____    ______ ____
ROOT
ATOM      1  C   UNL     1       2.281   4.029  19.931  0.00  0.00    +0.000 C 
ATOM      2  C   UNL     1       0.847   3.941  20.425  0.00  0.00    +0.000 C 
ATOM      3  N   UNL     1       2.993   5.122  19.998  0.00  0.00    +0.000 NA
ENDROOT
BRANCH   3   4
ATOM      4  N   UNL     1       2.324   6.248  20.375  0.00  0.00    +0.000 N 
ATOM      5  C   UNL     1       2.282   7.408  19.618  0.00  0.00    +0.000 C 
ATOM      6  O   UNL     1       2.786   7.622  18.530  0.00  0.00    +0.000 OA
ATOM      7  H   UNL     1       1.816   6.279  21.264  0.00  0.00    +0.000 HD
BRANCH   5   8
ATOM      8  C   UNL     1       1.462   8.476  20.349  0.00  0.00    +0.000 C 
ATOM      9  O   UNL     1       1.199   8.264  21.526  0.00  0.00    +0.000 OA
ATOM     10  N   UNL     1       1.074   9.555  19.564  0.00  0.00    +0.000 N 
ATOM     11  H   UNL     1       1.311   9.481  18.578  0.00  0.00    +0.000 HD
BRANCH  10  12
ATOM     12  C   UNL     1       0.299  10.663  20.002  0.00  0.00    +0.000 A 
ATOM     13  C   UNL     1       0.817  11.560  20.950  0.00  0.00    +0.000 A 
ATOM     14  C   UNL     1       0.075  12.646  21.410  0.00  0.00    +0.000 A 
ATOM     15  C   UNL     1      -1.199  12.864  20.913  0.00  0.00    +0.000 A 
ATOM     16  C   UNL     1      -1.731  11.999  19.954  0.00  0.00    +0.000 A 
ATOM     17 CL   UNL     1      -3.326  12.376  19.393  0.00  0.00    +0.000 Cl
ATOM     18  C   UNL     1      -1.004  10.879  19.488  0.00  0.00    +0.000 A 
ATOM     19  C   UNL     1      -1.612   9.933  18.483  0.00  0.00    +0.000 C 
ENDBRANCH  10  12
ENDBRANCH   5   8
ENDBRANCH   3   4
BRANCH   1  20
ATOM     20  C   UNL     1       2.912   2.742  19.457  0.00  0.00    +0.000 C 
BRANCH  20  22
ATOM     21  N   UNL     1       4.402   3.913  17.878  0.00  0.00    +0.000 N 
ATOM     22  C   UNL     1       3.818   2.723  18.249  0.00  0.00    +0.000 C 
ATOM     23  O   UNL     1       3.990   1.640  17.684  0.00  0.00    +0.000 OA
ATOM     24  H   UNL     1       4.267   4.705  18.503  0.00  0.00    +0.000 HD
BRANCH  21  30
ATOM     25  C   UNL     1       6.587   4.500  16.942  0.00  0.00    +0.000 A 
ATOM     26  C   UNL     1       7.404   4.769  15.831  0.00  0.00    +0.000 A 
ATOM     27  C   UNL     1       6.900   4.673  14.536  0.00  0.00    +0.000 A 
ATOM     28  C   UNL     1       5.565   4.344  14.342  0.00  0.00    +0.000 A 
ATOM     29  C   UNL     1       4.739   4.093  15.441  0.00  0.00    +0.000 A 
ATOM     30  C   UNL     1       5.237   4.138  16.751  0.00  0.00    +0.000 A 
BRANCH  25  34
ATOM     31  C   UNL     1       8.378   5.403  20.117  0.00  0.00    +0.000 C 
ATOM     32  C   UNL     1       7.690   5.654  18.806  0.00  0.00    +0.000 C 
ATOM     33  O   UNL     1       7.581   6.791  18.358  0.00  0.00    +0.000 OA
ATOM     34  N   UNL     1       7.162   4.510  18.235  0.00  0.00    +0.000 N 
ATOM     35  H   UNL     1       7.018   3.702  18.829  0.00  0.00    +0.000 HD
ENDBRANCH  25  34
ENDBRANCH  21  30
ENDBRANCH  20  22
ENDBRANCH   1  20
TORSDOF 7
ENDMDL
MODEL 3
REMARK VINA RESULT:      -8.2      5.170      7.526
REMARK  Name = 
REMARK  10 active torsions:
REMARK  status: ('A' for Active; 'I' for Inactive)
REMARK    1  A    between atoms: C_1  and  C_2
REMARK    2  A    between atoms: N_4  and  C_5
REMARK    3  A    between atoms: C_10  and  N_11
REMARK    4  A    between atoms: C_12  and  C_14
REMARK    5  A    between atoms: C_14  and  C_15
REMARK    6  A    between atoms: C_15  and  C_16
REMARK    7  A    between atoms: N_17  and  N_18
REMARK    8  A    between atoms: C_19  and  C_21
REMARK    9  A    between atoms: N_23  and  C_24
REMARK   10  A    between atoms: C_30  and  C_31
REMARK                            x       y       z     vdW  Elec       q    Type
REMARK                         _______ _______ _______ _____ _____    ______ ____
ROOT
ATOM      1  C   UNL     1       2.301   4.509  19.877  0.00  0.00    +0.000 C 
ATOM      2  C   UNL     1       0.871   4.467  20.389  0.00  0.00    +0.000 C 
ATOM      3  N   UNL     1       2.997   5.612  19.794  0.00  0.00    +0.000 NA
ENDROOT
BRANCH   3   4
ATOM      4  N   UNL     1       2.313   6.768  20.023  0.00  0.00    +0.000 N 
ATOM      5  C   UNL     1       2.213   7.799  19.104  0.00  0.00    +0.000 C 
ATOM      6  O   UNL     1       2.670   7.856  17.975  0.00  0.00    +0.000 OA
ATOM      7  H   UNL     1       1.839   6.923  20.918  0.00  0.00    +0.000 HD
BRANCH   5   8
ATOM      8  C   UNL     1       1.394   8.948  19.698  0.00  0.00    +0.000 C 
ATOM      9  O   UNL     1       1.186   8.915  20.904  0.00  0.00    +0.000 OA
ATOM     10  N   UNL     1       0.944   9.885  18.776  0.00  0.00    +0.000 N 
ATOM     11  H   UNL     1       1.142   9.666  17.803  0.00  0.00    +0.000 HD
BRANCH  10  12
ATOM     12  C   UNL     1       0.156  11.030  19.073  0.00  0.00    +0.000 A 
ATOM     13  C   UNL     1      -1.178  10.885  19.485  0.00  0.00    +0.000 A 
ATOM     14  C   UNL     1      -1.980  11.989  19.768  0.00  0.00    +0.000 A 
ATOM     15  C   UNL     1      -1.451  13.264  19.660  0.00  0.00    +0.000 A 
ATOM     16  C   UNL     1      -0.120  13.437  19.273  0.00  0.00    +0.000 A 
ATOM     17 CL   UNL     1       0.440  15.074  19.185  0.00  0.00    +0.000 Cl
ATOM     18  C   UNL     1       0.706  12.332  18.961  0.00  0.00    +0.000 A 
ATOM     19  C   UNL     1       2.128  12.540  18.504  0.00  0.00    +0.000 C 
ENDBRANCH  10  12
ENDBRANCH   5   8
ENDBRANCH   3   4
BRANCH   1  20
ATOM     20  C   UNL     1       2.947   3.180  19.572  0.00  0.00    +0.000 C 
BRANCH  20  22
ATOM     21  N   UNL     1       4.443   4.116  17.848  0.00  0.00    +0.000 N 
ATOM     22  C   UNL     1       3.806   3.000  18.342  0.00  0.00    +0.000 C 
ATOM     23  O   UNL     1       3.894   1.864  17.871  0.00  0.00    +0.000 OA
ATOM     24  H   UNL     1       4.377   4.966  18.404  0.00  0.00    +0.000 HD
BRANCH  21  30
ATOM     25  C   UNL     1       6.629   4.454  16.797  0.00  0.00    +0.000 A 
ATOM     26  C   UNL     1       7.420   4.575  15.642  0.00  0.00    +0.000 A 
ATOM     27  C   UNL     1       6.858   4.428  14.375  0.00  0.00    +0.000 A 
ATOM     28  C   UNL     1       5.495   4.197  14.252  0.00  0.00    +0.000 A 
ATOM     29  C   UNL     1       4.696   4.093  15.394  0.00  0.00    +0.000 A 
ATOM     30  C   UNL     1       5.248   4.191  16.680  0.00  0.00    +0.000 A 
BRANCH  25  34
ATOM     31  C   UNL     1       8.409   5.515  19.930  0.00  0.00    +0.000 C 
ATOM     32  C   UNL     1       7.633   5.700  18.658  0.00  0.00    +0.000 C 
ATOM     33  O   UNL     1       7.336   6.822  18.258  0.00  0.00    +0.000 OA
ATOM     34  N   UNL     1       7.254   4.509  18.065  0.00  0.00    +0.000 N 
ATOM     35  H   UNL     1       7.259   3.670  18.634  0.00  0.00    +0.000 HD
ENDBRANCH  25  34
ENDBRANCH  21  30
ENDBRANCH  20  22
ENDBRANCH   1  20
TORSDOF 7
ENDMDL
MODEL 4
REMARK VINA RESULT:      -8.1      0.847      1.445
REMARK  Name = 
REMARK  10 active torsions:
REMARK  status: ('A' for Active; 'I' for Inactive)
REMARK    1  A    between atoms: C_1  and  C_2
REMARK    2  A    between atoms: N_4  and  C_5
REMARK    3  A    between atoms: C_10  and  N_11
REMARK    4  A    between atoms: C_12  and  C_14
REMARK    5  A    between atoms: C_14  and  C_15
REMARK    6  A    between atoms: C_15  and  C_16
REMARK    7  A    between atoms: N_17  and  N_18
REMARK    8  A    between atoms: C_19  and  C_21
REMARK    9  A    between atoms: N_23  and  C_24
REMARK   10  A    between atoms: C_30  and  C_31
REMARK                            x       y       z     vdW  Elec       q    Type
REMARK                         _______ _______ _______ _____ _____    ______ ____
ROOT
ATOM      1  C   UNL     1       7.498   7.100  17.857  0.00  0.00    +0.000 C 
ATOM      2  C   UNL     1       6.363   7.658  17.015  0.00  0.00    +0.000 C 
ATOM      3  N   UNL     1       8.372   7.856  18.466  0.00  0.00    +0.000 NA
ENDROOT
BRANCH   3   4
ATOM      4  N   UNL     1       8.328   9.184  18.163  0.00  0.00    +0.000 N 
ATOM      5  C   UNL     1       8.985  10.162  18.892  0.00  0.00    +0.000 C 
ATOM      6  O   UNL     1       9.702  10.027  19.868  0.00  0.00    +0.000 OA
ATOM      7  H   UNL     1       7.782   9.517  17.363  0.00  0.00    +0.000 HD
BRANCH   5   8
ATOM      8  C   UNL     1       8.701  11.540  18.287  0.00  0.00    +0.000 C 
ATOM      9  O   UNL     1       8.041  11.567  17.256  0.00  0.00    +0.000 OA
ATOM     10  N   UNL     1       9.270  12.608  18.969  0.00  0.00    +0.000 N 
ATOM     11  H   UNL     1       9.872  12.354  19.749  0.00  0.00    +0.000 HD
BRANCH  10  12
ATOM     12  C   UNL     1       9.165  13.977  18.603  0.00  0.00    +0.000 A 
ATOM     13  C   UNL     1       7.958  14.670  18.789  0.00  0.00    +0.000 A 
ATOM     14  C   UNL     1       7.821  16.008  18.425  0.00  0.00    +0.000 A 
ATOM     15  C   UNL     1       8.900  16.684  17.881  0.00  0.00    +0.000 A 
ATOM     16  C   UNL     1      10.119  16.025  17.704  0.00  0.00    +0.000 A 
ATOM     17 CL   UNL     1      11.404  16.971  17.030  0.00  0.00    +0.000 Cl
ATOM     18  C   UNL     1      10.276  14.662  18.048  0.00  0.00    +0.000 A 
ATOM     19  C   UNL     1      11.587  13.955  17.811  0.00  0.00    +0.000 C 
ENDBRANCH  10  12
ENDBRANCH   5   8
ENDBRANCH   3   4
BRANCH   1  20
ATOM     20  C   UNL     1       7.508   5.606  18.069  0.00  0.00    +0.000 C 
BRANCH  20  22
ATOM     21  N   UNL     1       5.252   4.772  18.618  0.00  0.00    +0.000 N 
ATOM     22  C   UNL     1       6.300   4.767  17.725  0.00  0.00    +0.000 C 
ATOM     23  O   UNL     1       6.324   4.148  16.659  0.00  0.00    +0.000 OA
ATOM     24  H   UNL     1       5.318   5.421  19.399  0.00  0.00    +0.000 HD
BRANCH  21  30
ATOM     25  C   UNL     1       2.851   4.660  18.154  0.00  0.00    +0.000 A 
ATOM     26  C   UNL     1       1.652   3.929  18.107  0.00  0.00    +0.000 A 
ATOM     27  C   UNL     1       1.633   2.570  18.415  0.00  0.00    +0.000 A 
ATOM     28  C   UNL     1       2.806   1.940  18.808  0.00  0.00    +0.000 A 
ATOM     29  C   UNL     1       4.001   2.662  18.876  0.00  0.00    +0.000 A 
ATOM     30  C   UNL     1       4.052   4.019  18.526  0.00  0.00    +0.000 A 
BRANCH  25  34
ATOM     31  C   UNL     1       2.463   8.388  17.911  0.00  0.00    +0.000 C 
ATOM     32  C   UNL     1       2.555   7.056  18.598  0.00  0.00    +0.000 C 
ATOM     33  O   UNL     1       2.435   6.964  19.816  0.00  0.00    +0.000 OA
ATOM     34  N   UNL     1       2.847   6.012  17.738  0.00  0.00    +0.000 N 
ATOM     35  H   UNL     1       3.245   6.236  16.833  0.00  0.00    +0.000 HD
ENDBRANCH  25  34
ENDBRANCH  21  30
ENDBRANCH  20  22
ENDBRANCH   1  20
TORSDOF 7
ENDMDL
MODEL 5
REMARK VINA RESULT:      -8.0      6.591      9.896
REMARK  Name = 
REMARK  10 active torsions:
REMARK  status: ('A' for Active; 'I' for Inactive)
REMARK    1  A    between atoms: C_1  and  C_2
REMARK    2  A    between atoms: N_4  and  C_5
REMARK    3  A    between atoms: C_10  and  N_11
REMARK    4  A    between atoms: C_12  and  C_14
REMARK    5  A    between atoms: C_14  and  C_15
REMARK    6  A    between atoms: C_15  and  C_16
REMARK    7  A    between atoms: N_17  and  N_18
REMARK    8  A    between atoms: C_19  and  C_21
REMARK    9  A    between atoms: N_23  and  C_24
REMARK   10  A    between atoms: C_30  and  C_31
REMARK                            x       y       z     vdW  Elec       q    Type
REMARK                         _______ _______ _______ _____ _____    ______ ____
ROOT
ATOM      1  C   UNL     1       0.826  10.121  19.072  0.00  0.00    +0.000 C 
ATOM      2  C   UNL     1      -0.564  10.073  18.459  0.00  0.00    +0.000 C 
ATOM      3  N   UNL     1       1.085  10.711  20.208  0.00  0.00    +0.000 NA
ENDROOT
BRANCH   3   4
ATOM      4  N   UNL     1       0.071  11.448  20.742  0.00  0.00    +0.000 N 
ATOM      5  C   UNL     1       0.255  12.668  21.372  0.00  0.00    +0.000 C 
ATOM      6  O   UNL     1       1.292  13.287  21.538  0.00  0.00    +0.000 OA
ATOM      7  H   UNL     1      -0.896  11.111  20.701  0.00  0.00    +0.000 HD
BRANCH   5   8
ATOM      8  C   UNL     1      -1.091  13.205  21.869  0.00  0.00    +0.000 C 
ATOM      9  O   UNL     1      -1.179  14.416  22.027  0.00  0.00    +0.000 OA
ATOM     10  N   UNL     1      -2.051  12.234  22.124  0.00  0.00    +0.000 N 
ATOM     11  H   UNL     1      -1.733  11.273  22.026  0.00  0.00    +0.000 HD
BRANCH  10  12
ATOM     12  C   UNL     1      -3.366  12.475  22.604  0.00  0.00    +0.000 A 
ATOM     13  C   UNL     1      -3.631  12.465  23.984  0.00  0.00    +0.000 A 
ATOM     14  C   UNL     1      -4.913  12.681  24.483  0.00  0.00    +0.000 A 
ATOM     15  C   UNL     1      -5.956  12.930  23.608  0.00  0.00    +0.000 A 
ATOM     16  C   UNL     1      -5.718  12.966  22.231  0.00  0.00    +0.000 A 
ATOM     17 CL   UNL     1      -7.092  13.300  21.231  0.00  0.00    +0.000 Cl
ATOM     18  C   UNL     1      -4.429  12.729  21.700  0.00  0.00    +0.000 A 
ATOM     19  C   UNL     1      -4.199  12.731  20.210  0.00  0.00    +0.000 C 
ENDBRANCH  10  12
ENDBRANCH   5   8
ENDBRANCH   3   4
BRANCH   1  20
ATOM     20  C   UNL     1       1.903   9.337  18.362  0.00  0.00    +0.000 C 
BRANCH  20  22
ATOM     21  N   UNL     1       2.659   7.071  17.747  0.00  0.00    +0.000 N 
ATOM     22  C   UNL     1       2.194   7.904  18.739  0.00  0.00    +0.000 C 
ATOM     23  O   UNL     1       2.015   7.578  19.915  0.00  0.00    +0.000 OA
ATOM     24  H   UNL     1       2.874   7.502  16.850  0.00  0.00    +0.000 HD
BRANCH  21  30
ATOM     25  C   UNL     1       4.280   5.251  17.972  0.00  0.00    +0.000 A 
ATOM     26  C   UNL     1       4.568   3.877  18.039  0.00  0.00    +0.000 A 
ATOM     27  C   UNL     1       3.545   2.931  18.007  0.00  0.00    +0.000 A 
ATOM     28  C   UNL     1       2.229   3.351  17.870  0.00  0.00    +0.000 A 
ATOM     29  C   UNL     1       1.933   4.714  17.785  0.00  0.00    +0.000 A 
ATOM     30  C   UNL     1       2.942   5.684  17.862  0.00  0.00    +0.000 A 
BRANCH  25  34
ATOM     31  C   UNL     1       7.296   7.429  17.453  0.00  0.00    +0.000 C 
ATOM     32  C   UNL     1       6.150   6.546  17.050  0.00  0.00    +0.000 C 
ATOM     33  O   UNL     1       5.960   6.255  15.872  0.00  0.00    +0.000 OA
ATOM     34  N   UNL     1       5.338   6.180  18.108  0.00  0.00    +0.000 N 
ATOM     35  H   UNL     1       5.387   6.729  18.959  0.00  0.00    +0.000 HD
ENDBRANCH  25  34
ENDBRANCH  21  30
ENDBRANCH  20  22
ENDBRANCH   1  20
TORSDOF 7
ENDMDL
MODEL 6
REMARK VINA RESULT:      -7.9      6.533      9.257
REMARK  Name = 
REMARK  10 active torsions:
REMARK  status: ('A' for Active; 'I' for Inactive)
REMARK    1  A    between atoms: C_1  and  C_2
REMARK    2  A    between atoms: N_4  and  C_5
REMARK    3  A    between atoms: C_10  and  N_11
REMARK    4  A    between atoms: C_12  and  C_14
REMARK    5  A    between atoms: C_14  and  C_15
REMARK    6  A    between atoms: C_15  and  C_16
REMARK    7  A    between atoms: N_17  and  N_18
REMARK    8  A    between atoms: C_19  and  C_21
REMARK    9  A    between atoms: N_23  and  C_24
REMARK   10  A    between atoms: C_30  and  C_31
REMARK                            x       y       z     vdW  Elec       q    Type
REMARK                         _______ _______ _______ _____ _____    ______ ____
ROOT
ATOM      1  C   UNL     1       1.542   8.164  19.898  0.00  0.00    +0.000 C 
ATOM      2  C   UNL     1       0.701   8.456  21.129  0.00  0.00    +0.000 C 
ATOM      3  N   UNL     1       1.539   8.924  18.835  0.00  0.00    +0.000 NA
ENDROOT
BRANCH   3   4
ATOM      4  N   UNL     1       0.598   9.909  18.808  0.00  0.00    +0.000 N 
ATOM      5  C   UNL     1       0.897  11.255  18.674  0.00  0.00    +0.000 C 
ATOM      6  O   UNL     1       1.989  11.780  18.541  0.00  0.00    +0.000 OA
ATOM      7  H   UNL     1      -0.397   9.681  18.896  0.00  0.00    +0.000 HD
BRANCH   5   8
ATOM      8  C   UNL     1      -0.394  12.080  18.704  0.00  0.00    +0.000 C 
ATOM      9  O   UNL     1      -0.326  13.229  18.289  0.00  0.00    +0.000 OA
ATOM     10  N   UNL     1      -1.493  11.427  19.247  0.00  0.00    +0.000 N 
ATOM     11  H   UNL     1      -1.304  10.504  19.631  0.00  0.00    +0.000 HD
BRANCH  10  12
ATOM     12  C   UNL     1      -2.794  11.979  19.399  0.00  0.00    +0.000 A 
ATOM     13  C   UNL     1      -3.052  12.917  20.412  0.00  0.00    +0.000 A 
ATOM     14  C   UNL     1      -4.320  13.463  20.596  0.00  0.00    +0.000 A 
ATOM     15  C   UNL     1      -5.355  13.091  19.754  0.00  0.00    +0.000 A 
ATOM     16  C   UNL     1      -5.122  12.176  18.724  0.00  0.00    +0.000 A 
ATOM     17 CL   UNL     1      -6.483  11.795  17.724  0.00  0.00    +0.000 Cl
ATOM     18  C   UNL     1      -3.847  11.593  18.532  0.00  0.00    +0.000 A 
ATOM     19  C   UNL     1      -3.625  10.575  17.442  0.00  0.00    +0.000 C 
ENDBRANCH  10  12
ENDBRANCH   5   8
ENDBRANCH   3   4
BRANCH   1  20
ATOM     20  C   UNL     1       2.498   7.001  19.995  0.00  0.00    +0.000 C 
BRANCH  20  22
ATOM     21  N   UNL     1       4.265   6.254  18.443  0.00  0.00    +0.000 N 
ATOM     22  C   UNL     1       2.925   6.243  18.760  0.00  0.00    +0.000 C 
ATOM     23  O   UNL     1       2.049   5.650  18.126  0.00  0.00    +0.000 OA
ATOM     24  H   UNL     1       4.892   6.685  19.118  0.00  0.00    +0.000 HD
BRANCH  21  30
ATOM     25  C   UNL     1       5.479   4.392  17.418  0.00  0.00    +0.000 A 
ATOM     26  C   UNL     1       6.126   3.823  16.308  0.00  0.00    +0.000 A 
ATOM     27  C   UNL     1       6.171   4.494  15.088  0.00  0.00    +0.000 A 
ATOM     28  C   UNL     1       5.604   5.756  14.979  0.00  0.00    +0.000 A 
ATOM     29  C   UNL     1       4.974   6.339  16.082  0.00  0.00    +0.000 A 
ATOM     30  C   UNL     1       4.876   5.662  17.306  0.00  0.00    +0.000 A 
BRANCH  25  34
ATOM     31  C   UNL     1       4.303   2.230  20.256  0.00  0.00    +0.000 C 
ATOM     32  C   UNL     1       4.283   2.819  18.875  0.00  0.00    +0.000 C 
ATOM     33  O   UNL     1       3.398   2.525  18.075  0.00  0.00    +0.000 OA
ATOM     34  N   UNL     1       5.368   3.636  18.609  0.00  0.00    +0.000 N 
ATOM     35  H   UNL     1       6.187   3.549  19.199  0.00  0.00    +0.000 HD
ENDBRANCH  25  34
ENDBRANCH  21  30
ENDBRANCH  20  22
ENDBRANCH   1  20
TORSDOF 7
ENDMDL
MODEL 7
REMARK VINA RESULT:      -7.8      6.412      9.089
REMARK  Name = 
REMARK  10 active torsions:
REMARK  status: ('A' for Active; 'I' for Inactive)
REMARK    1  A    between atoms: C_1  and  C_2
REMARK    2  A    between atoms: N_4  and  C_5
REMARK    3  A    between atoms: C_10  and  N_11
REMARK    4  A    between atoms: C_12  and  C_14
REMARK    5  A    between atoms: C_14  and  C_15
REMARK    6  A    between atoms: C_15  and  C_16
REMARK    7  A    between atoms: N_17  and  N_18
REMARK    8  A    between atoms: C_19  and  C_21
REMARK    9  A    between atoms: N_23  and  C_24
REMARK   10  A    between atoms: C_30  and  C_31
REMARK                            x       y       z     vdW  Elec       q    Type
REMARK                         _______ _______ _______ _____ _____    ______ ____
ROOT
ATOM      1  C   UNL     1       1.985   8.961  18.357  0.00  0.00    +0.000 C 
ATOM      2  C   UNL     1       1.268   8.722  19.675  0.00  0.00    +0.000 C 
ATOM      3  N   UNL     1       1.777  10.014  17.612  0.00  0.00    +0.000 NA
ENDROOT
BRANCH   3   4
ATOM      4  N   UNL     1       0.741  10.816  17.987  0.00  0.00    +0.000 N 
ATOM      5  C   UNL     1       0.901  12.093  18.498  0.00  0.00    +0.000 C 
ATOM      6  O   UNL     1       1.934  12.714  18.677  0.00  0.00    +0.000 OA
ATOM      7  H   UNL     1      -0.227  10.487  17.908  0.00  0.00    +0.000 HD
BRANCH   5   8
ATOM      8  C   UNL     1      -0.467  12.695  18.831  0.00  0.00    +0.000 C 
ATOM      9  O   UNL     1      -0.533  13.916  18.900  0.00  0.00    +0.000 OA
ATOM     10  N   UNL     1      -1.476  11.768  19.059  0.00  0.00    +0.000 N 
ATOM     11  H   UNL     1      -1.180  10.795  19.054  0.00  0.00    +0.000 HD
BRANCH  10  12
ATOM     12  C   UNL     1      -2.822  12.072  19.398  0.00  0.00    +0.000 A 
ATOM     13  C   UNL     1      -3.120  12.715  20.611  0.00  0.00    +0.000 A 
ATOM     14  C   UNL     1      -4.430  13.012  20.978  0.00  0.00    +0.000 A 
ATOM     15  C   UNL     1      -5.471  12.684  20.125  0.00  0.00    +0.000 A 
ATOM     16  C   UNL     1      -5.202  12.063  18.902  0.00  0.00    +0.000 A 
ATOM     17 CL   UNL     1      -6.577  11.713  17.909  0.00  0.00    +0.000 Cl
ATOM     18  C   UNL     1      -3.881  11.734  18.518  0.00  0.00    +0.000 A 
ATOM     19  C   UNL     1      -3.613  11.026  17.214  0.00  0.00    +0.000 C 
ENDBRANCH  10  12
ENDBRANCH   5   8
ENDBRANCH   3   4
BRANCH   1  20
ATOM     20  C   UNL     1       3.064   7.972  17.988  0.00  0.00    +0.000 C 
BRANCH  20  22
ATOM     21  N   UNL     1       2.707   5.550  17.690  0.00  0.00    +0.000 N 
ATOM     22  C   UNL     1       3.052   6.569  18.548  0.00  0.00    +0.000 C 
ATOM     23  O   UNL     1       3.370   6.426  19.730  0.00  0.00    +0.000 OA
ATOM     24  H   UNL     1       2.583   5.797  16.710  0.00  0.00    +0.000 HD
BRANCH  21  30
ATOM     25  C   UNL     1       3.639   3.287  17.737  0.00  0.00    +0.000 A 
ATOM     26  C   UNL     1       3.496   1.915  18.010  0.00  0.00    +0.000 A 
ATOM     27  C   UNL     1       2.318   1.417  18.562  0.00  0.00    +0.000 A 
ATOM     28  C   UNL     1       1.259   2.280  18.808  0.00  0.00    +0.000 A 
ATOM     29  C   UNL     1       1.383   3.643  18.523  0.00  0.00    +0.000 A 
ATOM     30  C   UNL     1       2.576   4.173  18.012  0.00  0.00    +0.000 A 
BRANCH  25  34
ATOM     31  C   UNL     1       7.046   4.833  17.407  0.00  0.00    +0.000 C 
ATOM     32  C   UNL     1       5.868   4.238  18.124  0.00  0.00    +0.000 C 
ATOM     33  O   UNL     1       5.854   4.146  19.348  0.00  0.00    +0.000 OA
ATOM     34  N   UNL     1       4.885   3.767  17.272  0.00  0.00    +0.000 N 
ATOM     35  H   UNL     1       5.135   3.592  16.305  0.00  0.00    +0.000 HD
ENDBRANCH  25  34
ENDBRANCH  21  30
ENDBRANCH  20  22
ENDBRANCH   1  20
TORSDOF 7
ENDMDL
MODEL 8
REMARK VINA RESULT:      -7.8      5.465      8.577
REMARK  Name = 
REMARK  10 active torsions:
REMARK  status: ('A' for Active; 'I' for Inactive)
REMARK    1  A    between atoms: C_1  and  C_2
REMARK    2  A    between atoms: N_4  and  C_5
REMARK    3  A    between atoms: C_10  and  N_11
REMARK    4  A    between atoms: C_12  and  C_14
REMARK    5  A    between atoms: C_14  and  C_15
REMARK    6  A    between atoms: C_15  and  C_16
REMARK    7  A    between atoms: N_17  and  N_18
REMARK    8  A    between atoms: C_19  and  C_21
REMARK    9  A    between atoms: N_23  and  C_24
REMARK   10  A    between atoms: C_30  and  C_31
REMARK                            x       y       z     vdW  Elec       q    Type
REMARK                         _______ _______ _______ _____ _____    ______ ____
ROOT
ATOM      1  C   UNL     1       2.558   5.363  19.692  0.00  0.00    +0.000 C 
ATOM      2  C   UNL     1       1.348   4.695  20.321  0.00  0.00    +0.000 C 
ATOM      3  N   UNL     1       2.811   6.639  19.813  0.00  0.00    +0.000 NA
ENDROOT
BRANCH   3   4
ATOM      4  N   UNL     1       1.831   7.391  20.389  0.00  0.00    +0.000 N 
ATOM      5  C   UNL     1       1.378   8.593  19.870  0.00  0.00    +0.000 C 
ATOM      6  O   UNL     1       1.732   9.161  18.852  0.00  0.00    +0.000 OA
ATOM      7  H   UNL     1       1.384   7.085  21.259  0.00  0.00    +0.000 HD
BRANCH   5   8
ATOM      8  C   UNL     1       0.291   9.175  20.780  0.00  0.00    +0.000 C 
ATOM      9  O   UNL     1      -0.263   8.398  21.547  0.00  0.00    +0.000 OA
ATOM     10  N   UNL     1       0.032  10.526  20.592  0.00  0.00    +0.000 N 
ATOM     11  H   UNL     1       0.537  10.962  19.823  0.00  0.00    +0.000 HD
BRANCH  10  12
ATOM     12  C   UNL     1      -0.935  11.292  21.297  0.00  0.00    +0.000 A 
ATOM     13  C   UNL     1      -0.900  11.359  22.700  0.00  0.00    +0.000 A 
ATOM     14  C   UNL     1      -1.843  12.088  23.420  0.00  0.00    +0.000 A 
ATOM     15  C   UNL     1      -2.834  12.781  22.745  0.00  0.00    +0.000 A 
ATOM     16  C   UNL     1      -2.881  12.748  21.349  0.00  0.00    +0.000 A 
ATOM     17 CL   UNL     1      -4.154  13.662  20.610  0.00  0.00    +0.000 Cl
ATOM     18  C   UNL     1      -1.946  11.998  20.598  0.00  0.00    +0.000 A 
ATOM     19  C   UNL     1      -2.037  11.940  19.094  0.00  0.00    +0.000 C 
ENDBRANCH  10  12
ENDBRANCH   5   8
ENDBRANCH   3   4
BRANCH   1  20
ATOM     20  C   UNL     1       3.549   4.455  19.006  0.00  0.00    +0.000 C 
BRANCH  20  22
ATOM     21  N   UNL     1       5.017   3.933  17.093  0.00  0.00    +0.000 N 
ATOM     22  C   UNL     1       4.124   4.817  17.657  0.00  0.00    +0.000 C 
ATOM     23  O   UNL     1       3.743   5.869  17.140  0.00  0.00    +0.000 OA
ATOM     24  H   UNL     1       5.150   3.046  17.575  0.00  0.00    +0.000 HD
BRANCH  21  30
ATOM     25  C   UNL     1       6.899   4.865  15.837  0.00  0.00    +0.000 A 
ATOM     26  C   UNL     1       7.571   5.067  14.619  0.00  0.00    +0.000 A 
ATOM     27  C   UNL     1       7.090   4.505  13.438  0.00  0.00    +0.000 A 
ATOM     28  C   UNL     1       5.913   3.770  13.458  0.00  0.00    +0.000 A 
ATOM     29  C   UNL     1       5.227   3.578  14.661  0.00  0.00    +0.000 A 
ATOM     30  C   UNL     1       5.718   4.094  15.869  0.00  0.00    +0.000 A 
BRANCH  25  34
ATOM     31  C   UNL     1       8.154   7.033  18.636  0.00  0.00    +0.000 C 
ATOM     32  C   UNL     1       7.342   6.687  17.421  0.00  0.00    +0.000 C 
ATOM     33  O   UNL     1       6.602   7.515  16.899  0.00  0.00    +0.000 OA
ATOM     34  N   UNL     1       7.474   5.367  17.028  0.00  0.00    +0.000 N 
ATOM     35  H   UNL     1       7.836   4.702  17.702  0.00  0.00    +0.000 HD
ENDBRANCH  25  34
ENDBRANCH  21  30
ENDBRANCH  20  22
ENDBRANCH   1  20
TORSDOF 7
ENDMDL
MODEL 9
REMARK VINA RESULT:      -7.8      6.660     10.856
REMARK  Name = 
REMARK  10 active torsions:
REMARK  status: ('A' for Active; 'I' for Inactive)
REMARK    1  A    between atoms: C_1  and  C_2
REMARK    2  A    between atoms: N_4  and  C_5
REMARK    3  A    between atoms: C_10  and  N_11
REMARK    4  A    between atoms: C_12  and  C_14
REMARK    5  A    between atoms: C_14  and  C_15
REMARK    6  A    between atoms: C_15  and  C_16
REMARK    7  A    between atoms: N_17  and  N_18
REMARK    8  A    between atoms: C_19  and  C_21
REMARK    9  A    between atoms: N_23  and  C_24
REMARK   10  A    between atoms: C_30  and  C_31
REMARK                            x       y       z     vdW  Elec       q    Type
REMARK                         _______ _______ _______ _____ _____    ______ ____
ROOT
ATOM      1  C   UNL     1       0.058  12.125  19.076  0.00  0.00    +0.000 C 
ATOM      2  C   UNL     1       1.508  12.511  18.838  0.00  0.00    +0.000 C 
ATOM      3  N   UNL     1      -0.384  10.902  18.957  0.00  0.00    +0.000 NA
ENDROOT
BRANCH   3   4
ATOM      4  N   UNL     1       0.491  10.000  18.428  0.00  0.00    +0.000 N 
ATOM      5  C   UNL     1       1.257   9.133  19.189  0.00  0.00    +0.000 C 
ATOM      6  O   UNL     1       1.278   9.004  20.401  0.00  0.00    +0.000 OA
ATOM      7  H   UNL     1       0.621   9.935  17.414  0.00  0.00    +0.000 HD
BRANCH   5   8
ATOM      8  C   UNL     1       2.140   8.279  18.274  0.00  0.00    +0.000 C 
ATOM      9  O   UNL     1       2.467   8.772  17.202  0.00  0.00    +0.000 OA
ATOM     10  N   UNL     1       2.434   7.012  18.761  0.00  0.00    +0.000 N 
ATOM     11  H   UNL     1       1.971   6.763  19.632  0.00  0.00    +0.000 HD
BRANCH  10  12
ATOM     12  C   UNL     1       3.218   6.030  18.097  0.00  0.00    +0.000 A 
ATOM     13  C   UNL     1       4.334   6.410  17.334  0.00  0.00    +0.000 A 
ATOM     14  C   UNL     1       5.112   5.472  16.659  0.00  0.00    +0.000 A 
ATOM     15  C   UNL     1       4.795   4.127  16.750  0.00  0.00    +0.000 A 
ATOM     16  C   UNL     1       3.702   3.718  17.519  0.00  0.00    +0.000 A 
ATOM     17 CL   UNL     1       3.407   2.012  17.573  0.00  0.00    +0.000 Cl
ATOM     18  C   UNL     1       2.886   4.655  18.196  0.00  0.00    +0.000 A 
ATOM     19  C   UNL     1       1.686   4.199  18.987  0.00  0.00    +0.000 C 
ENDBRANCH  10  12
ENDBRANCH   5   8
ENDBRANCH   3   4
BRANCH   1  20
ATOM     20  C   UNL     1      -0.855  13.214  19.586  0.00  0.00    +0.000 C 
BRANCH  20  22
ATOM     21  N   UNL     1      -3.116  12.438  18.979  0.00  0.00    +0.000 N 
ATOM     22  C   UNL     1      -2.284  12.911  19.969  0.00  0.00    +0.000 C 
ATOM     23  O   UNL     1      -2.607  13.088  21.145  0.00  0.00    +0.000 OA
ATOM     24  H   UNL     1      -2.687  12.227  18.081  0.00  0.00    +0.000 HD
BRANCH  21  30
ATOM     25  C   UNL     1      -5.202  11.621  17.992  0.00  0.00    +0.000 A 
ATOM     26  C   UNL     1      -6.582  11.372  18.091  0.00  0.00    +0.000 A 
ATOM     27  C   UNL     1      -7.268  11.625  19.277  0.00  0.00    +0.000 A 
ATOM     28  C   UNL     1      -6.589  12.164  20.361  0.00  0.00    +0.000 A 
ATOM     29  C   UNL     1      -5.220  12.433  20.267  0.00  0.00    +0.000 A 
ATOM     30  C   UNL     1      -4.501  12.143  19.099  0.00  0.00    +0.000 A 
BRANCH  25  34
ATOM     31  C   UNL     1      -2.874  10.142  15.443  0.00  0.00    +0.000 C 
ATOM     32  C   UNL     1      -3.568  10.258  16.769  0.00  0.00    +0.000 C 
ATOM     33  O   UNL     1      -3.318   9.477  17.683  0.00  0.00    +0.000 OA
ATOM     34  N   UNL     1      -4.524  11.258  16.805  0.00  0.00    +0.000 N 
ATOM     35  H   UNL     1      -4.877  11.613  15.924  0.00  0.00    +0.000 HD
ENDBRANCH  25  34
ENDBRANCH  21  30
ENDBRANCH  20  22
ENDBRANCH   1  20
TORSDOF 7
ENDMDL
