MODEL 1
REMARK VINA RESULT:      -7.7      0.000      0.000
REMARK  Name = 
REMARK  15 active torsions:
REMARK  status: ('A' for Active; 'I' for Inactive)
REMARK    1  A    between atoms: C_1  and  O_2
REMARK    2  A    between atoms: O_2  and  C_3
REMARK    3  A    between atoms: C_3  and  C_4
REMARK    4  A    between atoms: C_4  and  N_5
REMARK    5  A    between atoms: N_5  and  C_6
REMARK    6  A    between atoms: N_5  and  S_24
REMARK    7  A    between atoms: C_6  and  C_7
REMARK    8  A    between atoms: C_6  and  C_8
REMARK    9  A    between atoms: N_10  and  C_11
REMARK   10  A    between atoms: C_11  and  C_12
REMARK   11  A    between atoms: C_11  and  C_18
REMARK   12  A    between atoms: C_12  and  N_13
REMARK   13  A    between atoms: S_24  and  C_27
REMARK   14  A    between atoms: C_28  and  C_29
REMARK   15  A    between atoms: C_32  and  C_33
REMARK                            x       y       z     vdW  Elec       q    Type
REMARK                         _______ _______ _______ _____ _____    ______ ____
ROOT
ATOM      1  C   UNL     1       1.113   9.832  19.691  0.00  0.00    +0.000 C 
ATOM      2  C   UNL     1       0.494   9.070  20.885  0.00  0.00    +0.000 C 
ENDROOT
BRANCH   1   3
ATOM      3  C   UNL     1       1.798   8.811  18.712  0.00  0.00    +0.000 C 
ATOM      4  O   UNL     1       1.855   9.021  17.506  0.00  0.00    +0.000 OA
ATOM      5  N   UNL     1       2.211   7.584  19.255  0.00  0.00    +0.000 N 
ATOM      6  H   UNL     1       2.234   7.463  20.256  0.00  0.00    +0.000 HD
BRANCH   5   7
ATOM      7  C   UNL     1       2.589   6.411  18.413  0.00  0.00    +0.000 C 
BRANCH   7   8
ATOM      8  C   UNL     1       2.006   5.067  18.901  0.00  0.00    +0.000 A 
ATOM      9  C   UNL     1       1.752   4.817  20.256  0.00  0.00    +0.000 A 
ATOM     10  C   UNL     1       1.283   3.569  20.684  0.00  0.00    +0.000 A 
ATOM     11  C   UNL     1       1.046   2.547  19.769  0.00  0.00    +0.000 A 
ATOM     12  C   UNL     1       1.230   2.786  18.414  0.00  0.00    +0.000 A 
ATOM     13  C   UNL     1       1.675   4.041  17.984  0.00  0.00    +0.000 A 
ENDBRANCH   7   8
BRANCH   7  14
ATOM     14  C   UNL     1       4.142   6.332  18.107  0.00  0.00    +0.000 C 
BRANCH  14  15
ATOM     15  N   UNL     1       4.955   5.091  18.234  0.00  0.00    +0.000 NA
ATOM     16  C   UNL     1       6.003   5.307  19.265  0.00  0.00    +0.000 C 
ATOM     17  C   UNL     1       7.209   5.843  18.507  0.00  0.00    +0.000 C 
ATOM     18  C   UNL     1       7.188   5.012  17.245  0.00  0.00    +0.000 C 
ATOM     19  C   UNL     1       5.713   4.645  17.051  0.00  0.00    +0.000 C 
ENDBRANCH  14  15
ENDBRANCH   7  14
ENDBRANCH   5   7
ENDBRANCH   1   3
BRANCH   1  20
ATOM     20  N   UNL     1       0.125  10.827  19.104  0.00  0.00    +0.000 NA
BRANCH  20  21
ATOM     21  S   UNL     1       0.798  12.415  18.834  0.00  0.00    +0.000 S 
ATOM     22  O   UNL     1       2.111  12.269  18.274  0.00  0.00    +0.000 OA
ATOM     23  O   UNL     1      -0.228  13.220  18.196  0.00  0.00    +0.000 OA
BRANCH  21  24
ATOM     24  C   UNL     1       1.036  13.201  20.327  0.00  0.00    +0.000 A 
ATOM     25  C   UNL     1       0.095  13.332  21.373  0.00  0.00    +0.000 A 
ATOM     26  C   UNL     1      -1.308  12.871  21.453  0.00  0.00    +0.000 C 
ATOM     27  N   UNL     1       0.615  14.025  22.396  0.00  0.00    +0.000 NA
ATOM     28  O   UNL     1       1.897  14.363  22.020  0.00  0.00    +0.000 OA
ATOM     29  C   UNL     1       2.150  13.877  20.772  0.00  0.00    +0.000 A 
ATOM     30  C   UNL     1       3.474  14.214  20.215  0.00  0.00    +0.000 C 
ENDBRANCH  21  24
ENDBRANCH  20  21
BRANCH  20  31
ATOM     31  C   UNL     1      -0.628  10.380  17.860  0.00  0.00    +0.000 C 
BRANCH  31  32
ATOM     32  C   UNL     1      -2.155  10.296  17.901  0.00  0.00    +0.000 C 
BRANCH  32  34
ATOM     33  C   UNL     1      -4.166  11.449  18.275  0.00  0.00    +0.000 C 
ATOM     34  O   UNL     1      -2.756  11.439  18.508  0.00  0.00    +0.000 OA
ENDBRANCH  32  34
ENDBRANCH  31  32
ENDBRANCH  20  31
ENDBRANCH   1  20
TORSDOF 11
ENDMDL
MODEL 2
REMARK VINA RESULT:      -7.5      0.635      1.283
REMARK  Name = 
REMARK  15 active torsions:
REMARK  status: ('A' for Active; 'I' for Inactive)
REMARK    1  A    between atoms: C_1  and  O_2
REMARK    2  A    between atoms: O_2  and  C_3
REMARK    3  A    between atoms: C_3  and  C_4
REMARK    4  A    between atoms: C_4  and  N_5
REMARK    5  A    between atoms: N_5  and  C_6
REMARK    6  A    between atoms: N_5  and  S_24
REMARK    7  A    between atoms: C_6  and  C_7
REMARK    8  A    between atoms: C_6  and  C_8
REMARK    9  A    between atoms: N_10  and  C_11
REMARK   10  A    between atoms: C_11  and  C_12
REMARK   11  A    between atoms: C_11  and  C_18
REMARK   12  A    between atoms: C_12  and  N_13
REMARK   13  A    between atoms: S_24  and  C_27
REMARK   14  A    between atoms: C_28  and  C_29
REMARK   15  A    between atoms: C_32  and  C_33
REMARK                            x       y       z     vdW  Elec       q    Type
REMARK                         _______ _______ _______ _____ _____    ______ ____
ROOT
ATOM      1  C   UNL     1       1.075   9.670  19.731  0.00  0.00    +0.000 C 
ATOM      2  C   UNL     1       0.413   8.874  20.879  0.00  0.00    +0.000 C 
ENDROOT
BRANCH   1   3
ATOM      3  C   UNL     1       1.901   8.692  18.819  0.00  0.00    +0.000 C 
ATOM      4  O   UNL     1       2.030   8.895  17.617  0.00  0.00    +0.000 OA
ATOM      5  N   UNL     1       2.361   7.504  19.409  0.00  0.00    +0.000 N 
ATOM      6  H   UNL     1       2.320   7.396  20.411  0.00  0.00    +0.000 HD
BRANCH   5   7
ATOM      7  C   UNL     1       2.884   6.354  18.614  0.00  0.00    +0.000 C 
BRANCH   7   8
ATOM      8  C   UNL     1       2.189   5.009  18.916  0.00  0.00    +0.000 A 
ATOM      9  C   UNL     1       2.023   4.023  17.935  0.00  0.00    +0.000 A 
ATOM     10  C   UNL     1       1.334   2.836  18.215  0.00  0.00    +0.000 A 
ATOM     11  C   UNL     1       0.805   2.603  19.481  0.00  0.00    +0.000 A 
ATOM     12  C   UNL     1       1.009   3.534  20.490  0.00  0.00    +0.000 A 
ATOM     13  C   UNL     1       1.718   4.709  20.217  0.00  0.00    +0.000 A 
ENDBRANCH   7   8
BRANCH   7  14
ATOM     14  C   UNL     1       4.465   6.247  18.631  0.00  0.00    +0.000 C 
BRANCH  14  15
ATOM     15  N   UNL     1       5.333   6.557  17.461  0.00  0.00    +0.000 NA
ATOM     16  C   UNL     1       4.810   5.836  16.271  0.00  0.00    +0.000 C 
ATOM     17  C   UNL     1       5.530   4.496  16.264  0.00  0.00    +0.000 C 
ATOM     18  C   UNL     1       6.932   4.884  16.677  0.00  0.00    +0.000 C 
ATOM     19  C   UNL     1       6.746   6.144  17.529  0.00  0.00    +0.000 C 
ENDBRANCH  14  15
ENDBRANCH   7  14
ENDBRANCH   5   7
ENDBRANCH   1   3
BRANCH   1  20
ATOM     20  N   UNL     1       0.074  10.596  19.057  0.00  0.00    +0.000 NA
BRANCH  20  21
ATOM     21  S   UNL     1       0.651  12.230  18.848  0.00  0.00    +0.000 S 
ATOM     22  O   UNL     1       1.995  12.182  18.347  0.00  0.00    +0.000 OA
ATOM     23  O   UNL     1      -0.395  12.980  18.179  0.00  0.00    +0.000 OA
BRANCH  21  24
ATOM     24  C   UNL     1       0.771  12.997  20.366  0.00  0.00    +0.000 A 
ATOM     25  C   UNL     1      -0.201  12.995  21.392  0.00  0.00    +0.000 A 
ATOM     26  C   UNL     1      -1.546  12.381  21.427  0.00  0.00    +0.000 C 
ATOM     27  N   UNL     1       0.217  13.713  22.444  0.00  0.00    +0.000 NA
ATOM     28  O   UNL     1       1.462  14.199  22.107  0.00  0.00    +0.000 OA
ATOM     29  C   UNL     1       1.793  13.778  20.854  0.00  0.00    +0.000 A 
ATOM     30  C   UNL     1       3.084  14.273  20.337  0.00  0.00    +0.000 C 
ENDBRANCH  21  24
ENDBRANCH  20  21
BRANCH  20  31
ATOM     31  C   UNL     1      -0.530  10.103  17.751  0.00  0.00    +0.000 C 
BRANCH  31  32
ATOM     32  C   UNL     1      -2.035   9.836  17.677  0.00  0.00    +0.000 C 
BRANCH  32  34
ATOM     33  C   UNL     1      -3.690  11.497  17.572  0.00  0.00    +0.000 C 
ATOM     34  O   UNL     1      -2.802  10.775  18.428  0.00  0.00    +0.000 OA
ENDBRANCH  32  34
ENDBRANCH  31  32
ENDBRANCH  20  31
ENDBRANCH   1  20
TORSDOF 11
ENDMDL
MODEL 3
REMARK VINA RESULT:      -7.5      1.146      1.726
REMARK  Name = 
REMARK  15 active torsions:
REMARK  status: ('A' for Active; 'I' for Inactive)
REMARK    1  A    between atoms: C_1  and  O_2
REMARK    2  A    between atoms: O_2  and  C_3
REMARK    3  A    between atoms: C_3  and  C_4
REMARK    4  A    between atoms: C_4  and  N_5
REMARK    5  A    between atoms: N_5  and  C_6
REMARK    6  A    between atoms: N_5  and  S_24
REMARK    7  A    between atoms: C_6  and  C_7
REMARK    8  A    between atoms: C_6  and  C_8
REMARK    9  A    between atoms: N_10  and  C_11
REMARK   10  A    between atoms: C_11  and  C_12
REMARK   11  A    between atoms: C_11  and  C_18
REMARK   12  A    between atoms: C_12  and  N_13
REMARK   13  A    between atoms: S_24  and  C_27
REMARK   14  A    between atoms: C_28  and  C_29
REMARK   15  A    between atoms: C_32  and  C_33
REMARK                            x       y       z     vdW  Elec       q    Type
REMARK                         _______ _______ _______ _____ _____    ______ ____
ROOT
ATOM      1  C   UNL     1       0.824  10.002  19.601  0.00  0.00    +0.000 C 
ATOM      2  C   UNL     1       0.760   9.454  21.045  0.00  0.00    +0.000 C 
ENDROOT
BRANCH   1   3
ATOM      3  C   UNL     1       1.673   9.029  18.705  0.00  0.00    +0.000 C 
ATOM      4  O   UNL     1       1.864   9.258  17.516  0.00  0.00    +0.000 OA
ATOM      5  N   UNL     1       2.079   7.817  19.284  0.00  0.00    +0.000 N 
ATOM      6  H   UNL     1       1.988   7.684  20.280  0.00  0.00    +0.000 HD
BRANCH   5   7
ATOM      7  C   UNL     1       2.616   6.676  18.487  0.00  0.00    +0.000 C 
BRANCH   7   8
ATOM      8  C   UNL     1       2.041   5.299  18.885  0.00  0.00    +0.000 A 
ATOM      9  C   UNL     1       1.815   4.288  17.943  0.00  0.00    +0.000 A 
ATOM     10  C   UNL     1       1.234   3.070  18.316  0.00  0.00    +0.000 A 
ATOM     11  C   UNL     1       0.877   2.830  19.640  0.00  0.00    +0.000 A 
ATOM     12  C   UNL     1       1.147   3.789  20.607  0.00  0.00    +0.000 A 
ATOM     13  C   UNL     1       1.750   4.996  20.237  0.00  0.00    +0.000 A 
ENDBRANCH   7   8
BRANCH   7  14
ATOM     14  C   UNL     1       4.197   6.674  18.378  0.00  0.00    +0.000 C 
BRANCH  14  15
ATOM     15  N   UNL     1       4.944   6.770  17.094  0.00  0.00    +0.000 NA
ATOM     16  C   UNL     1       4.891   5.452  16.408  0.00  0.00    +0.000 C 
ATOM     17  C   UNL     1       6.119   4.696  16.896  0.00  0.00    +0.000 C 
ATOM     18  C   UNL     1       7.172   5.780  16.925  0.00  0.00    +0.000 C 
ATOM     19  C   UNL     1       6.385   7.073  17.161  0.00  0.00    +0.000 C 
ENDBRANCH  14  15
ENDBRANCH   7  14
ENDBRANCH   5   7
ENDBRANCH   1   3
BRANCH   1  20
ATOM     20  N   UNL     1      -0.557  10.403  19.105  0.00  0.00    +0.000 NA
BRANCH  20  21
ATOM     21  S   UNL     1      -0.864  12.120  19.180  0.00  0.00    +0.000 S 
ATOM     22  O   UNL     1      -0.136  12.763  18.123  0.00  0.00    +0.000 OA
ATOM     23  O   UNL     1      -2.293  12.300  19.353  0.00  0.00    +0.000 OA
BRANCH  21  24
ATOM     24  C   UNL     1      -0.213  12.758  20.620  0.00  0.00    +0.000 A 
ATOM     25  C   UNL     1      -0.758  12.640  21.918  0.00  0.00    +0.000 A 
ATOM     26  C   UNL     1      -2.003  11.984  22.371  0.00  0.00    +0.000 C 
ATOM     27  N   UNL     1       0.007  13.279  22.815  0.00  0.00    +0.000 NA
ATOM     28  O   UNL     1       1.052  13.830  22.105  0.00  0.00    +0.000 OA
ATOM     29  C   UNL     1       0.917  13.527  20.784  0.00  0.00    +0.000 A 
ATOM     30  C   UNL     1       1.941  14.104  19.891  0.00  0.00    +0.000 C 
ENDBRANCH  21  24
ENDBRANCH  20  21
BRANCH  20  31
ATOM     31  C   UNL     1      -0.964   9.877  17.737  0.00  0.00    +0.000 C 
BRANCH  31  32
ATOM     32  C   UNL     1      -2.441   9.894  17.339  0.00  0.00    +0.000 C 
BRANCH  32  34
ATOM     33  C   UNL     1      -3.116  10.798  15.280  0.00  0.00    +0.000 C 
ATOM     34  O   UNL     1      -2.643   9.629  15.951  0.00  0.00    +0.000 OA
ENDBRANCH  32  34
ENDBRANCH  31  32
ENDBRANCH  20  31
ENDBRANCH   1  20
TORSDOF 11
ENDMDL
MODEL 4
REMARK VINA RESULT:      -7.5      1.454      1.918
REMARK  Name = 
REMARK  15 active torsions:
REMARK  status: ('A' for Active; 'I' for Inactive)
REMARK    1  A    between atoms: C_1  and  O_2
REMARK    2  A    between atoms: O_2  and  C_3
REMARK    3  A    between atoms: C_3  and  C_4
REMARK    4  A    between atoms: C_4  and  N_5
REMARK    5  A    between atoms: N_5  and  C_6
REMARK    6  A    between atoms: N_5  and  S_24
REMARK    7  A    between atoms: C_6  and  C_7
REMARK    8  A    between atoms: C_6  and  C_8
REMARK    9  A    between atoms: N_10  and  C_11
REMARK   10  A    between atoms: C_11  and  C_12
REMARK   11  A    between atoms: C_11  and  C_18
REMARK   12  A    between atoms: C_12  and  N_13
REMARK   13  A    between atoms: S_24  and  C_27
REMARK   14  A    between atoms: C_28  and  C_29
REMARK   15  A    between atoms: C_32  and  C_33
REMARK                            x       y       z     vdW  Elec       q    Type
REMARK                         _______ _______ _______ _____ _____    ______ ____
ROOT
ATOM      1  C   UNL     1       0.868   9.429  20.599  0.00  0.00    +0.000 C 
ATOM      2  C   UNL     1       0.054   8.499  21.527  0.00  0.00    +0.000 C 
ENDROOT
BRANCH   1   3
ATOM      3  C   UNL     1       1.737   8.565  19.616  0.00  0.00    +0.000 C 
ATOM      4  O   UNL     1       1.936   8.918  18.459  0.00  0.00    +0.000 OA
ATOM      5  N   UNL     1       2.154   7.304  20.071  0.00  0.00    +0.000 N 
ATOM      6  H   UNL     1       2.054   7.068  21.047  0.00  0.00    +0.000 HD
BRANCH   5   7
ATOM      7  C   UNL     1       2.711   6.258  19.165  0.00  0.00    +0.000 C 
BRANCH   7   8
ATOM      8  C   UNL     1       2.086   4.858  19.354  0.00  0.00    +0.000 A 
ATOM      9  C   UNL     1       1.785   4.027  18.267  0.00  0.00    +0.000 A 
ATOM     10  C   UNL     1       1.160   2.789  18.457  0.00  0.00    +0.000 A 
ATOM     11  C   UNL     1       0.833   2.347  19.736  0.00  0.00    +0.000 A 
ATOM     12  C   UNL     1       1.177   3.121  20.836  0.00  0.00    +0.000 A 
ATOM     13  C   UNL     1       1.823   4.348  20.647  0.00  0.00    +0.000 A 
ENDBRANCH   7   8
BRANCH   7  14
ATOM     14  C   UNL     1       4.296   6.226  19.143  0.00  0.00    +0.000 C 
BRANCH  14  15
ATOM     15  N   UNL     1       5.104   5.798  17.968  0.00  0.00    +0.000 NA
ATOM     16  C   UNL     1       6.222   4.940  18.442  0.00  0.00    +0.000 C 
ATOM     17  C   UNL     1       7.378   5.894  18.705  0.00  0.00    +0.000 C 
ATOM     18  C   UNL     1       7.265   6.860  17.548  0.00  0.00    +0.000 C 
ATOM     19  C   UNL     1       5.777   6.848  17.182  0.00  0.00    +0.000 C 
ENDBRANCH  14  15
ENDBRANCH   7  14
ENDBRANCH   5   7
ENDBRANCH   1   3
BRANCH   1  20
ATOM     20  N   UNL     1      -0.013  10.516  20.002  0.00  0.00    +0.000 NA
BRANCH  20  21
ATOM     21  S   UNL     1       0.699  12.108  20.049  0.00  0.00    +0.000 S 
ATOM     22  O   UNL     1       1.636  12.161  21.134  0.00  0.00    +0.000 OA
ATOM     23  O   UNL     1       1.071  12.460  18.691  0.00  0.00    +0.000 OA
BRANCH  21  24
ATOM     24  C   UNL     1      -0.494  13.262  20.436  0.00  0.00    +0.000 A 
ATOM     25  C   UNL     1      -1.505  13.135  21.416  0.00  0.00    +0.000 A 
ATOM     26  C   UNL     1      -1.817  12.007  22.320  0.00  0.00    +0.000 C 
ATOM     27  N   UNL     1      -2.282  14.227  21.441  0.00  0.00    +0.000 NA
ATOM     28  O   UNL     1      -1.790  15.071  20.469  0.00  0.00    +0.000 OA
ATOM     29  C   UNL     1      -0.721  14.489  19.857  0.00  0.00    +0.000 A 
ATOM     30  C   UNL     1      -0.125  15.261  18.749  0.00  0.00    +0.000 C 
ENDBRANCH  21  24
ENDBRANCH  20  21
BRANCH  20  31
ATOM     31  C   UNL     1      -0.565  10.250  18.610  0.00  0.00    +0.000 C 
BRANCH  31  32
ATOM     32  C   UNL     1      -2.023  10.598  18.305  0.00  0.00    +0.000 C 
BRANCH  32  34
ATOM     33  C   UNL     1      -2.705  10.951  16.086  0.00  0.00    +0.000 C 
ATOM     34  O   UNL     1      -2.156  11.558  17.258  0.00  0.00    +0.000 OA
ENDBRANCH  32  34
ENDBRANCH  31  32
ENDBRANCH  20  31
ENDBRANCH   1  20
TORSDOF 11
ENDMDL
MODEL 5
REMARK VINA RESULT:      -7.4      1.794      3.167
REMARK  Name = 
REMARK  15 active torsions:
REMARK  status: ('A' for Active; 'I' for Inactive)
REMARK    1  A    between atoms: C_1  and  O_2
REMARK    2  A    between atoms: O_2  and  C_3
REMARK    3  A    between atoms: C_3  and  C_4
REMARK    4  A    between atoms: C_4  and  N_5
REMARK    5  A    between atoms: N_5  and  C_6
REMARK    6  A    between atoms: N_5  and  S_24
REMARK    7  A    between atoms: C_6  and  C_7
REMARK    8  A    between atoms: C_6  and  C_8
REMARK    9  A    between atoms: N_10  and  C_11
REMARK   10  A    between atoms: C_11  and  C_12
REMARK   11  A    between atoms: C_11  and  C_18
REMARK   12  A    between atoms: C_12  and  N_13
REMARK   13  A    between atoms: S_24  and  C_27
REMARK   14  A    between atoms: C_28  and  C_29
REMARK   15  A    between atoms: C_32  and  C_33
REMARK                            x       y       z     vdW  Elec       q    Type
REMARK                         _______ _______ _______ _____ _____    ______ ____
ROOT
ATOM      1  C   UNL     1       0.431  10.014  18.771  0.00  0.00    +0.000 C 
ATOM      2  C   UNL     1      -0.738  10.155  17.769  0.00  0.00    +0.000 C 
ENDROOT
BRANCH   1   3
ATOM      3  C   UNL     1       1.507   9.027  18.190  0.00  0.00    +0.000 C 
ATOM      4  O   UNL     1       1.950   9.161  17.055  0.00  0.00    +0.000 OA
ATOM      5  N   UNL     1       1.830   7.904  18.968  0.00  0.00    +0.000 N 
ATOM      6  H   UNL     1       1.522   7.856  19.927  0.00  0.00    +0.000 HD
BRANCH   5   7
ATOM      7  C   UNL     1       2.588   6.737  18.431  0.00  0.00    +0.000 C 
BRANCH   7   8
ATOM      8  C   UNL     1       2.056   5.366  18.902  0.00  0.00    +0.000 A 
ATOM      9  C   UNL     1       1.802   4.321  18.004  0.00  0.00    +0.000 A 
ATOM     10  C   UNL     1       1.259   3.107  18.445  0.00  0.00    +0.000 A 
ATOM     11  C   UNL     1       0.969   2.906  19.792  0.00  0.00    +0.000 A 
ATOM     12  C   UNL     1       1.269   3.901  20.712  0.00  0.00    +0.000 A 
ATOM     13  C   UNL     1       1.833   5.104  20.274  0.00  0.00    +0.000 A 
ENDBRANCH   7   8
BRANCH   7  14
ATOM     14  C   UNL     1       4.158   6.877  18.597  0.00  0.00    +0.000 C 
BRANCH  14  15
ATOM     15  N   UNL     1       5.153   6.171  17.743  0.00  0.00    +0.000 NA
ATOM     16  C   UNL     1       5.767   5.070  18.531  0.00  0.00    +0.000 C 
ATOM     17  C   UNL     1       6.991   5.685  19.194  0.00  0.00    +0.000 C 
ATOM     18  C   UNL     1       7.537   6.571  18.098  0.00  0.00    +0.000 C 
ATOM     19  C   UNL     1       6.311   6.945  17.260  0.00  0.00    +0.000 C 
ENDBRANCH  14  15
ENDBRANCH   7  14
ENDBRANCH   5   7
ENDBRANCH   1   3
BRANCH   1  20
ATOM     20  N   UNL     1       0.902  11.375  19.258  0.00  0.00    +0.000 NA
BRANCH  20  21
ATOM     21  S   UNL     1       1.113  11.473  20.988  0.00  0.00    +0.000 S 
ATOM     22  O   UNL     1       1.438  10.166  21.485  0.00  0.00    +0.000 OA
ATOM     23  O   UNL     1       1.942  12.631  21.262  0.00  0.00    +0.000 OA
BRANCH  21  24
ATOM     24  C   UNL     1      -0.370  11.872  21.727  0.00  0.00    +0.000 A 
ATOM     25  C   UNL     1      -1.065  11.111  22.694  0.00  0.00    +0.000 A 
ATOM     26  C   UNL     1      -0.732   9.799  23.290  0.00  0.00    +0.000 C 
ATOM     27  N   UNL     1      -2.208  11.717  23.045  0.00  0.00    +0.000 NA
ATOM     28  O   UNL     1      -2.273  12.874  22.300  0.00  0.00    +0.000 OA
ATOM     29  C   UNL     1      -1.175  12.966  21.499  0.00  0.00    +0.000 A 
ATOM     30  C   UNL     1      -1.139  14.134  20.599  0.00  0.00    +0.000 C 
ENDBRANCH  21  24
ENDBRANCH  20  21
BRANCH  20  31
ATOM     31  C   UNL     1       2.128  11.954  18.567  0.00  0.00    +0.000 C 
BRANCH  31  32
ATOM     32  C   UNL     1       2.058  13.364  17.978  0.00  0.00    +0.000 C 
BRANCH  32  34
ATOM     33  C   UNL     1       3.236  15.056  19.100  0.00  0.00    +0.000 C 
ATOM     34  O   UNL     1       3.297  14.065  18.072  0.00  0.00    +0.000 OA
ENDBRANCH  32  34
ENDBRANCH  31  32
ENDBRANCH  20  31
ENDBRANCH   1  20
TORSDOF 11
ENDMDL
MODEL 6
REMARK VINA RESULT:      -7.3      1.496      2.164
REMARK  Name = 
REMARK  15 active torsions:
REMARK  status: ('A' for Active; 'I' for Inactive)
REMARK    1  A    between atoms: C_1  and  O_2
REMARK    2  A    between atoms: O_2  and  C_3
REMARK    3  A    between atoms: C_3  and  C_4
REMARK    4  A    between atoms: C_4  and  N_5
REMARK    5  A    between atoms: N_5  and  C_6
REMARK    6  A    between atoms: N_5  and  S_24
REMARK    7  A    between atoms: C_6  and  C_7
REMARK    8  A    between atoms: C_6  and  C_8
REMARK    9  A    between atoms: N_10  and  C_11
REMARK   10  A    between atoms: C_11  and  C_12
REMARK   11  A    between atoms: C_11  and  C_18
REMARK   12  A    between atoms: C_12  and  N_13
REMARK   13  A    between atoms: S_24  and  C_27
REMARK   14  A    between atoms: C_28  and  C_29
REMARK   15  A    between atoms: C_32  and  C_33
REMARK                            x       y       z     vdW  Elec       q    Type
REMARK                         _______ _______ _______ _____ _____    ______ ____
ROOT
ATOM      1  C   UNL     1       1.400   9.561  20.098  0.00  0.00    +0.000 C 
ATOM      2  C   UNL     1       1.176   8.744  21.391  0.00  0.00    +0.000 C 
ENDROOT
BRANCH   1   3
ATOM      3  C   UNL     1       1.853   8.601  18.939  0.00  0.00    +0.000 C 
ATOM      4  O   UNL     1       1.595   8.848  17.767  0.00  0.00    +0.000 OA
ATOM      5  N   UNL     1       2.435   7.379  19.312  0.00  0.00    +0.000 N 
ATOM      6  H   UNL     1       2.714   7.231  20.270  0.00  0.00    +0.000 HD
BRANCH   5   7
ATOM      7  C   UNL     1       2.631   6.249  18.357  0.00  0.00    +0.000 C 
BRANCH   7   8
ATOM      8  C   UNL     1       2.045   4.905  18.838  0.00  0.00    +0.000 A 
ATOM      9  C   UNL     1       1.845   3.827  17.965  0.00  0.00    +0.000 A 
ATOM     10  C   UNL     1       1.253   2.639  18.409  0.00  0.00    +0.000 A 
ATOM     11  C   UNL     1       0.858   2.495  19.736  0.00  0.00    +0.000 A 
ATOM     12  C   UNL     1       1.100   3.522  20.638  0.00  0.00    +0.000 A 
ATOM     13  C   UNL     1       1.714   4.700  20.199  0.00  0.00    +0.000 A 
ENDBRANCH   7   8
BRANCH   7  14
ATOM     14  C   UNL     1       4.123   6.119  17.838  0.00  0.00    +0.000 C 
BRANCH  14  15
ATOM     15  N   UNL     1       4.984   4.927  18.070  0.00  0.00    +0.000 NA
ATOM     16  C   UNL     1       5.960   5.242  19.146  0.00  0.00    +0.000 C 
ATOM     17  C   UNL     1       7.181   5.803  18.432  0.00  0.00    +0.000 C 
ATOM     18  C   UNL     1       7.273   4.915  17.212  0.00  0.00    +0.000 C 
ATOM     19  C   UNL     1       5.831   4.466  16.954  0.00  0.00    +0.000 C 
ENDBRANCH  14  15
ENDBRANCH   7  14
ENDBRANCH   5   7
ENDBRANCH   1   3
BRANCH   1  20
ATOM     20  N   UNL     1       0.232  10.497  19.832  0.00  0.00    +0.000 NA
BRANCH  20  21
ATOM     21  S   UNL     1       0.524  12.149  20.315  0.00  0.00    +0.000 S 
ATOM     22  O   UNL     1       1.673  12.179  21.174  0.00  0.00    +0.000 OA
ATOM     23  O   UNL     1       0.428  12.974  19.125  0.00  0.00    +0.000 OA
BRANCH  21  24
ATOM     24  C   UNL     1      -0.767  12.704  21.279  0.00  0.00    +0.000 A 
ATOM     25  C   UNL     1      -1.433  13.945  21.166  0.00  0.00    +0.000 A 
ATOM     26  C   UNL     1      -1.193  15.072  20.240  0.00  0.00    +0.000 C 
ATOM     27  N   UNL     1      -2.390  14.057  22.098  0.00  0.00    +0.000 NA
ATOM     28  O   UNL     1      -2.346  12.894  22.836  0.00  0.00    +0.000 OA
ATOM     29  C   UNL     1      -1.365  12.082  22.352  0.00  0.00    +0.000 A 
ATOM     30  C   UNL     1      -1.166  10.818  23.086  0.00  0.00    +0.000 C 
ENDBRANCH  21  24
ENDBRANCH  20  21
BRANCH  20  31
ATOM     31  C   UNL     1      -0.343  10.477  18.423  0.00  0.00    +0.000 C 
BRANCH  31  32
ATOM     32  C   UNL     1      -1.850  10.655  18.229  0.00  0.00    +0.000 C 
BRANCH  32  34
ATOM     33  C   UNL     1      -2.757  10.054  16.148  0.00  0.00    +0.000 C 
ATOM     34  O   UNL     1      -2.438   9.602  17.466  0.00  0.00    +0.000 OA
ENDBRANCH  32  34
ENDBRANCH  31  32
ENDBRANCH  20  31
ENDBRANCH   1  20
TORSDOF 11
ENDMDL
MODEL 7
REMARK VINA RESULT:      -7.3      1.262      2.004
REMARK  Name = 
REMARK  15 active torsions:
REMARK  status: ('A' for Active; 'I' for Inactive)
REMARK    1  A    between atoms: C_1  and  O_2
REMARK    2  A    between atoms: O_2  and  C_3
REMARK    3  A    between atoms: C_3  and  C_4
REMARK    4  A    between atoms: C_4  and  N_5
REMARK    5  A    between atoms: N_5  and  C_6
REMARK    6  A    between atoms: N_5  and  S_24
REMARK    7  A    between atoms: C_6  and  C_7
REMARK    8  A    between atoms: C_6  and  C_8
REMARK    9  A    between atoms: N_10  and  C_11
REMARK   10  A    between atoms: C_11  and  C_12
REMARK   11  A    between atoms: C_11  and  C_18
REMARK   12  A    between atoms: C_12  and  N_13
REMARK   13  A    between atoms: S_24  and  C_27
REMARK   14  A    between atoms: C_28  and  C_29
REMARK   15  A    between atoms: C_32  and  C_33
REMARK                            x       y       z     vdW  Elec       q    Type
REMARK                         _______ _______ _______ _____ _____    ______ ____
ROOT
ATOM      1  C   UNL     1       1.085   9.658  20.180  0.00  0.00    +0.000 C 
ATOM      2  C   UNL     1       0.279   8.820  21.199  0.00  0.00    +0.000 C 
ENDROOT
BRANCH   1   3
ATOM      3  C   UNL     1       1.691   8.713  19.081  0.00  0.00    +0.000 C 
ATOM      4  O   UNL     1       1.554   8.951  17.887  0.00  0.00    +0.000 OA
ATOM      5  N   UNL     1       2.268   7.510  19.520  0.00  0.00    +0.000 N 
ATOM      6  H   UNL     1       2.446   7.372  20.503  0.00  0.00    +0.000 HD
BRANCH   5   7
ATOM      7  C   UNL     1       2.603   6.387  18.596  0.00  0.00    +0.000 C 
BRANCH   7   8
ATOM      8  C   UNL     1       1.988   5.030  19.001  0.00  0.00    +0.000 A 
ATOM      9  C   UNL     1       1.674   4.725  20.332  0.00  0.00    +0.000 A 
ATOM     10  C   UNL     1       1.176   3.465  20.685  0.00  0.00    +0.000 A 
ATOM     11  C   UNL     1       0.970   2.486  19.718  0.00  0.00    +0.000 A 
ATOM     12  C   UNL     1       1.213   2.780  18.384  0.00  0.00    +0.000 A 
ATOM     13  C   UNL     1       1.687   4.048  18.028  0.00  0.00    +0.000 A 
ENDBRANCH   7   8
BRANCH   7  14
ATOM     14  C   UNL     1       4.149   6.287  18.265  0.00  0.00    +0.000 C 
BRANCH  14  15
ATOM     15  N   UNL     1       4.960   5.049  18.437  0.00  0.00    +0.000 NA
ATOM     16  C   UNL     1       6.143   5.364  19.279  0.00  0.00    +0.000 C 
ATOM     17  C   UNL     1       7.237   5.768  18.301  0.00  0.00    +0.000 C 
ATOM     18  C   UNL     1       7.032   4.787  17.169  0.00  0.00    +0.000 C 
ATOM     19  C   UNL     1       5.541   4.439  17.227  0.00  0.00    +0.000 C 
ENDBRANCH  14  15
ENDBRANCH   7  14
ENDBRANCH   5   7
ENDBRANCH   1   3
BRANCH   1  20
ATOM     20  N   UNL     1       0.291  10.870  19.717  0.00  0.00    +0.000 NA
BRANCH  20  21
ATOM     21  S   UNL     1       1.174  12.373  19.815  0.00  0.00    +0.000 S 
ATOM     22  O   UNL     1       1.859  12.422  21.075  0.00  0.00    +0.000 OA
ATOM     23  O   UNL     1       1.866  12.555  18.553  0.00  0.00    +0.000 OA
BRANCH  21  24
ATOM     24  C   UNL     1       0.082  13.681  19.853  0.00  0.00    +0.000 A 
ATOM     25  C   UNL     1       0.314  14.989  19.371  0.00  0.00    +0.000 A 
ATOM     26  C   UNL     1       1.523  15.575  18.753  0.00  0.00    +0.000 C 
ATOM     27  N   UNL     1      -0.757  15.768  19.578  0.00  0.00    +0.000 NA
ATOM     28  O   UNL     1      -1.693  14.976  20.207  0.00  0.00    +0.000 OA
ATOM     29  C   UNL     1      -1.187  13.723  20.383  0.00  0.00    +0.000 A 
ATOM     30  C   UNL     1      -2.065  12.778  21.100  0.00  0.00    +0.000 C 
ENDBRANCH  21  24
ENDBRANCH  20  21
BRANCH  20  31
ATOM     31  C   UNL     1      -0.373  10.763  18.353  0.00  0.00    +0.000 C 
BRANCH  31  32
ATOM     32  C   UNL     1      -1.833  10.314  18.266  0.00  0.00    +0.000 C 
BRANCH  32  34
ATOM     33  C   UNL     1      -2.682  10.017  16.097  0.00  0.00    +0.000 C 
ATOM     34  O   UNL     1      -2.537  10.929  17.188  0.00  0.00    +0.000 OA
ENDBRANCH  32  34
ENDBRANCH  31  32
ENDBRANCH  20  31
ENDBRANCH   1  20
TORSDOF 11
ENDMDL
MODEL 8
REMARK VINA RESULT:      -7.3      0.678      1.761
REMARK  Name = 
REMARK  15 active torsions:
REMARK  status: ('A' for Active; 'I' for Inactive)
REMARK    1  A    between atoms: C_1  and  O_2
REMARK    2  A    between atoms: O_2  and  C_3
REMARK    3  A    between atoms: C_3  and  C_4
REMARK    4  A    between atoms: C_4  and  N_5
REMARK    5  A    between atoms: N_5  and  C_6
REMARK    6  A    between atoms: N_5  and  S_24
REMARK    7  A    between atoms: C_6  and  C_7
REMARK    8  A    between atoms: C_6  and  C_8
REMARK    9  A    between atoms: N_10  and  C_11
REMARK   10  A    between atoms: C_11  and  C_12
REMARK   11  A    between atoms: C_11  and  C_18
REMARK   12  A    between atoms: C_12  and  N_13
REMARK   13  A    between atoms: S_24  and  C_27
REMARK   14  A    between atoms: C_28  and  C_29
REMARK   15  A    between atoms: C_32  and  C_33
REMARK                            x       y       z     vdW  Elec       q    Type
REMARK                         _______ _______ _______ _____ _____    ______ ____
ROOT
ATOM      1  C   UNL     1       1.117   9.782  19.700  0.00  0.00    +0.000 C 
ATOM      2  C   UNL     1       0.468   9.011  20.872  0.00  0.00    +0.000 C 
ENDROOT
BRANCH   1   3
ATOM      3  C   UNL     1       1.833   8.769  18.735  0.00  0.00    +0.000 C 
ATOM      4  O   UNL     1       1.928   8.989  17.533  0.00  0.00    +0.000 OA
ATOM      5  N   UNL     1       2.228   7.537  19.280  0.00  0.00    +0.000 N 
ATOM      6  H   UNL     1       2.219   7.408  20.281  0.00  0.00    +0.000 HD
BRANCH   5   7
ATOM      7  C   UNL     1       2.633   6.371  18.442  0.00  0.00    +0.000 C 
BRANCH   7   8
ATOM      8  C   UNL     1       2.087   5.015  18.937  0.00  0.00    +0.000 A 
ATOM      9  C   UNL     1       1.564   4.059  18.056  0.00  0.00    +0.000 A 
ATOM     10  C   UNL     1       1.016   2.862  18.533  0.00  0.00    +0.000 A 
ATOM     11  C   UNL     1       0.987   2.588  19.897  0.00  0.00    +0.000 A 
ATOM     12  C   UNL     1       1.554   3.488  20.789  0.00  0.00    +0.000 A 
ATOM     13  C   UNL     1       2.124   4.673  20.310  0.00  0.00    +0.000 A 
ENDBRANCH   7   8
BRANCH   7  14
ATOM     14  C   UNL     1       4.187   6.332  18.131  0.00  0.00    +0.000 C 
BRANCH  14  15
ATOM     15  N   UNL     1       4.939   5.089  17.803  0.00  0.00    +0.000 NA
ATOM     16  C   UNL     1       6.382   5.316  18.078  0.00  0.00    +0.000 C 
ATOM     17  C   UNL     1       6.964   5.837  16.771  0.00  0.00    +0.000 C 
ATOM     18  C   UNL     1       6.251   4.989  15.744  0.00  0.00    +0.000 C 
ATOM     19  C   UNL     1       4.917   4.624  16.405  0.00  0.00    +0.000 C 
ENDBRANCH  14  15
ENDBRANCH   7  14
ENDBRANCH   5   7
ENDBRANCH   1   3
BRANCH   1  20
ATOM     20  N   UNL     1       0.141  10.777  19.091  0.00  0.00    +0.000 NA
BRANCH  20  21
ATOM     21  S   UNL     1       0.816  12.368  18.844  0.00  0.00    +0.000 S 
ATOM     22  O   UNL     1       2.151  12.227  18.337  0.00  0.00    +0.000 OA
ATOM     23  O   UNL     1      -0.188  13.166  18.165  0.00  0.00    +0.000 OA
BRANCH  21  24
ATOM     24  C   UNL     1       0.991  13.157  20.344  0.00  0.00    +0.000 A 
ATOM     25  C   UNL     1       2.058  13.996  20.738  0.00  0.00    +0.000 A 
ATOM     26  C   UNL     1       3.282  14.386  20.005  0.00  0.00    +0.000 C 
ATOM     27  N   UNL     1       1.881  14.434  21.992  0.00  0.00    +0.000 NA
ATOM     28  O   UNL     1       0.701  13.874  22.432  0.00  0.00    +0.000 OA
ATOM     29  C   UNL     1       0.169  13.098  21.447  0.00  0.00    +0.000 A 
ATOM     30  C   UNL     1      -1.075  12.386  21.800  0.00  0.00    +0.000 C 
ENDBRANCH  21  24
ENDBRANCH  20  21
BRANCH  20  31
ATOM     31  C   UNL     1      -0.578  10.332  17.826  0.00  0.00    +0.000 C 
BRANCH  31  32
ATOM     32  C   UNL     1      -2.002  10.825  17.563  0.00  0.00    +0.000 C 
BRANCH  32  34
ATOM     33  C   UNL     1      -4.297  10.399  17.809  0.00  0.00    +0.000 C 
ATOM     34  O   UNL     1      -2.988   9.825  17.813  0.00  0.00    +0.000 OA
ENDBRANCH  32  34
ENDBRANCH  31  32
ENDBRANCH  20  31
ENDBRANCH   1  20
TORSDOF 11
ENDMDL
MODEL 9
REMARK VINA RESULT:      -7.2      1.857      3.141
REMARK  Name = 
REMARK  15 active torsions:
REMARK  status: ('A' for Active; 'I' for Inactive)
REMARK    1  A    between atoms: C_1  and  O_2
REMARK    2  A    between atoms: O_2  and  C_3
REMARK    3  A    between atoms: C_3  and  C_4
REMARK    4  A    between atoms: C_4  and  N_5
REMARK    5  A    between atoms: N_5  and  C_6
REMARK    6  A    between atoms: N_5  and  S_24
REMARK    7  A    between atoms: C_6  and  C_7
REMARK    8  A    between atoms: C_6  and  C_8
REMARK    9  A    between atoms: N_10  and  C_11
REMARK   10  A    between atoms: C_11  and  C_12
REMARK   11  A    between atoms: C_11  and  C_18
REMARK   12  A    between atoms: C_12  and  N_13
REMARK   13  A    between atoms: S_24  and  C_27
REMARK   14  A    between atoms: C_28  and  C_29
REMARK   15  A    between atoms: C_32  and  C_33
REMARK                            x       y       z     vdW  Elec       q    Type
REMARK                         _______ _______ _______ _____ _____    ______ ____
ROOT
ATOM      1  C   UNL     1       0.486  10.033  18.859  0.00  0.00    +0.000 C 
ATOM      2  C   UNL     1      -0.767  10.117  17.957  0.00  0.00    +0.000 C 
ENDROOT
BRANCH   1   3
ATOM      3  C   UNL     1       1.527   9.041  18.223  0.00  0.00    +0.000 C 
ATOM      4  O   UNL     1       1.955   9.206  17.087  0.00  0.00    +0.000 OA
ATOM      5  N   UNL     1       1.834   7.882  18.953  0.00  0.00    +0.000 N 
ATOM      6  H   UNL     1       1.540   7.806  19.915  0.00  0.00    +0.000 HD
BRANCH   5   7
ATOM      7  C   UNL     1       2.552   6.716  18.360  0.00  0.00    +0.000 C 
BRANCH   7   8
ATOM      8  C   UNL     1       2.044   5.343  18.852  0.00  0.00    +0.000 A 
ATOM      9  C   UNL     1       1.846   5.069  20.211  0.00  0.00    +0.000 A 
ATOM     10  C   UNL     1       1.446   3.797  20.639  0.00  0.00    +0.000 A 
ATOM     11  C   UNL     1       1.224   2.775  19.721  0.00  0.00    +0.000 A 
ATOM     12  C   UNL     1       1.351   3.036  18.363  0.00  0.00    +0.000 A 
ATOM     13  C   UNL     1       1.728   4.314  17.934  0.00  0.00    +0.000 A 
ENDBRANCH   7   8
BRANCH   7  14
ATOM     14  C   UNL     1       4.130   6.849  18.430  0.00  0.00    +0.000 C 
BRANCH  14  15
ATOM     15  N   UNL     1       5.015   6.905  17.234  0.00  0.00    +0.000 NA
ATOM     16  C   UNL     1       4.835   5.658  16.446  0.00  0.00    +0.000 C 
ATOM     17  C   UNL     1       5.874   4.687  16.987  0.00  0.00    +0.000 C 
ATOM     18  C   UNL     1       7.071   5.585  17.200  0.00  0.00    +0.000 C 
ATOM     19  C   UNL     1       6.470   6.970  17.461  0.00  0.00    +0.000 C 
ENDBRANCH  14  15
ENDBRANCH   7  14
ENDBRANCH   5   7
ENDBRANCH   1   3
BRANCH   1  20
ATOM     20  N   UNL     1       0.973  11.418  19.253  0.00  0.00    +0.000 NA
BRANCH  20  21
ATOM     21  S   UNL     1       1.085  11.665  20.977  0.00  0.00    +0.000 S 
ATOM     22  O   UNL     1       1.426  10.417  21.598  0.00  0.00    +0.000 OA
ATOM     23  O   UNL     1       1.859  12.872  21.196  0.00  0.00    +0.000 OA
BRANCH  21  24
ATOM     24  C   UNL     1      -0.449  12.067  21.602  0.00  0.00    +0.000 A 
ATOM     25  C   UNL     1      -1.171  11.359  22.590  0.00  0.00    +0.000 A 
ATOM     26  C   UNL     1      -0.829  10.112  23.307  0.00  0.00    +0.000 C 
ATOM     27  N   UNL     1      -2.351  11.949  22.830  0.00  0.00    +0.000 NA
ATOM     28  O   UNL     1      -2.413  13.040  21.991  0.00  0.00    +0.000 OA
ATOM     29  C   UNL     1      -1.275  13.108  21.244  0.00  0.00    +0.000 A 
ATOM     30  C   UNL     1      -1.227  14.202  20.255  0.00  0.00    +0.000 C 
ENDBRANCH  21  24
ENDBRANCH  20  21
BRANCH  20  31
ATOM     31  C   UNL     1       2.255  11.900  18.590  0.00  0.00    +0.000 C 
BRANCH  31  32
ATOM     32  C   UNL     1       2.300  13.301  17.978  0.00  0.00    +0.000 C 
BRANCH  32  34
ATOM     33  C   UNL     1       3.626  15.216  17.681  0.00  0.00    +0.000 C 
ATOM     34  O   UNL     1       3.318  14.121  18.547  0.00  0.00    +0.000 OA
ENDBRANCH  32  34
ENDBRANCH  31  32
ENDBRANCH  20  31
ENDBRANCH   1  20
TORSDOF 11
ENDMDL
