MODEL 1
REMARK VINA RESULT:      -8.1      0.000      0.000
REMARK  Name = 
REMARK  5 active torsions:
REMARK  status: ('A' for Active; 'I' for Inactive)
REMARK    1  A    between atoms: C_1  and  O_2
REMARK    2  A    between atoms: O_2  and  C_3
REMARK    3  A    between atoms: C_6  and  N_7
REMARK    4  A    between atoms: N_7  and  C_21
REMARK    5  A    between atoms: C_8  and  C_10
REMARK                            x       y       z     vdW  Elec       q    Type
REMARK                         _______ _______ _______ _____ _____    ______ ____
ROOT
ATOM      1  N   UNL     1       3.474   6.731  17.968  0.00  0.00    +0.000 N 
ATOM      2  C   UNL     1       3.119   8.087  17.931  0.00  0.00    +0.000 C 
ATOM      3  O   UNL     1       3.842   8.863  17.282  0.00  0.00    +0.000 OA
ENDROOT
BRANCH   2   4
ATOM      4  C   UNL     1       1.984   8.722  18.683  0.00  0.00    +0.000 A 
ATOM      5  C   UNL     1       1.888   8.324  19.971  0.00  0.00    +0.000 A 
ATOM      6  C   UNL     1       0.966   8.969  20.888  0.00  0.00    +0.000 A 
ATOM      7  C   UNL     1       1.061   8.850  22.272  0.00  0.00    +0.000 A 
ATOM      8  C   UNL     1       0.167   9.560  23.089  0.00  0.00    +0.000 A 
ATOM      9  C   UNL     1      -0.830  10.362  22.521  0.00  0.00    +0.000 A 
ATOM     10  C   UNL     1      -0.946  10.455  21.135  0.00  0.00    +0.000 A 
ATOM     11  C   UNL     1      -0.040   9.758  20.335  0.00  0.00    +0.000 A 
ATOM     12  O   UNL     1      -0.114   9.931  18.948  0.00  0.00    +0.000 OA
ATOM     13  C   UNL     1       1.106   9.844  18.284  0.00  0.00    +0.000 A 
ATOM     14  O   UNL     1       1.409  10.685  17.454  0.00  0.00    +0.000 OA
ENDBRANCH   2   4
BRANCH   1  15
ATOM     15  C   UNL     1       4.807   6.406  17.407  0.00  0.00    +0.000 C 
ATOM     16  C   UNL     1       5.550   5.494  18.356  0.00  0.00    +0.000 C 
ATOM     17  C   UNL     1       6.370   4.604  17.786  0.00  0.00    +0.000 C 
ATOM     18  S   UNL     1       6.321   4.726  16.061  0.00  0.00    +0.000 S 
ATOM     19  O   UNL     1       7.492   5.445  15.606  0.00  0.00    +0.000 OA
ATOM     20  O   UNL     1       5.950   3.441  15.506  0.00  0.00    +0.000 OA
ATOM     21  C   UNL     1       4.902   5.820  15.997  0.00  0.00    +0.000 C 
ENDBRANCH   1  15
BRANCH   1  25
ATOM     22  C   UNL     1       1.505   3.535  19.916  0.00  0.00    +0.000 A 
ATOM     23  C   UNL     1       2.257   4.465  20.637  0.00  0.00    +0.000 A 
ATOM     24  C   UNL     1       2.843   5.563  19.998  0.00  0.00    +0.000 A 
ATOM     25  C   UNL     1       2.733   5.710  18.612  0.00  0.00    +0.000 A 
ATOM     26  C   UNL     1       1.920   4.825  17.897  0.00  0.00    +0.000 A 
ATOM     27  C   UNL     1       1.305   3.740  18.550  0.00  0.00    +0.000 A 
BRANCH  22  29
ATOM     28  C   UNL     1       1.661   2.271  21.936  0.00  0.00    +0.000 C 
ATOM     29  O   UNL     1       1.100   2.451  20.644  0.00  0.00    +0.000 OA
ENDBRANCH  22  29
ENDBRANCH   1  25
TORSDOF 4
ENDMDL
MODEL 2
REMARK VINA RESULT:      -7.9      0.901      1.046
REMARK  Name = 
REMARK  5 active torsions:
REMARK  status: ('A' for Active; 'I' for Inactive)
REMARK    1  A    between atoms: C_1  and  O_2
REMARK    2  A    between atoms: O_2  and  C_3
REMARK    3  A    between atoms: C_6  and  N_7
REMARK    4  A    between atoms: N_7  and  C_21
REMARK    5  A    between atoms: C_8  and  C_10
REMARK                            x       y       z     vdW  Elec       q    Type
REMARK                         _______ _______ _______ _____ _____    ______ ____
ROOT
ATOM      1  N   UNL     1       3.456   6.416  17.714  0.00  0.00    +0.000 N 
ATOM      2  C   UNL     1       3.164   7.782  17.599  0.00  0.00    +0.000 C 
ATOM      3  O   UNL     1       3.865   8.468  16.835  0.00  0.00    +0.000 OA
ENDROOT
BRANCH   2   4
ATOM      4  C   UNL     1       2.128   8.532  18.389  0.00  0.00    +0.000 A 
ATOM      5  C   UNL     1       1.943   8.057  19.641  0.00  0.00    +0.000 A 
ATOM      6  C   UNL     1       1.116   8.769  20.598  0.00  0.00    +0.000 A 
ATOM      7  C   UNL     1       1.162   8.531  21.969  0.00  0.00    +0.000 A 
ATOM      8  C   UNL     1       0.374   9.310  22.831  0.00  0.00    +0.000 A 
ATOM      9  C   UNL     1      -0.470  10.302  22.320  0.00  0.00    +0.000 A 
ATOM     10  C   UNL     1      -0.540  10.518  20.944  0.00  0.00    +0.000 A 
ATOM     11  C   UNL     1       0.260   9.749  20.100  0.00  0.00    +0.000 A 
ATOM     12  O   UNL     1       0.244  10.037  18.731  0.00  0.00    +0.000 OA
ATOM     13  C   UNL     1       1.449   9.807  18.073  0.00  0.00    +0.000 A 
ATOM     14  O   UNL     1       1.900  10.650  17.315  0.00  0.00    +0.000 OA
ENDBRANCH   2   4
BRANCH   1  15
ATOM     15  C   UNL     1       4.720   5.979  17.074  0.00  0.00    +0.000 C 
ATOM     16  C   UNL     1       5.782   7.036  17.269  0.00  0.00    +0.000 C 
ATOM     17  C   UNL     1       7.035   6.586  17.391  0.00  0.00    +0.000 C 
ATOM     18  S   UNL     1       7.087   4.858  17.327  0.00  0.00    +0.000 S 
ATOM     19  O   UNL     1       7.532   4.449  16.011  0.00  0.00    +0.000 OA
ATOM     20  O   UNL     1       7.712   4.357  18.533  0.00  0.00    +0.000 OA
ATOM     21  C   UNL     1       5.314   4.619  17.445  0.00  0.00    +0.000 C 
ENDBRANCH   1  15
BRANCH   1  25
ATOM     22  C   UNL     1       1.506   3.475  20.046  0.00  0.00    +0.000 A 
ATOM     23  C   UNL     1       2.412   4.368  20.622  0.00  0.00    +0.000 A 
ATOM     24  C   UNL     1       2.997   5.388  19.862  0.00  0.00    +0.000 A 
ATOM     25  C   UNL     1       2.726   5.486  18.494  0.00  0.00    +0.000 A 
ATOM     26  C   UNL     1       1.763   4.644  17.928  0.00  0.00    +0.000 A 
ATOM     27  C   UNL     1       1.153   3.641  18.706  0.00  0.00    +0.000 A 
BRANCH  22  29
ATOM     28  C   UNL     1       1.869   2.232  22.052  0.00  0.00    +0.000 C 
ATOM     29  O   UNL     1       1.113   2.459  20.871  0.00  0.00    +0.000 OA
ENDBRANCH  22  29
ENDBRANCH   1  25
TORSDOF 4
ENDMDL
MODEL 3
REMARK VINA RESULT:      -7.7      0.991      1.355
REMARK  Name = 
REMARK  5 active torsions:
REMARK  status: ('A' for Active; 'I' for Inactive)
REMARK    1  A    between atoms: C_1  and  O_2
REMARK    2  A    between atoms: O_2  and  C_3
REMARK    3  A    between atoms: C_6  and  N_7
REMARK    4  A    between atoms: N_7  and  C_21
REMARK    5  A    between atoms: C_8  and  C_10
REMARK                            x       y       z     vdW  Elec       q    Type
REMARK                         _______ _______ _______ _____ _____    ______ ____
ROOT
ATOM      1  N   UNL     1       3.484   5.881  18.232  0.00  0.00    +0.000 N 
ATOM      2  C   UNL     1       3.277   7.235  17.932  0.00  0.00    +0.000 C 
ATOM      3  O   UNL     1       4.058   7.784  17.135  0.00  0.00    +0.000 OA
ENDROOT
BRANCH   2   4
ATOM      4  C   UNL     1       2.243   8.129  18.557  0.00  0.00    +0.000 A 
ATOM      5  C   UNL     1       1.960   7.825  19.844  0.00  0.00    +0.000 A 
ATOM      6  C   UNL     1       1.122   8.692  20.651  0.00  0.00    +0.000 A 
ATOM      7  C   UNL     1       1.076   8.626  22.041  0.00  0.00    +0.000 A 
ATOM      8  C   UNL     1       0.287   9.546  22.750  0.00  0.00    +0.000 A 
ATOM      9  C   UNL     1      -0.468  10.507  22.069  0.00  0.00    +0.000 A 
ATOM     10  C   UNL     1      -0.448  10.551  20.675  0.00  0.00    +0.000 A 
ATOM     11  C   UNL     1       0.354   9.643  19.984  0.00  0.00    +0.000 A 
ATOM     12  O   UNL     1       0.431   9.757  18.592  0.00  0.00    +0.000 OA
ATOM     13  C   UNL     1       1.657   9.386  18.045  0.00  0.00    +0.000 A 
ATOM     14  O   UNL     1       2.197  10.104  17.219  0.00  0.00    +0.000 OA
ENDBRANCH   2   4
BRANCH   1  15
ATOM     15  C   UNL     1       4.755   5.305  17.731  0.00  0.00    +0.000 C 
ATOM     16  C   UNL     1       4.733   5.259  16.221  0.00  0.00    +0.000 C 
ATOM     17  C   UNL     1       5.912   5.433  15.616  0.00  0.00    +0.000 C 
ATOM     18  S   UNL     1       7.171   5.708  16.770  0.00  0.00    +0.000 S 
ATOM     19  O   UNL     1       7.930   4.486  16.941  0.00  0.00    +0.000 OA
ATOM     20  O   UNL     1       7.814   6.972  16.478  0.00  0.00    +0.000 OA
ATOM     21  C   UNL     1       6.082   5.920  18.179  0.00  0.00    +0.000 C 
ENDBRANCH   1  15
BRANCH   1  25
ATOM     22  C   UNL     1       1.234   3.345  20.761  0.00  0.00    +0.000 A 
ATOM     23  C   UNL     1       2.231   4.176  21.276  0.00  0.00    +0.000 A 
ATOM     24  C   UNL     1       2.921   5.068  20.447  0.00  0.00    +0.000 A 
ATOM     25  C   UNL     1       2.659   5.095  19.074  0.00  0.00    +0.000 A 
ATOM     26  C   UNL     1       1.611   4.323  18.565  0.00  0.00    +0.000 A 
ATOM     27  C   UNL     1       0.898   3.451  19.410  0.00  0.00    +0.000 A 
BRANCH  22  29
ATOM     28  C   UNL     1       1.660   1.707  22.444  0.00  0.00    +0.000 C 
ATOM     29  O   UNL     1       0.735   2.441  21.655  0.00  0.00    +0.000 OA
ENDBRANCH  22  29
ENDBRANCH   1  25
TORSDOF 4
ENDMDL
MODEL 4
REMARK VINA RESULT:      -7.6      1.395      2.208
REMARK  Name = 
REMARK  5 active torsions:
REMARK  status: ('A' for Active; 'I' for Inactive)
REMARK    1  A    between atoms: C_1  and  O_2
REMARK    2  A    between atoms: O_2  and  C_3
REMARK    3  A    between atoms: C_6  and  N_7
REMARK    4  A    between atoms: N_7  and  C_21
REMARK    5  A    between atoms: C_8  and  C_10
REMARK                            x       y       z     vdW  Elec       q    Type
REMARK                         _______ _______ _______ _____ _____    ______ ____
ROOT
ATOM      1  N   UNL     1       3.347   6.910  17.959  0.00  0.00    +0.000 N 
ATOM      2  C   UNL     1       2.998   8.257  17.785  0.00  0.00    +0.000 C 
ATOM      3  O   UNL     1       3.785   8.988  17.159  0.00  0.00    +0.000 OA
ENDROOT
BRANCH   2   4
ATOM      4  C   UNL     1       1.790   8.937  18.364  0.00  0.00    +0.000 A 
ATOM      5  C   UNL     1       0.844   9.247  17.450  0.00  0.00    +0.000 A 
ATOM      6  C   UNL     1      -0.458   9.742  17.859  0.00  0.00    +0.000 A 
ATOM      7  C   UNL     1      -1.568   9.748  17.017  0.00  0.00    +0.000 A 
ATOM      8  C   UNL     1      -2.807  10.184  17.513  0.00  0.00    +0.000 A 
ATOM      9  C   UNL     1      -2.926  10.633  18.833  0.00  0.00    +0.000 A 
ATOM     10  C   UNL     1      -1.807  10.658  19.665  0.00  0.00    +0.000 A 
ATOM     11  C   UNL     1      -0.586  10.205  19.166  0.00  0.00    +0.000 A 
ATOM     12  O   UNL     1       0.507  10.154  20.039  0.00  0.00    +0.000 OA
ATOM     13  C   UNL     1       1.410   9.127  19.780  0.00  0.00    +0.000 A 
ATOM     14  O   UNL     1       1.812   8.426  20.694  0.00  0.00    +0.000 OA
ENDBRANCH   2   4
BRANCH   1  15
ATOM     15  C   UNL     1       4.732   6.555  17.567  0.00  0.00    +0.000 C 
ATOM     16  C   UNL     1       5.305   5.568  18.558  0.00  0.00    +0.000 C 
ATOM     17  C   UNL     1       6.162   4.672  18.058  0.00  0.00    +0.000 C 
ATOM     18  S   UNL     1       6.354   4.876  16.351  0.00  0.00    +0.000 S 
ATOM     19  O   UNL     1       7.601   5.565  16.096  0.00  0.00    +0.000 OA
ATOM     20  O   UNL     1       6.016   3.636  15.685  0.00  0.00    +0.000 OA
ATOM     21  C   UNL     1       4.997   6.032  16.154  0.00  0.00    +0.000 C 
ENDBRANCH   1  15
BRANCH   1  25
ATOM     22  C   UNL     1       1.186   3.857  19.933  0.00  0.00    +0.000 A 
ATOM     23  C   UNL     1       1.819   4.872  20.653  0.00  0.00    +0.000 A 
ATOM     24  C   UNL     1       2.469   5.921  19.992  0.00  0.00    +0.000 A 
ATOM     25  C   UNL     1       2.543   5.933  18.597  0.00  0.00    +0.000 A 
ATOM     26  C   UNL     1       1.847   4.963  17.870  0.00  0.00    +0.000 A 
ATOM     27  C   UNL     1       1.167   3.927  18.539  0.00  0.00    +0.000 A 
BRANCH  22  29
ATOM     28  C   UNL     1       1.477   2.424  21.820  0.00  0.00    +0.000 C 
ATOM     29  O   UNL     1       0.704   2.836  20.703  0.00  0.00    +0.000 OA
ENDBRANCH  22  29
ENDBRANCH   1  25
TORSDOF 4
ENDMDL
MODEL 5
REMARK VINA RESULT:      -7.4      6.936      9.868
REMARK  Name = 
REMARK  5 active torsions:
REMARK  status: ('A' for Active; 'I' for Inactive)
REMARK    1  A    between atoms: C_1  and  O_2
REMARK    2  A    between atoms: O_2  and  C_3
REMARK    3  A    between atoms: C_6  and  N_7
REMARK    4  A    between atoms: N_7  and  C_21
REMARK    5  A    between atoms: C_8  and  C_10
REMARK                            x       y       z     vdW  Elec       q    Type
REMARK                         _______ _______ _______ _____ _____    ______ ____
ROOT
ATOM      1  N   UNL     1      -0.881  13.062  21.806  0.00  0.00    +0.000 N 
ATOM      2  C   UNL     1       0.225  13.922  21.870  0.00  0.00    +0.000 C 
ATOM      3  O   UNL     1       0.460  14.492  22.950  0.00  0.00    +0.000 OA
ENDROOT
BRANCH   2   4
ATOM      4  C   UNL     1       1.116  14.300  20.721  0.00  0.00    +0.000 A 
ATOM      5  C   UNL     1       0.590  15.240  19.904  0.00  0.00    +0.000 A 
ATOM      6  C   UNL     1       1.385  15.849  18.854  0.00  0.00    +0.000 A 
ATOM      7  C   UNL     1       1.028  17.037  18.222  0.00  0.00    +0.000 A 
ATOM      8  C   UNL     1       1.887  17.593  17.260  0.00  0.00    +0.000 A 
ATOM      9  C   UNL     1       3.082  16.948  16.918  0.00  0.00    +0.000 A 
ATOM     10  C   UNL     1       3.423  15.741  17.527  0.00  0.00    +0.000 A 
ATOM     11  C   UNL     1       2.569  15.210  18.494  0.00  0.00    +0.000 A 
ATOM     12  O   UNL     1       2.967  14.045  19.159  0.00  0.00    +0.000 OA
ATOM     13  C   UNL     1       2.532  13.949  20.478  0.00  0.00    +0.000 A 
ATOM     14  O   UNL     1       3.315  13.625  21.355  0.00  0.00    +0.000 OA
ENDBRANCH   2   4
BRANCH   1  15
ATOM     15  C   UNL     1      -1.785  13.098  22.980  0.00  0.00    +0.000 C 
ATOM     16  C   UNL     1      -2.586  14.379  22.966  0.00  0.00    +0.000 C 
ATOM     17  C   UNL     1      -3.824  14.297  23.465  0.00  0.00    +0.000 C 
ATOM     18  S   UNL     1      -4.188  12.683  23.969  0.00  0.00    +0.000 S 
ATOM     19  O   UNL     1      -4.070  12.602  25.410  0.00  0.00    +0.000 OA
ATOM     20  O   UNL     1      -5.371  12.224  23.272  0.00  0.00    +0.000 OA
ATOM     21  C   UNL     1      -2.742  11.930  23.223  0.00  0.00    +0.000 C 
ENDBRANCH   1  15
BRANCH   1  25
ATOM     22  C   UNL     1      -2.220  10.675  18.581  0.00  0.00    +0.000 A 
ATOM     23  C   UNL     1      -2.844  11.885  18.890  0.00  0.00    +0.000 A 
ATOM     24  C   UNL     1      -2.351  12.708  19.909  0.00  0.00    +0.000 A 
ATOM     25  C   UNL     1      -1.256  12.296  20.675  0.00  0.00    +0.000 A 
ATOM     26  C   UNL     1      -0.581  11.124  20.322  0.00  0.00    +0.000 A 
ATOM     27  C   UNL     1      -1.062  10.316  19.273  0.00  0.00    +0.000 A 
BRANCH  22  29
ATOM     28  C   UNL     1      -2.391   9.927  16.321  0.00  0.00    +0.000 C 
ATOM     29  O   UNL     1      -2.880   9.920  17.653  0.00  0.00    +0.000 OA
ENDBRANCH  22  29
ENDBRANCH   1  25
TORSDOF 4
ENDMDL
MODEL 6
REMARK VINA RESULT:      -7.3      5.366     10.146
REMARK  Name = 
REMARK  5 active torsions:
REMARK  status: ('A' for Active; 'I' for Inactive)
REMARK    1  A    between atoms: C_1  and  O_2
REMARK    2  A    between atoms: O_2  and  C_3
REMARK    3  A    between atoms: C_6  and  N_7
REMARK    4  A    between atoms: N_7  and  C_21
REMARK    5  A    between atoms: C_8  and  C_10
REMARK                            x       y       z     vdW  Elec       q    Type
REMARK                         _______ _______ _______ _____ _____    ______ ____
ROOT
ATOM      1  N   UNL     1      -1.120  12.996  22.297  0.00  0.00    +0.000 N 
ATOM      2  C   UNL     1      -1.270  11.617  22.499  0.00  0.00    +0.000 C 
ATOM      3  O   UNL     1      -2.114  11.236  23.329  0.00  0.00    +0.000 OA
ENDROOT
BRANCH   2   4
ATOM      4  C   UNL     1      -0.438  10.537  21.867  0.00  0.00    +0.000 A 
ATOM      5  C   UNL     1      -0.390  10.599  20.518  0.00  0.00    +0.000 A 
ATOM      6  C   UNL     1       0.508   9.748  19.760  0.00  0.00    +0.000 A 
ATOM      7  C   UNL     1       0.853   9.996  18.434  0.00  0.00    +0.000 A 
ATOM      8  C   UNL     1       1.781   9.159  17.794  0.00  0.00    +0.000 A 
ATOM      9  C   UNL     1       2.338   8.068  18.471  0.00  0.00    +0.000 A 
ATOM     10  C   UNL     1       1.967   7.800  19.788  0.00  0.00    +0.000 A 
ATOM     11  C   UNL     1       1.058   8.650  20.417  0.00  0.00    +0.000 A 
ATOM     12  O   UNL     1       0.763   8.420  21.766  0.00  0.00    +0.000 OA
ATOM     13  C   UNL     1       0.479   9.566  22.504  0.00  0.00    +0.000 A 
ATOM     14  O   UNL     1       1.003   9.736  23.592  0.00  0.00    +0.000 OA
ENDBRANCH   2   4
BRANCH   1  15
ATOM     15  C   UNL     1      -1.834  13.863  23.264  0.00  0.00    +0.000 C 
ATOM     16  C   UNL     1      -0.902  14.940  23.768  0.00  0.00    +0.000 C 
ATOM     17  C   UNL     1      -1.471  16.116  24.053  0.00  0.00    +0.000 C 
ATOM     18  S   UNL     1      -3.168  16.085  23.719  0.00  0.00    +0.000 S 
ATOM     19  O   UNL     1      -3.890  15.927  24.964  0.00  0.00    +0.000 OA
ATOM     20  O   UNL     1      -3.486  17.142  22.781  0.00  0.00    +0.000 OA
ATOM     21  C   UNL     1      -3.153  14.517  22.849  0.00  0.00    +0.000 C 
ENDBRANCH   1  15
BRANCH   1  25
ATOM     22  C   UNL     1       1.476  14.536  19.334  0.00  0.00    +0.000 A 
ATOM     23  C   UNL     1       0.098  14.465  19.119  0.00  0.00    +0.000 A 
ATOM     24  C   UNL     1      -0.764  14.026  20.130  0.00  0.00    +0.000 A 
ATOM     25  C   UNL     1      -0.247  13.593  21.355  0.00  0.00    +0.000 A 
ATOM     26  C   UNL     1       1.121  13.734  21.603  0.00  0.00    +0.000 A 
ATOM     27  C   UNL     1       1.981  14.208  20.593  0.00  0.00    +0.000 A 
BRANCH  22  29
ATOM     28  C   UNL     1       3.580  14.511  18.208  0.00  0.00    +0.000 C 
ATOM     29  O   UNL     1       2.204  14.861  18.225  0.00  0.00    +0.000 OA
ENDBRANCH  22  29
ENDBRANCH   1  25
TORSDOF 4
ENDMDL
MODEL 7
REMARK VINA RESULT:      -7.3      3.950      8.235
REMARK  Name = 
REMARK  5 active torsions:
REMARK  status: ('A' for Active; 'I' for Inactive)
REMARK    1  A    between atoms: C_1  and  O_2
REMARK    2  A    between atoms: O_2  and  C_3
REMARK    3  A    between atoms: C_6  and  N_7
REMARK    4  A    between atoms: N_7  and  C_21
REMARK    5  A    between atoms: C_8  and  C_10
REMARK                            x       y       z     vdW  Elec       q    Type
REMARK                         _______ _______ _______ _____ _____    ______ ____
ROOT
ATOM      1  N   UNL     1       0.099  10.687  20.867  0.00  0.00    +0.000 N 
ATOM      2  C   UNL     1       1.017   9.690  21.226  0.00  0.00    +0.000 C 
ATOM      3  O   UNL     1       1.516   9.736  22.364  0.00  0.00    +0.000 OA
ENDROOT
BRANCH   2   4
ATOM      4  C   UNL     1       1.534   8.602  20.327  0.00  0.00    +0.000 A 
ATOM      5  C   UNL     1       1.394   7.357  20.835  0.00  0.00    +0.000 A 
ATOM      6  C   UNL     1       1.673   6.183  20.028  0.00  0.00    +0.000 A 
ATOM      7  C   UNL     1       1.229   4.907  20.363  0.00  0.00    +0.000 A 
ATOM      8  C   UNL     1       1.488   3.836  19.494  0.00  0.00    +0.000 A 
ATOM      9  C   UNL     1       2.208   4.039  18.311  0.00  0.00    +0.000 A 
ATOM     10  C   UNL     1       2.682   5.312  17.993  0.00  0.00    +0.000 A 
ATOM     11  C   UNL     1       2.402   6.370  18.856  0.00  0.00    +0.000 A 
ATOM     12  O   UNL     1       2.808   7.655  18.480  0.00  0.00    +0.000 OA
ATOM     13  C   UNL     1       1.975   8.681  18.918  0.00  0.00    +0.000 A 
ATOM     14  O   UNL     1       1.625   9.555  18.141  0.00  0.00    +0.000 OA
ENDBRANCH   2   4
BRANCH   1  15
ATOM     15  C   UNL     1      -0.009  11.823  21.813  0.00  0.00    +0.000 C 
ATOM     16  C   UNL     1       0.786  12.998  21.291  0.00  0.00    +0.000 C 
ATOM     17  C   UNL     1       0.296  14.208  21.581  0.00  0.00    +0.000 C 
ATOM     18  S   UNL     1      -1.183  14.085  22.471  0.00  0.00    +0.000 S 
ATOM     19  O   UNL     1      -0.912  14.339  23.871  0.00  0.00    +0.000 OA
ATOM     20  O   UNL     1      -2.226  14.789  21.755  0.00  0.00    +0.000 OA
ATOM     21  C   UNL     1      -1.395  12.321  22.228  0.00  0.00    +0.000 C 
ENDBRANCH   1  15
BRANCH   1  25
ATOM     22  C   UNL     1      -2.161  11.067  17.312  0.00  0.00    +0.000 A 
ATOM     23  C   UNL     1      -1.221  12.033  17.675  0.00  0.00    +0.000 A 
ATOM     24  C   UNL     1      -0.422  11.866  18.812  0.00  0.00    +0.000 A 
ATOM     25  C   UNL     1      -0.599  10.751  19.636  0.00  0.00    +0.000 A 
ATOM     26  C   UNL     1      -1.483   9.744  19.238  0.00  0.00    +0.000 A 
ATOM     27  C   UNL     1      -2.261   9.902  18.075  0.00  0.00    +0.000 A 
BRANCH  22  29
ATOM     28  C   UNL     1      -3.079  10.498  15.183  0.00  0.00    +0.000 C 
ATOM     29  O   UNL     1      -2.954  11.419  16.257  0.00  0.00    +0.000 OA
ENDBRANCH  22  29
ENDBRANCH   1  25
TORSDOF 4
ENDMDL
MODEL 8
REMARK VINA RESULT:      -7.2      4.624      7.237
REMARK  Name = 
REMARK  5 active torsions:
REMARK  status: ('A' for Active; 'I' for Inactive)
REMARK    1  A    between atoms: C_1  and  O_2
REMARK    2  A    between atoms: O_2  and  C_3
REMARK    3  A    between atoms: C_6  and  N_7
REMARK    4  A    between atoms: N_7  and  C_21
REMARK    5  A    between atoms: C_8  and  C_10
REMARK                            x       y       z     vdW  Elec       q    Type
REMARK                         _______ _______ _______ _____ _____    ______ ____
ROOT
ATOM      1  N   UNL     1      -0.314  10.737  18.401  0.00  0.00    +0.000 N 
ATOM      2  C   UNL     1      -0.203  12.100  18.709  0.00  0.00    +0.000 C 
ATOM      3  O   UNL     1      -1.116  12.859  18.339  0.00  0.00    +0.000 OA
ENDROOT
BRANCH   2   4
ATOM      4  C   UNL     1       0.971  12.762  19.374  0.00  0.00    +0.000 A 
ATOM      5  C   UNL     1       1.772  13.442  18.523  0.00  0.00    +0.000 A 
ATOM      6  C   UNL     1       2.845  14.285  19.017  0.00  0.00    +0.000 A 
ATOM      7  C   UNL     1       3.466  15.259  18.239  0.00  0.00    +0.000 A 
ATOM      8  C   UNL     1       4.452  16.076  18.815  0.00  0.00    +0.000 A 
ATOM      9  C   UNL     1       4.828  15.902  20.151  0.00  0.00    +0.000 A 
ATOM     10  C   UNL     1       4.228  14.905  20.920  0.00  0.00    +0.000 A 
ATOM     11  C   UNL     1       3.238  14.112  20.341  0.00  0.00    +0.000 A 
ATOM     12  O   UNL     1       2.585  13.175  21.150  0.00  0.00    +0.000 OA
ATOM     13  C   UNL     1       1.254  12.942  20.814  0.00  0.00    +0.000 A 
ATOM     14  O   UNL     1       0.399  12.930  21.684  0.00  0.00    +0.000 OA
ENDBRANCH   2   4
BRANCH   1  15
ATOM     15  C   UNL     1      -1.409  10.381  17.468  0.00  0.00    +0.000 C 
ATOM     16  C   UNL     1      -2.476   9.606  18.206  0.00  0.00    +0.000 C 
ATOM     17  C   UNL     1      -3.731   9.794  17.783  0.00  0.00    +0.000 C 
ATOM     18  S   UNL     1      -3.787  10.941  16.489  0.00  0.00    +0.000 S 
ATOM     19  O   UNL     1      -3.933  10.230  15.236  0.00  0.00    +0.000 OA
ATOM     20  O   UNL     1      -4.669  12.028  16.858  0.00  0.00    +0.000 OA
ATOM     21  C   UNL     1      -2.087  11.486  16.655  0.00  0.00    +0.000 C 
ENDBRANCH   1  15
BRANCH   1  25
ATOM     22  C   UNL     1       2.257   7.548  19.454  0.00  0.00    +0.000 A 
ATOM     23  C   UNL     1       2.232   8.054  18.153  0.00  0.00    +0.000 A 
ATOM     24  C   UNL     1       1.436   9.158  17.828  0.00  0.00    +0.000 A 
ATOM     25  C   UNL     1       0.605   9.733  18.794  0.00  0.00    +0.000 A 
ATOM     26  C   UNL     1       0.683   9.280  20.114  0.00  0.00    +0.000 A 
ATOM     27  C   UNL     1       1.511   8.190  20.443  0.00  0.00    +0.000 A 
BRANCH  22  29
ATOM     28  C   UNL     1       2.353   5.297  20.243  0.00  0.00    +0.000 C 
ATOM     29  O   UNL     1       2.979   6.396  19.598  0.00  0.00    +0.000 OA
ENDBRANCH  22  29
ENDBRANCH   1  25
TORSDOF 4
ENDMDL
MODEL 9
REMARK VINA RESULT:      -7.2      5.017      9.050
REMARK  Name = 
REMARK  5 active torsions:
REMARK  status: ('A' for Active; 'I' for Inactive)
REMARK    1  A    between atoms: C_1  and  O_2
REMARK    2  A    between atoms: O_2  and  C_3
REMARK    3  A    between atoms: C_6  and  N_7
REMARK    4  A    between atoms: N_7  and  C_21
REMARK    5  A    between atoms: C_8  and  C_10
REMARK                            x       y       z     vdW  Elec       q    Type
REMARK                         _______ _______ _______ _____ _____    ______ ____
ROOT
ATOM      1  N   UNL     1      -0.521  13.203  20.252  0.00  0.00    +0.000 N 
ATOM      2  C   UNL     1       0.442  12.444  20.932  0.00  0.00    +0.000 C 
ATOM      3  O   UNL     1       1.300  13.049  21.598  0.00  0.00    +0.000 OA
ENDROOT
BRANCH   2   4
ATOM      4  C   UNL     1       0.598  10.951  20.863  0.00  0.00    +0.000 A 
ATOM      5  C   UNL     1       1.094  10.504  19.687  0.00  0.00    +0.000 A 
ATOM      6  C   UNL     1       1.476   9.115  19.515  0.00  0.00    +0.000 A 
ATOM      7  C   UNL     1       2.294   8.674  18.478  0.00  0.00    +0.000 A 
ATOM      8  C   UNL     1       2.669   7.322  18.421  0.00  0.00    +0.000 A 
ATOM      9  C   UNL     1       2.206   6.416  19.382  0.00  0.00    +0.000 A 
ATOM     10  C   UNL     1       1.359   6.851  20.401  0.00  0.00    +0.000 A 
ATOM     11  C   UNL     1       1.010   8.200  20.456  0.00  0.00    +0.000 A 
ATOM     12  O   UNL     1       0.231   8.638  21.534  0.00  0.00    +0.000 OA
ATOM     13  C   UNL     1       0.484   9.945  21.941  0.00  0.00    +0.000 A 
ATOM     14  O   UNL     1       0.630  10.196  23.126  0.00  0.00    +0.000 OA
ENDBRANCH   2   4
BRANCH   1  15
ATOM     15  C   UNL     1      -0.275  14.664  20.222  0.00  0.00    +0.000 C 
ATOM     16  C   UNL     1      -0.012  15.107  18.801  0.00  0.00    +0.000 C 
ATOM     17  C   UNL     1      -0.435  16.336  18.487  0.00  0.00    +0.000 C 
ATOM     18  S   UNL     1      -1.225  17.087  19.830  0.00  0.00    +0.000 S 
ATOM     19  O   UNL     1      -0.315  18.029  20.446  0.00  0.00    +0.000 OA
ATOM     20  O   UNL     1      -2.567  17.465  19.440  0.00  0.00    +0.000 OA
ATOM     21  C   UNL     1      -1.307  15.608  20.841  0.00  0.00    +0.000 C 
ENDBRANCH   1  15
BRANCH   1  25
ATOM     22  C   UNL     1      -3.717  11.386  18.161  0.00  0.00    +0.000 A 
ATOM     23  C   UNL     1      -3.919  11.987  19.405  0.00  0.00    +0.000 A 
ATOM     24  C   UNL     1      -2.875  12.653  20.057  0.00  0.00    +0.000 A 
ATOM     25  C   UNL     1      -1.595  12.672  19.496  0.00  0.00    +0.000 A 
ATOM     26  C   UNL     1      -1.404  12.138  18.218  0.00  0.00    +0.000 A 
ATOM     27  C   UNL     1      -2.466  11.498  17.551  0.00  0.00    +0.000 A 
BRANCH  22  29
ATOM     28  C   UNL     1      -6.025  10.814  18.377  0.00  0.00    +0.000 C 
ATOM     29  O   UNL     1      -4.784  10.667  17.702  0.00  0.00    +0.000 OA
ENDBRANCH  22  29
ENDBRANCH   1  25
TORSDOF 4
ENDMDL
