MODEL 1
REMARK VINA RESULT:      -7.9      0.000      0.000
REMARK  Name = 
REMARK  10 active torsions:
REMARK  status: ('A' for Active; 'I' for Inactive)
REMARK    1  A    between atoms: C_1  and  C_2
REMARK    2  A    between atoms: C_2  and  C_3
REMARK    3  A    between atoms: C_2  and  N_11
REMARK    4  A    between atoms: C_3  and  C_4
REMARK    5  A    between atoms: C_4  and  C_5
REMARK    6  A    between atoms: C_12  and  C_14
REMARK    7  A    between atoms: C_14  and  O_15
REMARK    8  A    between atoms: O_15  and  C_16
REMARK    9  A    between atoms: C_16  and  C_18
REMARK   10  A    between atoms: C_18  and  C_19
REMARK                            x       y       z     vdW  Elec       q    Type
REMARK                         _______ _______ _______ _____ _____    ______ ____
ROOT
ATOM      1  N   UNL     1       5.389   5.707  17.583  0.00  0.00    +0.000 N 
ATOM      2  C   UNL     1       6.483   5.787  18.422  0.00  0.00    +0.000 C 
ATOM      3  O   UNL     1       6.477   5.378  19.587  0.00  0.00    +0.000 OA
ATOM      4  H   UNL     1       5.455   6.059  16.635  0.00  0.00    +0.000 HD
ENDROOT
BRANCH   1   6
ATOM      5  C   UNL     1       3.032   6.138  18.060  0.00  0.00    +0.000 C 
ATOM      6  C   UNL     1       4.142   5.084  18.015  0.00  0.00    +0.000 C 
BRANCH   6   7
ATOM      7  C   UNL     1       3.746   3.913  17.097  0.00  0.00    +0.000 C 
BRANCH   7   8
ATOM      8  C   UNL     1       3.617   2.571  17.831  0.00  0.00    +0.000 C 
BRANCH   8   9
ATOM      9  C   UNL     1       2.817   2.729  19.104  0.00  0.00    +0.000 A 
ATOM     10  C   UNL     1       3.421   2.589  20.359  0.00  0.00    +0.000 A 
ATOM     11  C   UNL     1       2.651   2.690  21.524  0.00  0.00    +0.000 A 
ATOM     12  C   UNL     1       1.282   2.921  21.437  0.00  0.00    +0.000 A 
ATOM     13  C   UNL     1       0.673   3.066  20.194  0.00  0.00    +0.000 A 
ATOM     14  C   UNL     1       1.439   2.972  19.031  0.00  0.00    +0.000 A 
ENDBRANCH   8   9
ENDBRANCH   7   8
ENDBRANCH   6   7
ENDBRANCH   1   6
BRANCH   2  15
ATOM     15  C   UNL     1       7.717   6.431  17.804  0.00  0.00    +0.000 C 
BRANCH  15  16
ATOM     16  O   UNL     1       8.323   7.368  18.697  0.00  0.00    +0.000 OA
BRANCH  16  17
ATOM     17  C   UNL     1       8.290   8.651  18.245  0.00  0.00    +0.000 C 
ATOM     18  O   UNL     1       7.675   9.042  17.259  0.00  0.00    +0.000 OA
BRANCH  17  19
ATOM     19  C   UNL     1       9.120   9.555  19.148  0.00  0.00    +0.000 C 
BRANCH  19  20
ATOM     20  C   UNL     1       9.255  10.978  18.597  0.00  0.00    +0.000 C 
ATOM     21  C   UNL     1      10.524  11.197  17.740  0.00  0.00    +0.000 C 
ATOM     22  C   UNL     1      11.166  12.441  18.379  0.00  0.00    +0.000 C 
ATOM     23  C   UNL     1      11.771  12.039  19.734  0.00  0.00    +0.000 C 
ATOM     24  C   UNL     1      10.533  11.885  20.629  0.00  0.00    +0.000 C 
ATOM     25  C   UNL     1       9.367  12.113  19.651  0.00  0.00    +0.000 C 
ATOM     26  C   UNL     1       9.941  13.252  18.799  0.00  0.00    +0.000 C 
ENDBRANCH  19  20
ENDBRANCH  17  19
ENDBRANCH  16  17
ENDBRANCH  15  16
ENDBRANCH   2  15
TORSDOF 9
ENDMDL
MODEL 2
REMARK VINA RESULT:      -7.9      0.753      1.700
REMARK  Name = 
REMARK  10 active torsions:
REMARK  status: ('A' for Active; 'I' for Inactive)
REMARK    1  A    between atoms: C_1  and  C_2
REMARK    2  A    between atoms: C_2  and  C_3
REMARK    3  A    between atoms: C_2  and  N_11
REMARK    4  A    between atoms: C_3  and  C_4
REMARK    5  A    between atoms: C_4  and  C_5
REMARK    6  A    between atoms: C_12  and  C_14
REMARK    7  A    between atoms: C_14  and  O_15
REMARK    8  A    between atoms: O_15  and  C_16
REMARK    9  A    between atoms: C_16  and  C_18
REMARK   10  A    between atoms: C_18  and  C_19
REMARK                            x       y       z     vdW  Elec       q    Type
REMARK                         _______ _______ _______ _____ _____    ______ ____
ROOT
ATOM      1  N   UNL     1       5.756   5.319  17.861  0.00  0.00    +0.000 N 
ATOM      2  C   UNL     1       6.620   5.456  18.929  0.00  0.00    +0.000 C 
ATOM      3  O   UNL     1       6.286   5.260  20.102  0.00  0.00    +0.000 OA
ATOM      4  H   UNL     1       6.089   5.491  16.919  0.00  0.00    +0.000 HD
ENDROOT
BRANCH   1   6
ATOM      5  C   UNL     1       3.435   6.080  17.876  0.00  0.00    +0.000 C 
ATOM      6  C   UNL     1       4.376   4.884  18.049  0.00  0.00    +0.000 C 
BRANCH   6   7
ATOM      7  C   UNL     1       4.001   3.750  17.077  0.00  0.00    +0.000 C 
BRANCH   7   8
ATOM      8  C   UNL     1       3.711   2.413  17.773  0.00  0.00    +0.000 C 
BRANCH   8   9
ATOM      9  C   UNL     1       2.835   2.617  18.988  0.00  0.00    +0.000 A 
ATOM     10  C   UNL     1       1.480   2.944  18.854  0.00  0.00    +0.000 A 
ATOM     11  C   UNL     1       0.699   3.178  19.992  0.00  0.00    +0.000 A 
ATOM     12  C   UNL     1       1.269   3.094  21.259  0.00  0.00    +0.000 A 
ATOM     13  C   UNL     1       2.614   2.766  21.402  0.00  0.00    +0.000 A 
ATOM     14  C   UNL     1       3.393   2.526  20.269  0.00  0.00    +0.000 A 
ENDBRANCH   8   9
ENDBRANCH   7   8
ENDBRANCH   6   7
ENDBRANCH   1   6
BRANCH   2  15
ATOM     15  C   UNL     1       8.035   5.879  18.558  0.00  0.00    +0.000 C 
BRANCH  15  16
ATOM     16  O   UNL     1       8.237   7.279  18.766  0.00  0.00    +0.000 OA
BRANCH  16  17
ATOM     17  C   UNL     1       7.869   8.045  17.704  0.00  0.00    +0.000 C 
ATOM     18  O   UNL     1       7.505   7.622  16.612  0.00  0.00    +0.000 OA
BRANCH  17  19
ATOM     19  C   UNL     1       7.957   9.524  18.060  0.00  0.00    +0.000 C 
BRANCH  19  20
ATOM     20  C   UNL     1       9.309   9.906  18.669  0.00  0.00    +0.000 C 
ATOM     21  C   UNL     1       9.211  10.442  20.116  0.00  0.00    +0.000 C 
ATOM     22  C   UNL     1       9.978  11.774  20.049  0.00  0.00    +0.000 C 
ATOM     23  C   UNL     1       9.121  12.794  19.281  0.00  0.00    +0.000 C 
ATOM     24  C   UNL     1       9.258  12.329  17.824  0.00  0.00    +0.000 C 
ATOM     25  C   UNL     1      10.089  11.040  17.949  0.00  0.00    +0.000 C 
ATOM     26  C   UNL     1      11.082  11.456  19.041  0.00  0.00    +0.000 C 
ENDBRANCH  19  20
ENDBRANCH  17  19
ENDBRANCH  16  17
ENDBRANCH  15  16
ENDBRANCH   2  15
TORSDOF 9
ENDMDL
MODEL 3
REMARK VINA RESULT:      -7.5      3.945      6.085
REMARK  Name = 
REMARK  10 active torsions:
REMARK  status: ('A' for Active; 'I' for Inactive)
REMARK    1  A    between atoms: C_1  and  C_2
REMARK    2  A    between atoms: C_2  and  C_3
REMARK    3  A    between atoms: C_2  and  N_11
REMARK    4  A    between atoms: C_3  and  C_4
REMARK    5  A    between atoms: C_4  and  C_5
REMARK    6  A    between atoms: C_12  and  C_14
REMARK    7  A    between atoms: C_14  and  O_15
REMARK    8  A    between atoms: O_15  and  C_16
REMARK    9  A    between atoms: C_16  and  C_18
REMARK   10  A    between atoms: C_18  and  C_19
REMARK                            x       y       z     vdW  Elec       q    Type
REMARK                         _______ _______ _______ _____ _____    ______ ____
ROOT
ATOM      1  N   UNL     1       3.060   3.511  19.483  0.00  0.00    +0.000 N 
ATOM      2  C   UNL     1       2.871   3.204  18.150  0.00  0.00    +0.000 C 
ATOM      3  O   UNL     1       1.758   3.033  17.644  0.00  0.00    +0.000 OA
ATOM      4  H   UNL     1       4.000   3.642  19.841  0.00  0.00    +0.000 HD
ENDROOT
BRANCH   1   6
ATOM      5  C   UNL     1       2.270   3.095  21.757  0.00  0.00    +0.000 C 
ATOM      6  C   UNL     1       1.932   3.696  20.389  0.00  0.00    +0.000 C 
BRANCH   6   7
ATOM      7  C   UNL     1       1.552   5.182  20.525  0.00  0.00    +0.000 C 
BRANCH   7   8
ATOM      8  C   UNL     1       2.642   6.144  20.030  0.00  0.00    +0.000 C 
BRANCH   8   9
ATOM      9  C   UNL     1       2.045   7.474  19.631  0.00  0.00    +0.000 A 
ATOM     10  C   UNL     1       2.199   7.974  18.332  0.00  0.00    +0.000 A 
ATOM     11  C   UNL     1       1.680   9.231  17.999  0.00  0.00    +0.000 A 
ATOM     12  C   UNL     1       1.018   9.990  18.958  0.00  0.00    +0.000 A 
ATOM     13  C   UNL     1       0.857   9.500  20.251  0.00  0.00    +0.000 A 
ATOM     14  C   UNL     1       1.367   8.244  20.585  0.00  0.00    +0.000 A 
ENDBRANCH   8   9
ENDBRANCH   7   8
ENDBRANCH   6   7
ENDBRANCH   1   6
BRANCH   2  15
ATOM     15  C   UNL     1       4.151   3.084  17.332  0.00  0.00    +0.000 C 
BRANCH  15  16
ATOM     16  O   UNL     1       4.216   4.079  16.309  0.00  0.00    +0.000 OA
BRANCH  16  17
ATOM     17  C   UNL     1       5.397   4.088  15.633  0.00  0.00    +0.000 C 
ATOM     18  O   UNL     1       5.993   3.096  15.228  0.00  0.00    +0.000 OA
BRANCH  17  19
ATOM     19  C   UNL     1       5.884   5.518  15.433  0.00  0.00    +0.000 C 
BRANCH  19  20
ATOM     20  C   UNL     1       7.060   5.876  16.347  0.00  0.00    +0.000 C 
ATOM     21  C   UNL     1       7.551   4.698  17.221  0.00  0.00    +0.000 C 
ATOM     22  C   UNL     1       7.546   5.290  18.641  0.00  0.00    +0.000 C 
ATOM     23  C   UNL     1       6.088   5.436  19.106  0.00  0.00    +0.000 C 
ATOM     24  C   UNL     1       5.592   6.649  18.306  0.00  0.00    +0.000 C 
ATOM     25  C   UNL     1       6.793   6.983  17.403  0.00  0.00    +0.000 C 
ATOM     26  C   UNL     1       7.948   6.742  18.382  0.00  0.00    +0.000 C 
ENDBRANCH  19  20
ENDBRANCH  17  19
ENDBRANCH  16  17
ENDBRANCH  15  16
ENDBRANCH   2  15
TORSDOF 9
ENDMDL
MODEL 4
REMARK VINA RESULT:      -7.5      4.998      7.700
REMARK  Name = 
REMARK  10 active torsions:
REMARK  status: ('A' for Active; 'I' for Inactive)
REMARK    1  A    between atoms: C_1  and  C_2
REMARK    2  A    between atoms: C_2  and  C_3
REMARK    3  A    between atoms: C_2  and  N_11
REMARK    4  A    between atoms: C_3  and  C_4
REMARK    5  A    between atoms: C_4  and  C_5
REMARK    6  A    between atoms: C_12  and  C_14
REMARK    7  A    between atoms: C_14  and  O_15
REMARK    8  A    between atoms: O_15  and  C_16
REMARK    9  A    between atoms: C_16  and  C_18
REMARK   10  A    between atoms: C_18  and  C_19
REMARK                            x       y       z     vdW  Elec       q    Type
REMARK                         _______ _______ _______ _____ _____    ______ ____
ROOT
ATOM      1  N   UNL     1       1.822   5.724  19.120  0.00  0.00    +0.000 N 
ATOM      2  C   UNL     1       1.919   4.601  19.918  0.00  0.00    +0.000 C 
ATOM      3  O   UNL     1       2.570   4.567  20.967  0.00  0.00    +0.000 OA
ATOM      4  H   UNL     1       1.271   5.691  18.270  0.00  0.00    +0.000 HD
ENDROOT
BRANCH   1   6
ATOM      5  C   UNL     1       2.733   7.811  18.235  0.00  0.00    +0.000 C 
ATOM      6  C   UNL     1       2.461   6.981  19.494  0.00  0.00    +0.000 C 
BRANCH   6   7
ATOM      7  C   UNL     1       1.604   7.776  20.497  0.00  0.00    +0.000 C 
BRANCH   7   8
ATOM      8  C   UNL     1       1.053   9.092  19.928  0.00  0.00    +0.000 C 
BRANCH   8   9
ATOM      9  C   UNL     1       0.263   9.841  20.976  0.00  0.00    +0.000 A 
ATOM     10  C   UNL     1      -0.142  11.165  20.766  0.00  0.00    +0.000 A 
ATOM     11  C   UNL     1      -0.831  11.856  21.770  0.00  0.00    +0.000 A 
ATOM     12  C   UNL     1      -1.108  11.232  22.983  0.00  0.00    +0.000 A 
ATOM     13  C   UNL     1      -0.713   9.915  23.199  0.00  0.00    +0.000 A 
ATOM     14  C   UNL     1      -0.032   9.221  22.197  0.00  0.00    +0.000 A 
ENDBRANCH   8   9
ENDBRANCH   7   8
ENDBRANCH   6   7
ENDBRANCH   1   6
BRANCH   2  15
ATOM     15  C   UNL     1       1.162   3.383  19.405  0.00  0.00    +0.000 C 
BRANCH  15  16
ATOM     16  O   UNL     1       1.427   3.145  18.021  0.00  0.00    +0.000 OA
BRANCH  16  17
ATOM     17  C   UNL     1       2.678   2.665  17.782  0.00  0.00    +0.000 C 
ATOM     18  O   UNL     1       3.141   1.626  18.237  0.00  0.00    +0.000 OA
BRANCH  17  19
ATOM     19  C   UNL     1       3.436   3.600  16.847  0.00  0.00    +0.000 C 
BRANCH  19  20
ATOM     20  C   UNL     1       4.923   3.711  17.200  0.00  0.00    +0.000 C 
ATOM     21  C   UNL     1       5.228   4.769  18.286  0.00  0.00    +0.000 C 
ATOM     22  C   UNL     1       6.329   5.627  17.639  0.00  0.00    +0.000 C 
ATOM     23  C   UNL     1       5.695   6.488  16.535  0.00  0.00    +0.000 C 
ATOM     24  C   UNL     1       5.445   5.474  15.409  0.00  0.00    +0.000 C 
ATOM     25  C   UNL     1       5.869   4.139  16.046  0.00  0.00    +0.000 C 
ATOM     26  C   UNL     1       7.108   4.589  16.831  0.00  0.00    +0.000 C 
ENDBRANCH  19  20
ENDBRANCH  17  19
ENDBRANCH  16  17
ENDBRANCH  15  16
ENDBRANCH   2  15
TORSDOF 9
ENDMDL
MODEL 5
REMARK VINA RESULT:      -7.3      3.942      8.655
REMARK  Name = 
REMARK  10 active torsions:
REMARK  status: ('A' for Active; 'I' for Inactive)
REMARK    1  A    between atoms: C_1  and  C_2
REMARK    2  A    between atoms: C_2  and  C_3
REMARK    3  A    between atoms: C_2  and  N_11
REMARK    4  A    between atoms: C_3  and  C_4
REMARK    5  A    between atoms: C_4  and  C_5
REMARK    6  A    between atoms: C_12  and  C_14
REMARK    7  A    between atoms: C_14  and  O_15
REMARK    8  A    between atoms: O_15  and  C_16
REMARK    9  A    between atoms: C_16  and  C_18
REMARK   10  A    between atoms: C_18  and  C_19
REMARK                            x       y       z     vdW  Elec       q    Type
REMARK                         _______ _______ _______ _____ _____    ______ ____
ROOT
ATOM      1  N   UNL     1       5.328   6.688  17.717  0.00  0.00    +0.000 N 
ATOM      2  C   UNL     1       4.354   7.308  16.960  0.00  0.00    +0.000 C 
ATOM      3  O   UNL     1       4.431   7.449  15.736  0.00  0.00    +0.000 OA
ATOM      4  H   UNL     1       5.206   6.600  18.719  0.00  0.00    +0.000 HD
ENDROOT
BRANCH   1   6
ATOM      5  C   UNL     1       7.747   6.441  17.951  0.00  0.00    +0.000 C 
ATOM      6  C   UNL     1       6.517   6.109  17.100  0.00  0.00    +0.000 C 
BRANCH   6   7
ATOM      7  C   UNL     1       6.376   4.587  16.916  0.00  0.00    +0.000 C 
BRANCH   7   8
ATOM      8  C   UNL     1       5.401   4.189  15.799  0.00  0.00    +0.000 C 
BRANCH   8   9
ATOM      9  C   UNL     1       6.088   4.209  14.453  0.00  0.00    +0.000 A 
ATOM     10  C   UNL     1       7.199   5.030  14.221  0.00  0.00    +0.000 A 
ATOM     11  C   UNL     1       7.789   5.070  12.952  0.00  0.00    +0.000 A 
ATOM     12  C   UNL     1       7.269   4.301  11.916  0.00  0.00    +0.000 A 
ATOM     13  C   UNL     1       6.168   3.479  12.138  0.00  0.00    +0.000 A 
ATOM     14  C   UNL     1       5.581   3.432  13.404  0.00  0.00    +0.000 A 
ENDBRANCH   8   9
ENDBRANCH   7   8
ENDBRANCH   6   7
ENDBRANCH   1   6
BRANCH   2  15
ATOM     15  C   UNL     1       3.158   7.823  17.752  0.00  0.00    +0.000 C 
BRANCH  15  16
ATOM     16  O   UNL     1       2.331   6.751  18.210  0.00  0.00    +0.000 OA
BRANCH  16  17
ATOM     17  C   UNL     1       2.331   6.605  19.563  0.00  0.00    +0.000 C 
ATOM     18  O   UNL     1       1.928   7.436  20.369  0.00  0.00    +0.000 OA
BRANCH  17  19
ATOM     19  C   UNL     1       2.894   5.243  19.951  0.00  0.00    +0.000 C 
BRANCH  19  20
ATOM     20  C   UNL     1       1.836   4.135  19.921  0.00  0.00    +0.000 C 
ATOM     21  C   UNL     1       2.339   2.778  20.466  0.00  0.00    +0.000 C 
ATOM     22  C   UNL     1       1.979   1.794  19.340  0.00  0.00    +0.000 C 
ATOM     23  C   UNL     1       2.936   2.029  18.159  0.00  0.00    +0.000 C 
ATOM     24  C   UNL     1       2.413   3.338  17.550  0.00  0.00    +0.000 C 
ATOM     25  C   UNL     1       1.290   3.747  18.520  0.00  0.00    +0.000 C 
ATOM     26  C   UNL     1       0.668   2.377  18.814  0.00  0.00    +0.000 C 
ENDBRANCH  19  20
ENDBRANCH  17  19
ENDBRANCH  16  17
ENDBRANCH  15  16
ENDBRANCH   2  15
TORSDOF 9
ENDMDL
MODEL 6
REMARK VINA RESULT:      -7.2      4.805      7.633
REMARK  Name = 
REMARK  10 active torsions:
REMARK  status: ('A' for Active; 'I' for Inactive)
REMARK    1  A    between atoms: C_1  and  C_2
REMARK    2  A    between atoms: C_2  and  C_3
REMARK    3  A    between atoms: C_2  and  N_11
REMARK    4  A    between atoms: C_3  and  C_4
REMARK    5  A    between atoms: C_4  and  C_5
REMARK    6  A    between atoms: C_12  and  C_14
REMARK    7  A    between atoms: C_14  and  O_15
REMARK    8  A    between atoms: O_15  and  C_16
REMARK    9  A    between atoms: C_16  and  C_18
REMARK   10  A    between atoms: C_18  and  C_19
REMARK                            x       y       z     vdW  Elec       q    Type
REMARK                         _______ _______ _______ _____ _____    ______ ____
ROOT
ATOM      1  N   UNL     1       2.641   5.806  20.201  0.00  0.00    +0.000 N 
ATOM      2  C   UNL     1       2.039   4.583  20.418  0.00  0.00    +0.000 C 
ATOM      3  O   UNL     1       0.819   4.405  20.353  0.00  0.00    +0.000 OA
ATOM      4  H   UNL     1       3.649   5.890  20.267  0.00  0.00    +0.000 HD
ENDROOT
BRANCH   1   6
ATOM      5  C   UNL     1       1.493   7.769  21.094  0.00  0.00    +0.000 C 
ATOM      6  C   UNL     1       1.862   6.983  19.832  0.00  0.00    +0.000 C 
BRANCH   6   7
ATOM      7  C   UNL     1       2.622   7.877  18.835  0.00  0.00    +0.000 C 
BRANCH   7   8
ATOM      8  C   UNL     1       1.731   8.467  17.733  0.00  0.00    +0.000 C 
BRANCH   8   9
ATOM      9  C   UNL     1       1.267   9.858  18.103  0.00  0.00    +0.000 A 
ATOM     10  C   UNL     1       2.166  10.930  18.149  0.00  0.00    +0.000 A 
ATOM     11  C   UNL     1       1.724  12.199  18.543  0.00  0.00    +0.000 A 
ATOM     12  C   UNL     1       0.393  12.397  18.897  0.00  0.00    +0.000 A 
ATOM     13  C   UNL     1      -0.509  11.338  18.850  0.00  0.00    +0.000 A 
ATOM     14  C   UNL     1      -0.072  10.072  18.452  0.00  0.00    +0.000 A 
ENDBRANCH   8   9
ENDBRANCH   7   8
ENDBRANCH   6   7
ENDBRANCH   1   6
BRANCH   2  15
ATOM     15  C   UNL     1       2.999   3.448  20.756  0.00  0.00    +0.000 C 
BRANCH  15  16
ATOM     16  O   UNL     1       4.028   3.321  19.773  0.00  0.00    +0.000 OA
BRANCH  16  17
ATOM     17  C   UNL     1       3.667   2.560  18.704  0.00  0.00    +0.000 C 
ATOM     18  O   UNL     1       3.185   1.434  18.762  0.00  0.00    +0.000 OA
BRANCH  17  19
ATOM     19  C   UNL     1       3.934   3.309  17.404  0.00  0.00    +0.000 C 
BRANCH  19  20
ATOM     20  C   UNL     1       4.879   4.500  17.591  0.00  0.00    +0.000 C 
ATOM     21  C   UNL     1       4.386   5.799  16.912  0.00  0.00    +0.000 C 
ATOM     22  C   UNL     1       5.597   6.234  16.068  0.00  0.00    +0.000 C 
ATOM     23  C   UNL     1       5.724   5.282  14.866  0.00  0.00    +0.000 C 
ATOM     24  C   UNL     1       6.282   4.001  15.500  0.00  0.00    +0.000 C 
ATOM     25  C   UNL     1       6.307   4.340  17.001  0.00  0.00    +0.000 C 
ATOM     26  C   UNL     1       6.770   5.800  16.947  0.00  0.00    +0.000 C 
ENDBRANCH  19  20
ENDBRANCH  17  19
ENDBRANCH  16  17
ENDBRANCH  15  16
ENDBRANCH   2  15
TORSDOF 9
ENDMDL
MODEL 7
REMARK VINA RESULT:      -7.2      4.984      7.797
REMARK  Name = 
REMARK  10 active torsions:
REMARK  status: ('A' for Active; 'I' for Inactive)
REMARK    1  A    between atoms: C_1  and  C_2
REMARK    2  A    between atoms: C_2  and  C_3
REMARK    3  A    between atoms: C_2  and  N_11
REMARK    4  A    between atoms: C_3  and  C_4
REMARK    5  A    between atoms: C_4  and  C_5
REMARK    6  A    between atoms: C_12  and  C_14
REMARK    7  A    between atoms: C_14  and  O_15
REMARK    8  A    between atoms: O_15  and  C_16
REMARK    9  A    between atoms: C_16  and  C_18
REMARK   10  A    between atoms: C_18  and  C_19
REMARK                            x       y       z     vdW  Elec       q    Type
REMARK                         _______ _______ _______ _____ _____    ______ ____
ROOT
ATOM      1  N   UNL     1       2.390   6.990  20.039  0.00  0.00    +0.000 N 
ATOM      2  C   UNL     1       2.111   5.651  20.230  0.00  0.00    +0.000 C 
ATOM      3  O   UNL     1       0.994   5.227  20.539  0.00  0.00    +0.000 OA
ATOM      4  H   UNL     1       3.327   7.277  19.783  0.00  0.00    +0.000 HD
ENDROOT
BRANCH   1   6
ATOM      5  C   UNL     1       1.371   8.604  21.563  0.00  0.00    +0.000 C 
ATOM      6  C   UNL     1       1.350   8.007  20.152  0.00  0.00    +0.000 C 
BRANCH   6   7
ATOM      7  C   UNL     1       1.517   9.109  19.091  0.00  0.00    +0.000 C 
BRANCH   7   8
ATOM      8  C   UNL     1       0.886  10.451  19.492  0.00  0.00    +0.000 C 
BRANCH   8   9
ATOM      9  C   UNL     1      -0.477  10.615  18.857  0.00  0.00    +0.000 A 
ATOM     10  C   UNL     1      -0.870   9.819  17.775  0.00  0.00    +0.000 A 
ATOM     11  C   UNL     1      -2.117  10.022  17.171  0.00  0.00    +0.000 A 
ATOM     12  C   UNL     1      -2.965  11.020  17.640  0.00  0.00    +0.000 A 
ATOM     13  C   UNL     1      -2.585  11.813  18.719  0.00  0.00    +0.000 A 
ATOM     14  C   UNL     1      -1.345  11.608  19.327  0.00  0.00    +0.000 A 
ENDBRANCH   8   9
ENDBRANCH   7   8
ENDBRANCH   6   7
ENDBRANCH   1   6
BRANCH   2  15
ATOM     15  C   UNL     1       3.299   4.716  20.035  0.00  0.00    +0.000 C 
BRANCH  15  16
ATOM     16  O   UNL     1       2.886   3.438  19.547  0.00  0.00    +0.000 OA
BRANCH  16  17
ATOM     17  C   UNL     1       2.918   3.338  18.190  0.00  0.00    +0.000 C 
ATOM     18  O   UNL     1       1.938   3.299  17.455  0.00  0.00    +0.000 OA
BRANCH  17  19
ATOM     19  C   UNL     1       4.359   3.292  17.695  0.00  0.00    +0.000 C 
BRANCH  19  20
ATOM     20  C   UNL     1       4.584   4.159  16.452  0.00  0.00    +0.000 C 
ATOM     21  C   UNL     1       5.906   3.852  15.710  0.00  0.00    +0.000 C 
ATOM     22  C   UNL     1       6.566   5.235  15.583  0.00  0.00    +0.000 C 
ATOM     23  C   UNL     1       7.079   5.662  16.969  0.00  0.00    +0.000 C 
ATOM     24  C   UNL     1       5.790   6.044  17.709  0.00  0.00    +0.000 C 
ATOM     25  C   UNL     1       4.689   5.689  16.694  0.00  0.00    +0.000 C 
ATOM     26  C   UNL     1       5.356   6.150  15.393  0.00  0.00    +0.000 C 
ENDBRANCH  19  20
ENDBRANCH  17  19
ENDBRANCH  16  17
ENDBRANCH  15  16
ENDBRANCH   2  15
TORSDOF 9
ENDMDL
MODEL 8
REMARK VINA RESULT:      -7.2      1.923      9.472
REMARK  Name = 
REMARK  10 active torsions:
REMARK  status: ('A' for Active; 'I' for Inactive)
REMARK    1  A    between atoms: C_1  and  C_2
REMARK    2  A    between atoms: C_2  and  C_3
REMARK    3  A    between atoms: C_2  and  N_11
REMARK    4  A    between atoms: C_3  and  C_4
REMARK    5  A    between atoms: C_4  and  C_5
REMARK    6  A    between atoms: C_12  and  C_14
REMARK    7  A    between atoms: C_14  and  O_15
REMARK    8  A    between atoms: O_15  and  C_16
REMARK    9  A    between atoms: C_16  and  C_18
REMARK   10  A    between atoms: C_18  and  C_19
REMARK                            x       y       z     vdW  Elec       q    Type
REMARK                         _______ _______ _______ _____ _____    ______ ____
ROOT
ATOM      1  N   UNL     1       6.896   6.790  16.797  0.00  0.00    +0.000 N 
ATOM      2  C   UNL     1       5.568   6.627  16.452  0.00  0.00    +0.000 C 
ATOM      3  O   UNL     1       4.632   7.051  17.137  0.00  0.00    +0.000 OA
ATOM      4  H   UNL     1       7.621   6.421  16.193  0.00  0.00    +0.000 HD
ENDROOT
BRANCH   1   6
ATOM      5  C   UNL     1       8.137   6.621  18.894  0.00  0.00    +0.000 C 
ATOM      6  C   UNL     1       7.286   7.524  17.996  0.00  0.00    +0.000 C 
BRANCH   6   7
ATOM      7  C   UNL     1       8.046   8.817  17.647  0.00  0.00    +0.000 C 
BRANCH   7   8
ATOM      8  C   UNL     1       8.913   9.351  18.796  0.00  0.00    +0.000 C 
BRANCH   8   9
ATOM      9  C   UNL     1       9.333  10.779  18.533  0.00  0.00    +0.000 A 
ATOM     10  C   UNL     1       8.520  11.647  17.794  0.00  0.00    +0.000 A 
ATOM     11  C   UNL     1       8.953  12.951  17.520  0.00  0.00    +0.000 A 
ATOM     12  C   UNL     1      10.194  13.385  17.975  0.00  0.00    +0.000 A 
ATOM     13  C   UNL     1      11.007  12.530  18.714  0.00  0.00    +0.000 A 
ATOM     14  C   UNL     1      10.576  11.232  18.994  0.00  0.00    +0.000 A 
ENDBRANCH   8   9
ENDBRANCH   7   8
ENDBRANCH   6   7
ENDBRANCH   1   6
BRANCH   2  15
ATOM     15  C   UNL     1       5.333   5.871  15.151  0.00  0.00    +0.000 C 
BRANCH  15  16
ATOM     16  O   UNL     1       4.713   4.604  15.385  0.00  0.00    +0.000 OA
BRANCH  16  17
ATOM     17  C   UNL     1       5.297   3.890  16.384  0.00  0.00    +0.000 C 
ATOM     18  O   UNL     1       6.499   3.848  16.622  0.00  0.00    +0.000 OA
BRANCH  17  19
ATOM     19  C   UNL     1       4.241   3.146  17.193  0.00  0.00    +0.000 C 
BRANCH  19  20
ATOM     20  C   UNL     1       3.846   3.888  18.474  0.00  0.00    +0.000 C 
ATOM     21  C   UNL     1       3.542   2.952  19.667  0.00  0.00    +0.000 C 
ATOM     22  C   UNL     1       2.157   3.426  20.140  0.00  0.00    +0.000 C 
ATOM     23  C   UNL     1       1.107   2.972  19.112  0.00  0.00    +0.000 C 
ATOM     24  C   UNL     1       1.336   3.935  17.938  0.00  0.00    +0.000 C 
ATOM     25  C   UNL     1       2.558   4.751  18.394  0.00  0.00    +0.000 C 
ATOM     26  C   UNL     1       2.230   4.931  19.881  0.00  0.00    +0.000 C 
ENDBRANCH  19  20
ENDBRANCH  17  19
ENDBRANCH  16  17
ENDBRANCH  15  16
ENDBRANCH   2  15
TORSDOF 9
ENDMDL
MODEL 9
REMARK VINA RESULT:      -7.2      5.163      7.602
REMARK  Name = 
REMARK  10 active torsions:
REMARK  status: ('A' for Active; 'I' for Inactive)
REMARK    1  A    between atoms: C_1  and  C_2
REMARK    2  A    between atoms: C_2  and  C_3
REMARK    3  A    between atoms: C_2  and  N_11
REMARK    4  A    between atoms: C_3  and  C_4
REMARK    5  A    between atoms: C_4  and  C_5
REMARK    6  A    between atoms: C_12  and  C_14
REMARK    7  A    between atoms: C_14  and  O_15
REMARK    8  A    between atoms: O_15  and  C_16
REMARK    9  A    between atoms: C_16  and  C_18
REMARK   10  A    between atoms: C_18  and  C_19
REMARK                            x       y       z     vdW  Elec       q    Type
REMARK                         _______ _______ _______ _____ _____    ______ ____
ROOT
ATOM      1  N   UNL     1       2.551   5.849  20.158  0.00  0.00    +0.000 N 
ATOM      2  C   UNL     1       1.883   4.660  20.370  0.00  0.00    +0.000 C 
ATOM      3  O   UNL     1       0.654   4.553  20.321  0.00  0.00    +0.000 OA
ATOM      4  H   UNL     1       3.563   5.874  20.210  0.00  0.00    +0.000 HD
ENDROOT
BRANCH   1   6
ATOM      5  C   UNL     1       1.582   7.891  21.083  0.00  0.00    +0.000 C 
ATOM      6  C   UNL     1       1.836   7.073  19.813  0.00  0.00    +0.000 C 
BRANCH   6   7
ATOM      7  C   UNL     1       2.607   7.906  18.773  0.00  0.00    +0.000 C 
BRANCH   7   8
ATOM      8  C   UNL     1       1.710   8.515  17.685  0.00  0.00    +0.000 C 
BRANCH   8   9
ATOM      9  C   UNL     1       1.226   9.888  18.094  0.00  0.00    +0.000 A 
ATOM     10  C   UNL     1       2.118  10.958  18.231  0.00  0.00    +0.000 A 
ATOM     11  C   UNL     1       1.655  12.208  18.659  0.00  0.00    +0.000 A 
ATOM     12  C   UNL     1       0.308  12.388  18.957  0.00  0.00    +0.000 A 
ATOM     13  C   UNL     1      -0.588  11.332  18.820  0.00  0.00    +0.000 A 
ATOM     14  C   UNL     1      -0.130  10.086  18.387  0.00  0.00    +0.000 A 
ENDBRANCH   8   9
ENDBRANCH   7   8
ENDBRANCH   6   7
ENDBRANCH   1   6
BRANCH   2  15
ATOM     15  C   UNL     1       2.780   3.468  20.681  0.00  0.00    +0.000 C 
BRANCH  15  16
ATOM     16  O   UNL     1       2.527   2.375  19.795  0.00  0.00    +0.000 OA
BRANCH  16  17
ATOM     17  C   UNL     1       2.846   2.642  18.500  0.00  0.00    +0.000 C 
ATOM     18  O   UNL     1       2.090   2.526  17.542  0.00  0.00    +0.000 OA
BRANCH  17  19
ATOM     19  C   UNL     1       4.288   3.122  18.395  0.00  0.00    +0.000 C 
BRANCH  19  20
ATOM     20  C   UNL     1       4.461   4.258  17.381  0.00  0.00    +0.000 C 
ATOM     21  C   UNL     1       5.244   3.846  16.112  0.00  0.00    +0.000 C 
ATOM     22  C   UNL     1       6.343   4.918  16.016  0.00  0.00    +0.000 C 
ATOM     23  C   UNL     1       7.381   4.656  17.120  0.00  0.00    +0.000 C 
ATOM     24  C   UNL     1       6.656   5.126  18.390  0.00  0.00    +0.000 C 
ATOM     25  C   UNL     1       5.256   5.499  17.871  0.00  0.00    +0.000 C 
ATOM     26  C   UNL     1       5.623   6.161  16.538  0.00  0.00    +0.000 C 
ENDBRANCH  19  20
ENDBRANCH  17  19
ENDBRANCH  16  17
ENDBRANCH  15  16
ENDBRANCH   2  15
TORSDOF 9
ENDMDL
