MODEL 1
REMARK VINA RESULT:      -6.6      0.000      0.000
REMARK  Name = 
REMARK  6 active torsions:
REMARK  status: ('A' for Active; 'I' for Inactive)
REMARK    1  A    between atoms: N_1  and  N_2
REMARK    2  A    between atoms: C_3  and  C_5
REMARK    3  A    between atoms: C_6  and  C_7
REMARK    4  A    between atoms: C_8  and  C_9
REMARK    5  A    between atoms: C_9  and  O_11
REMARK    6  A    between atoms: C_16  and  C_17
REMARK                            x       y       z     vdW  Elec       q    Type
REMARK                         _______ _______ _______ _____ _____    ______ ____
ROOT
ATOM      1  C   UNL     1       2.193   5.828  20.200  0.00  0.00    +0.000 C 
ATOM      2  C   UNL     1       2.400   4.482  20.261  0.00  0.00    +0.000 C 
ATOM      3  N   UNL     1       3.244   3.893  19.361  0.00  0.00    +0.000 N 
ATOM      4  C   UNL     1       3.408   2.685  18.782  0.00  0.00    +0.000 C 
ATOM      5  O   UNL     1       2.865   1.622  18.963  0.00  0.00    +0.000 OA
ATOM      6  C   UNL     1       4.320   3.255  17.800  0.00  0.00    +0.000 C 
ATOM      7  C   UNL     1       4.894   2.846  16.668  0.00  0.00    +0.000 C 
ATOM      8  C   UNL     1       4.252   4.568  18.554  0.00  0.00    +0.000 C 
ATOM      9  S   UNL     1       3.387   5.897  17.740  0.00  0.00    +0.000 S 
ATOM     10  O   UNL     1       2.206   5.401  17.050  0.00  0.00    +0.000 OA
ATOM     11  O   UNL     1       4.310   6.782  17.052  0.00  0.00    +0.000 OA
ATOM     12  C   UNL     1       2.846   6.765  19.187  0.00  0.00    +0.000 C 
ENDROOT
BRANCH   7  13
ATOM     13  C   UNL     1       5.757   3.699  15.848  0.00  0.00    +0.000 A 
ATOM     14  C   UNL     1       5.600   3.758  14.470  0.00  0.00    +0.000 A 
ATOM     15  C   UNL     1       6.471   4.559  13.738  0.00  0.00    +0.000 A 
ATOM     16  C   UNL     1       7.460   5.276  14.400  0.00  0.00    +0.000 A 
ATOM     17  C   UNL     1       7.524   5.180  15.781  0.00  0.00    +0.000 A 
ATOM     18  N   UNL     1       6.698   4.405  16.520  0.00  0.00    +0.000 NA
ENDBRANCH   7  13
BRANCH   1  20
ATOM     19  C   UNL     1       1.005   7.915  20.843  0.00  0.00    +0.000 C 
ATOM     20  C   UNL     1       1.287   6.618  21.041  0.00  0.00    +0.000 C 
BRANCH  19  22
ATOM     21  N   UNL     1       0.670   9.933  22.075  0.00  0.00    +0.000 N 
ATOM     22  C   UNL     1       0.174   8.658  21.828  0.00  0.00    +0.000 C 
ATOM     23  O   UNL     1      -0.804   8.154  22.364  0.00  0.00    +0.000 OA
ATOM     24  H   UNL     1       1.370  10.323  21.446  0.00  0.00    +0.000 HD
BRANCH  21  25
ATOM     25  N   UNL     1      -0.022  10.796  22.950  0.00  0.00    +0.000 NA
ATOM     26  H   UNL     1      -0.574  11.465  22.412  0.00  0.00    +0.000 HD
ATOM     27  H   UNL     1       0.678  11.343  23.462  0.00  0.00    +0.000 HD
ENDBRANCH  21  25
ENDBRANCH  19  22
ENDBRANCH   1  20
BRANCH   2  28
ATOM     28  C   UNL     1       1.733   3.639  21.329  0.00  0.00    +0.000 C 
ATOM     29  O   UNL     1       2.199   3.493  22.449  0.00  0.00    +0.000 OA
BRANCH  28  30
ATOM     30  O   UNL     1       0.598   2.993  20.991  0.00  0.00    +0.000 OA
ATOM     31  H   UNL     1      -0.041   3.412  20.372  0.00  0.00    +0.000 HD
ENDBRANCH  28  30
ENDBRANCH   2  28
TORSDOF 6
ENDMDL
MODEL 2
REMARK VINA RESULT:      -6.6      2.603      3.645
REMARK  Name = 
REMARK  6 active torsions:
REMARK  status: ('A' for Active; 'I' for Inactive)
REMARK    1  A    between atoms: N_1  and  N_2
REMARK    2  A    between atoms: C_3  and  C_5
REMARK    3  A    between atoms: C_6  and  C_7
REMARK    4  A    between atoms: C_8  and  C_9
REMARK    5  A    between atoms: C_9  and  O_11
REMARK    6  A    between atoms: C_16  and  C_17
REMARK                            x       y       z     vdW  Elec       q    Type
REMARK                         _______ _______ _______ _____ _____    ______ ____
ROOT
ATOM      1  C   UNL     1       1.521   8.993  19.256  0.00  0.00    +0.000 C 
ATOM      2  C   UNL     1       1.518   8.048  20.238  0.00  0.00    +0.000 C 
ATOM      3  N   UNL     1       2.341   6.961  20.125  0.00  0.00    +0.000 N 
ATOM      4  C   UNL     1       2.372   5.680  20.546  0.00  0.00    +0.000 C 
ATOM      5  O   UNL     1       1.662   5.059  21.301  0.00  0.00    +0.000 OA
ATOM      6  C   UNL     1       3.442   5.374  19.606  0.00  0.00    +0.000 C 
ATOM      7  C   UNL     1       4.046   4.273  19.160  0.00  0.00    +0.000 C 
ATOM      8  C   UNL     1       3.505   6.848  19.257  0.00  0.00    +0.000 C 
ATOM      9  S   UNL     1       2.924   7.295  17.632  0.00  0.00    +0.000 S 
ATOM     10  O   UNL     1       1.748   6.519  17.271  0.00  0.00    +0.000 OA
ATOM     11  O   UNL     1       4.026   7.419  16.695  0.00  0.00    +0.000 OA
ATOM     12  C   UNL     1       2.394   8.945  18.003  0.00  0.00    +0.000 C 
ENDROOT
BRANCH   7  13
ATOM     13  C   UNL     1       5.096   4.286  18.139  0.00  0.00    +0.000 A 
ATOM     14  C   UNL     1       4.804   4.001  16.812  0.00  0.00    +0.000 A 
ATOM     15  C   UNL     1       5.848   3.994  15.891  0.00  0.00    +0.000 A 
ATOM     16  C   UNL     1       7.138   4.279  16.320  0.00  0.00    +0.000 A 
ATOM     17  C   UNL     1       7.332   4.581  17.658  0.00  0.00    +0.000 A 
ATOM     18  N   UNL     1       6.341   4.588  18.578  0.00  0.00    +0.000 NA
ENDBRANCH   7  13
BRANCH   1  20
ATOM     19  C   UNL     1      -0.444  10.280  18.442  0.00  0.00    +0.000 C 
ATOM     20  C   UNL     1       0.673  10.188  19.181  0.00  0.00    +0.000 C 
BRANCH  19  22
ATOM     21  N   UNL     1      -0.289  12.657  18.270  0.00  0.00    +0.000 N 
ATOM     22  C   UNL     1      -1.162  11.578  18.334  0.00  0.00    +0.000 C 
ATOM     23  O   UNL     1      -2.385  11.646  18.343  0.00  0.00    +0.000 OA
ATOM     24  H   UNL     1       0.698  12.485  18.081  0.00  0.00    +0.000 HD
BRANCH  21  25
ATOM     25  N   UNL     1      -0.798  13.963  18.117  0.00  0.00    +0.000 NA
ATOM     26  H   UNL     1      -0.169  14.514  17.533  0.00  0.00    +0.000 HD
ATOM     27  H   UNL     1      -0.796  14.405  19.043  0.00  0.00    +0.000 HD
ENDBRANCH  21  25
ENDBRANCH  19  22
ENDBRANCH   1  20
BRANCH   2  28
ATOM     28  C   UNL     1       0.641   8.202  21.464  0.00  0.00    +0.000 C 
ATOM     29  O   UNL     1      -0.505   7.783  21.520  0.00  0.00    +0.000 OA
BRANCH  28  30
ATOM     30  O   UNL     1       1.155   8.877  22.513  0.00  0.00    +0.000 OA
ATOM     31  H   UNL     1       0.972   9.838  22.617  0.00  0.00    +0.000 HD
ENDBRANCH  28  30
ENDBRANCH   2  28
TORSDOF 6
ENDMDL
MODEL 3
REMARK VINA RESULT:      -6.5      9.732     12.699
REMARK  Name = 
REMARK  6 active torsions:
REMARK  status: ('A' for Active; 'I' for Inactive)
REMARK    1  A    between atoms: N_1  and  N_2
REMARK    2  A    between atoms: C_3  and  C_5
REMARK    3  A    between atoms: C_6  and  C_7
REMARK    4  A    between atoms: C_8  and  C_9
REMARK    5  A    between atoms: C_9  and  O_11
REMARK    6  A    between atoms: C_16  and  C_17
REMARK                            x       y       z     vdW  Elec       q    Type
REMARK                         _______ _______ _______ _____ _____    ______ ____
ROOT
ATOM      1  C   UNL     1       9.766  11.446  19.858  0.00  0.00    +0.000 C 
ATOM      2  C   UNL     1      10.468  12.396  19.178  0.00  0.00    +0.000 C 
ATOM      3  N   UNL     1      10.667  13.621  19.753  0.00  0.00    +0.000 N 
ATOM      4  C   UNL     1      10.872  14.894  19.355  0.00  0.00    +0.000 C 
ATOM      5  O   UNL     1      11.051  15.380  18.263  0.00  0.00    +0.000 OA
ATOM      6  C   UNL     1      10.608  15.381  20.701  0.00  0.00    +0.000 C 
ATOM      7  C   UNL     1      10.409  16.569  21.274  0.00  0.00    +0.000 C 
ATOM      8  C   UNL     1      10.537  13.941  21.168  0.00  0.00    +0.000 C 
ATOM      9  S   UNL     1       8.924  13.346  21.637  0.00  0.00    +0.000 S 
ATOM     10  O   UNL     1       7.901  13.863  20.743  0.00  0.00    +0.000 OA
ATOM     11  O   UNL     1       8.734  13.418  23.075  0.00  0.00    +0.000 OA
ATOM     12  C   UNL     1       9.168  11.634  21.251  0.00  0.00    +0.000 C 
ENDROOT
BRANCH   7  13
ATOM     13  C   UNL     1      10.107  16.738  22.697  0.00  0.00    +0.000 A 
ATOM     14  C   UNL     1      11.112  16.665  23.652  0.00  0.00    +0.000 A 
ATOM     15  C   UNL     1      10.762  16.798  24.993  0.00  0.00    +0.000 A 
ATOM     16  C   UNL     1       9.431  17.007  25.333  0.00  0.00    +0.000 A 
ATOM     17  C   UNL     1       8.500  17.096  24.311  0.00  0.00    +0.000 A 
ATOM     18  N   UNL     1       8.807  16.962  23.001  0.00  0.00    +0.000 NA
ENDBRANCH   7  13
BRANCH   1  20
ATOM     19  C   UNL     1       8.560   9.860  18.371  0.00  0.00    +0.000 C 
ATOM     20  C   UNL     1       9.410  10.105  19.381  0.00  0.00    +0.000 C 
BRANCH  19  22
ATOM     21  N   UNL     1       8.537   7.570  19.047  0.00  0.00    +0.000 N 
ATOM     22  C   UNL     1       8.167   8.463  18.048  0.00  0.00    +0.000 C 
ATOM     23  O   UNL     1       7.616   8.170  16.995  0.00  0.00    +0.000 OA
ATOM     24  H   UNL     1       8.817   7.933  19.957  0.00  0.00    +0.000 HD
BRANCH  21  25
ATOM     25  N   UNL     1       8.200   6.206  18.928  0.00  0.00    +0.000 NA
ATOM     26  H   UNL     1       7.295   6.112  18.467  0.00  0.00    +0.000 HD
ATOM     27  H   UNL     1       8.082   5.833  19.877  0.00  0.00    +0.000 HD
ENDBRANCH  21  25
ENDBRANCH  19  22
ENDBRANCH   1  20
BRANCH   2  28
ATOM     28  C   UNL     1      11.055  12.103  17.812  0.00  0.00    +0.000 C 
ATOM     29  O   UNL     1      10.517  12.443  16.770  0.00  0.00    +0.000 OA
BRANCH  28  30
ATOM     30  O   UNL     1      12.200  11.392  17.769  0.00  0.00    +0.000 OA
ATOM     31  H   UNL     1      12.904  11.552  18.437  0.00  0.00    +0.000 HD
ENDBRANCH  28  30
ENDBRANCH   2  28
TORSDOF 6
ENDMDL
MODEL 4
REMARK VINA RESULT:      -6.4      3.917      6.635
REMARK  Name = 
REMARK  6 active torsions:
REMARK  status: ('A' for Active; 'I' for Inactive)
REMARK    1  A    between atoms: N_1  and  N_2
REMARK    2  A    between atoms: C_3  and  C_5
REMARK    3  A    between atoms: C_6  and  C_7
REMARK    4  A    between atoms: C_8  and  C_9
REMARK    5  A    between atoms: C_9  and  O_11
REMARK    6  A    between atoms: C_16  and  C_17
REMARK                            x       y       z     vdW  Elec       q    Type
REMARK                         _______ _______ _______ _____ _____    ______ ____
ROOT
ATOM      1  C   UNL     1      -0.447  10.999  20.700  0.00  0.00    +0.000 C 
ATOM      2  C   UNL     1       0.210  11.274  19.537  0.00  0.00    +0.000 C 
ATOM      3  N   UNL     1       0.908  10.277  18.911  0.00  0.00    +0.000 N 
ATOM      4  C   UNL     1       1.970  10.164  18.088  0.00  0.00    +0.000 C 
ATOM      5  O   UNL     1       2.644  10.989  17.519  0.00  0.00    +0.000 OA
ATOM      6  C   UNL     1       2.036   8.730  18.335  0.00  0.00    +0.000 C 
ATOM      7  C   UNL     1       2.897   7.747  18.073  0.00  0.00    +0.000 C 
ATOM      8  C   UNL     1       0.750   8.846  19.129  0.00  0.00    +0.000 C 
ATOM      9  S   UNL     1       0.893   8.621  20.892  0.00  0.00    +0.000 S 
ATOM     10  O   UNL     1       2.108   9.240  21.396  0.00  0.00    +0.000 OA
ATOM     11  O   UNL     1       0.558   7.262  21.277  0.00  0.00    +0.000 OA
ATOM     12  C   UNL     1      -0.476   9.633  21.383  0.00  0.00    +0.000 C 
ENDROOT
BRANCH   7  13
ATOM     13  C   UNL     1       2.699   6.363  18.511  0.00  0.00    +0.000 A 
ATOM     14  C   UNL     1       1.908   5.489  17.776  0.00  0.00    +0.000 A 
ATOM     15  C   UNL     1       1.727   4.196  18.258  0.00  0.00    +0.000 A 
ATOM     16  C   UNL     1       2.343   3.817  19.445  0.00  0.00    +0.000 A 
ATOM     17  C   UNL     1       3.138   4.746  20.096  0.00  0.00    +0.000 A 
ATOM     18  N   UNL     1       3.327   6.012  19.658  0.00  0.00    +0.000 NA
ENDBRANCH   7  13
BRANCH   1  20
ATOM     19  C   UNL     1      -1.717  11.654  22.735  0.00  0.00    +0.000 C 
ATOM     20  C   UNL     1      -1.195  11.947  21.533  0.00  0.00    +0.000 C 
BRANCH  19  22
ATOM     21  N   UNL     1      -3.687  12.061  24.021  0.00  0.00    +0.000 N 
ATOM     22  C   UNL     1      -2.568  12.647  23.442  0.00  0.00    +0.000 C 
ATOM     23  O   UNL     1      -2.297  13.842  23.456  0.00  0.00    +0.000 OA
ATOM     24  H   UNL     1      -3.722  11.047  24.114  0.00  0.00    +0.000 HD
BRANCH  21  25
ATOM     25  N   UNL     1      -4.581  12.849  24.774  0.00  0.00    +0.000 NA
ATOM     26  H   UNL     1      -4.383  13.839  24.621  0.00  0.00    +0.000 HD
ATOM     27  H   UNL     1      -4.394  12.666  25.766  0.00  0.00    +0.000 HD
ENDBRANCH  21  25
ENDBRANCH  19  22
ENDBRANCH   1  20
BRANCH   2  28
ATOM     28  C   UNL     1       0.150  12.654  18.917  0.00  0.00    +0.000 C 
ATOM     29  O   UNL     1       0.816  13.595  19.321  0.00  0.00    +0.000 OA
BRANCH  28  30
ATOM     30  O   UNL     1      -0.719  12.841  17.903  0.00  0.00    +0.000 OA
ATOM     31  H   UNL     1      -1.506  13.417  18.029  0.00  0.00    +0.000 HD
ENDBRANCH  28  30
ENDBRANCH   2  28
TORSDOF 6
ENDMDL
MODEL 5
REMARK VINA RESULT:      -6.4      5.607     11.413
REMARK  Name = 
REMARK  6 active torsions:
REMARK  status: ('A' for Active; 'I' for Inactive)
REMARK    1  A    between atoms: N_1  and  N_2
REMARK    2  A    between atoms: C_3  and  C_5
REMARK    3  A    between atoms: C_6  and  C_7
REMARK    4  A    between atoms: C_8  and  C_9
REMARK    5  A    between atoms: C_9  and  O_11
REMARK    6  A    between atoms: C_16  and  C_17
REMARK                            x       y       z     vdW  Elec       q    Type
REMARK                         _______ _______ _______ _____ _____    ______ ____
ROOT
ATOM      1  C   UNL     1      -0.287  11.082  19.793  0.00  0.00    +0.000 C 
ATOM      2  C   UNL     1      -1.489  11.460  19.273  0.00  0.00    +0.000 C 
ATOM      3  N   UNL     1      -2.237  12.399  19.929  0.00  0.00    +0.000 N 
ATOM      4  C   UNL     1      -3.538  12.734  20.055  0.00  0.00    +0.000 C 
ATOM      5  O   UNL     1      -4.534  12.329  19.506  0.00  0.00    +0.000 OA
ATOM      6  C   UNL     1      -3.229  13.592  21.191  0.00  0.00    +0.000 C 
ATOM      7  C   UNL     1      -3.925  14.246  22.121  0.00  0.00    +0.000 C 
ATOM      8  C   UNL     1      -1.757  13.333  20.938  0.00  0.00    +0.000 C 
ATOM      9  S   UNL     1      -0.919  12.326  22.147  0.00  0.00    +0.000 S 
ATOM     10  O   UNL     1      -1.773  11.240  22.599  0.00  0.00    +0.000 OA
ATOM     11  O   UNL     1      -0.214  13.145  23.117  0.00  0.00    +0.000 OA
ATOM     12  C   UNL     1       0.318  11.636  21.081  0.00  0.00    +0.000 C 
ENDROOT
BRANCH   7  13
ATOM     13  C   UNL     1      -3.303  15.014  23.202  0.00  0.00    +0.000 A 
ATOM     14  C   UNL     1      -3.203  14.489  24.483  0.00  0.00    +0.000 A 
ATOM     15  C   UNL     1      -2.634  15.277  25.480  0.00  0.00    +0.000 A 
ATOM     16  C   UNL     1      -2.180  16.552  25.165  0.00  0.00    +0.000 A 
ATOM     17  C   UNL     1      -2.294  16.983  23.853  0.00  0.00    +0.000 A 
ATOM     18  N   UNL     1      -2.849  16.245  22.865  0.00  0.00    +0.000 NA
ENDBRANCH   7  13
BRANCH   1  20
ATOM     19  C   UNL     1       0.998   8.959  19.932  0.00  0.00    +0.000 C 
ATOM     20  C   UNL     1       0.619  10.058  19.262  0.00  0.00    +0.000 C 
BRANCH  19  22
ATOM     21  N   UNL     1       2.354   7.015  20.223  0.00  0.00    +0.000 N 
ATOM     22  C   UNL     1       2.021   8.047  19.354  0.00  0.00    +0.000 C 
ATOM     23  O   UNL     1       2.515   8.241  18.250  0.00  0.00    +0.000 OA
ATOM     24  H   UNL     1       1.758   6.835  21.029  0.00  0.00    +0.000 HD
BRANCH  21  25
ATOM     25  N   UNL     1       3.276   6.028  19.818  0.00  0.00    +0.000 NA
ATOM     26  H   UNL     1       3.893   6.405  19.098  0.00  0.00    +0.000 HD
ATOM     27  H   UNL     1       2.743   5.271  19.376  0.00  0.00    +0.000 HD
ENDBRANCH  21  25
ENDBRANCH  19  22
ENDBRANCH   1  20
BRANCH   2  28
ATOM     28  C   UNL     1      -1.990  10.879  17.966  0.00  0.00    +0.000 C 
ATOM     29  O   UNL     1      -2.462   9.756  17.876  0.00  0.00    +0.000 OA
BRANCH  28  30
ATOM     30  O   UNL     1      -1.856  11.636  16.858  0.00  0.00    +0.000 OA
ATOM     31  H   UNL     1      -1.235  11.361  16.147  0.00  0.00    +0.000 HD
ENDBRANCH  28  30
ENDBRANCH   2  28
TORSDOF 6
ENDMDL
MODEL 6
REMARK VINA RESULT:      -6.3      2.865      7.239
REMARK  Name = 
REMARK  6 active torsions:
REMARK  status: ('A' for Active; 'I' for Inactive)
REMARK    1  A    between atoms: N_1  and  N_2
REMARK    2  A    between atoms: C_3  and  C_5
REMARK    3  A    between atoms: C_6  and  C_7
REMARK    4  A    between atoms: C_8  and  C_9
REMARK    5  A    between atoms: C_9  and  O_11
REMARK    6  A    between atoms: C_16  and  C_17
REMARK                            x       y       z     vdW  Elec       q    Type
REMARK                         _______ _______ _______ _____ _____    ______ ____
ROOT
ATOM      1  C   UNL     1       4.386   3.860  19.399  0.00  0.00    +0.000 C 
ATOM      2  C   UNL     1       4.964   4.685  18.480  0.00  0.00    +0.000 C 
ATOM      3  N   UNL     1       4.408   5.911  18.239  0.00  0.00    +0.000 N 
ATOM      4  C   UNL     1       4.339   6.798  17.225  0.00  0.00    +0.000 C 
ATOM      5  O   UNL     1       4.874   6.831  16.142  0.00  0.00    +0.000 OA
ATOM      6  C   UNL     1       3.275   7.524  17.903  0.00  0.00    +0.000 C 
ATOM      7  C   UNL     1       2.419   8.497  17.586  0.00  0.00    +0.000 C 
ATOM      8  C   UNL     1       3.471   6.618  19.102  0.00  0.00    +0.000 C 
ATOM      9  S   UNL     1       2.162   5.452  19.428  0.00  0.00    +0.000 S 
ATOM     10  O   UNL     1       1.638   4.902  18.188  0.00  0.00    +0.000 OA
ATOM     11  O   UNL     1       1.251   5.955  20.441  0.00  0.00    +0.000 OA
ATOM     12  C   UNL     1       3.138   4.197  20.210  0.00  0.00    +0.000 C 
ENDROOT
BRANCH   7  13
ATOM     13  C   UNL     1       1.394   9.000  18.503  0.00  0.00    +0.000 A 
ATOM     14  C   UNL     1       0.189   9.495  18.024  0.00  0.00    +0.000 A 
ATOM     15  C   UNL     1      -0.734   9.992  18.939  0.00  0.00    +0.000 A 
ATOM     16  C   UNL     1      -0.430   9.971  20.295  0.00  0.00    +0.000 A 
ATOM     17  C   UNL     1       0.785   9.431  20.686  0.00  0.00    +0.000 A 
ATOM     18  N   UNL     1       1.706   8.948  19.821  0.00  0.00    +0.000 NA
ENDBRANCH   7  13
BRANCH   1  20
ATOM     19  C   UNL     1       4.944   2.042  21.002  0.00  0.00    +0.000 C 
ATOM     20  C   UNL     1       4.808   2.498  19.746  0.00  0.00    +0.000 C 
BRANCH  19  22
ATOM     21  N   UNL     1       5.685  -0.027  20.069  0.00  0.00    +0.000 N 
ATOM     22  C   UNL     1       5.500   0.685  21.248  0.00  0.00    +0.000 C 
ATOM     23  O   UNL     1       5.720   0.268  22.378  0.00  0.00    +0.000 OA
ATOM     24  H   UNL     1       5.652   0.470  19.180  0.00  0.00    +0.000 HD
BRANCH  21  25
ATOM     25  N   UNL     1       6.251  -1.318  20.111  0.00  0.00    +0.000 NA
ATOM     26  H   UNL     1       6.269  -1.720  19.174  0.00  0.00    +0.000 HD
ATOM     27  H   UNL     1       5.626  -1.910  20.669  0.00  0.00    +0.000 HD
ENDBRANCH  21  25
ENDBRANCH  19  22
ENDBRANCH   1  20
BRANCH   2  28
ATOM     28  C   UNL     1       6.227   4.275  17.750  0.00  0.00    +0.000 C 
ATOM     29  O   UNL     1       7.343   4.400  18.230  0.00  0.00    +0.000 OA
BRANCH  28  30
ATOM     30  O   UNL     1       6.091   3.796  16.497  0.00  0.00    +0.000 OA
ATOM     31  H   UNL     1       6.523   2.950  16.244  0.00  0.00    +0.000 HD
ENDBRANCH  28  30
ENDBRANCH   2  28
TORSDOF 6
ENDMDL
MODEL 7
REMARK VINA RESULT:      -6.3      9.074     12.940
REMARK  Name = 
REMARK  6 active torsions:
REMARK  status: ('A' for Active; 'I' for Inactive)
REMARK    1  A    between atoms: N_1  and  N_2
REMARK    2  A    between atoms: C_3  and  C_5
REMARK    3  A    between atoms: C_6  and  C_7
REMARK    4  A    between atoms: C_8  and  C_9
REMARK    5  A    between atoms: C_9  and  O_11
REMARK    6  A    between atoms: C_16  and  C_17
REMARK                            x       y       z     vdW  Elec       q    Type
REMARK                         _______ _______ _______ _____ _____    ______ ____
ROOT
ATOM      1  C   UNL     1      -4.065  11.173  17.853  0.00  0.00    +0.000 C 
ATOM      2  C   UNL     1      -2.994  11.726  18.489  0.00  0.00    +0.000 C 
ATOM      3  N   UNL     1      -3.182  12.367  19.682  0.00  0.00    +0.000 N 
ATOM      4  C   UNL     1      -2.597  13.354  20.392  0.00  0.00    +0.000 C 
ATOM      5  O   UNL     1      -1.575  13.975  20.223  0.00  0.00    +0.000 OA
ATOM      6  C   UNL     1      -3.757  13.442  21.268  0.00  0.00    +0.000 C 
ATOM      7  C   UNL     1      -4.190  14.278  22.212  0.00  0.00    +0.000 C 
ATOM      8  C   UNL     1      -4.334  12.230  20.563  0.00  0.00    +0.000 C 
ATOM      9  S   UNL     1      -5.754  12.526  19.527  0.00  0.00    +0.000 S 
ATOM     10  O   UNL     1      -5.615  13.780  18.804  0.00  0.00    +0.000 OA
ATOM     11  O   UNL     1      -6.989  12.226  20.229  0.00  0.00    +0.000 OA
ATOM     12  C   UNL     1      -5.500  11.204  18.375  0.00  0.00    +0.000 C 
ENDROOT
BRANCH   7  13
ATOM     13  C   UNL     1      -5.471  14.119  22.905  0.00  0.00    +0.000 A 
ATOM     14  C   UNL     1      -5.726  12.999  23.684  0.00  0.00    +0.000 A 
ATOM     15  C   UNL     1      -6.973  12.884  24.291  0.00  0.00    +0.000 A 
ATOM     16  C   UNL     1      -7.916  13.889  24.108  0.00  0.00    +0.000 A 
ATOM     17  C   UNL     1      -7.564  14.985  23.337  0.00  0.00    +0.000 A 
ATOM     18  N   UNL     1      -6.364  15.122  22.728  0.00  0.00    +0.000 NA
ENDBRANCH   7  13
BRANCH   1  20
ATOM     19  C   UNL     1      -3.278  10.846  15.517  0.00  0.00    +0.000 C 
ATOM     20  C   UNL     1      -4.063  10.500  16.549  0.00  0.00    +0.000 C 
BRANCH  19  22
ATOM     21  N   UNL     1      -4.781  10.000  13.866  0.00  0.00    +0.000 N 
ATOM     22  C   UNL     1      -3.443  10.182  14.197  0.00  0.00    +0.000 C 
ATOM     23  O   UNL     1      -2.484   9.820  13.527  0.00  0.00    +0.000 OA
ATOM     24  H   UNL     1      -5.494  10.500  14.395  0.00  0.00    +0.000 HD
BRANCH  21  25
ATOM     25  N   UNL     1      -5.124   9.427  12.624  0.00  0.00    +0.000 NA
ATOM     26  H   UNL     1      -6.019   9.800  12.306  0.00  0.00    +0.000 HD
ATOM     27  H   UNL     1      -5.266   8.423  12.776  0.00  0.00    +0.000 HD
ENDBRANCH  21  25
ENDBRANCH  19  22
ENDBRANCH   1  20
BRANCH   2  28
ATOM     28  C   UNL     1      -1.599  11.611  17.908  0.00  0.00    +0.000 C 
ATOM     29  O   UNL     1      -0.925  10.596  17.992  0.00  0.00    +0.000 OA
BRANCH  28  30
ATOM     30  O   UNL     1      -1.081  12.707  17.317  0.00  0.00    +0.000 OA
ATOM     31  H   UNL     1      -1.673  13.438  17.031  0.00  0.00    +0.000 HD
ENDBRANCH  28  30
ENDBRANCH   2  28
TORSDOF 6
ENDMDL
MODEL 8
REMARK VINA RESULT:      -6.3      5.692     10.075
REMARK  Name = 
REMARK  6 active torsions:
REMARK  status: ('A' for Active; 'I' for Inactive)
REMARK    1  A    between atoms: N_1  and  N_2
REMARK    2  A    between atoms: C_3  and  C_5
REMARK    3  A    between atoms: C_6  and  C_7
REMARK    4  A    between atoms: C_8  and  C_9
REMARK    5  A    between atoms: C_9  and  O_11
REMARK    6  A    between atoms: C_16  and  C_17
REMARK                            x       y       z     vdW  Elec       q    Type
REMARK                         _______ _______ _______ _____ _____    ______ ____
ROOT
ATOM      1  C   UNL     1       0.632  10.611  20.619  0.00  0.00    +0.000 C 
ATOM      2  C   UNL     1      -0.001  11.243  21.647  0.00  0.00    +0.000 C 
ATOM      3  N   UNL     1      -0.234  12.588  21.564  0.00  0.00    +0.000 N 
ATOM      4  C   UNL     1      -0.391  13.632  22.404  0.00  0.00    +0.000 C 
ATOM      5  O   UNL     1      -0.475  13.695  23.608  0.00  0.00    +0.000 OA
ATOM      6  C   UNL     1      -0.235  14.571  21.303  0.00  0.00    +0.000 C 
ATOM      7  C   UNL     1      -0.071  15.888  21.176  0.00  0.00    +0.000 C 
ATOM      8  C   UNL     1      -0.218  13.392  20.349  0.00  0.00    +0.000 C 
ATOM      9  S   UNL     1       1.344  13.035  19.570  0.00  0.00    +0.000 S 
ATOM     10  O   UNL     1       2.444  13.220  20.504  0.00  0.00    +0.000 OA
ATOM     11  O   UNL     1       1.415  13.618  18.242  0.00  0.00    +0.000 OA
ATOM     12  C   UNL     1       1.114  11.293  19.340  0.00  0.00    +0.000 C 
ENDROOT
BRANCH   7  13
ATOM     13  C   UNL     1       0.113  16.558  19.887  0.00  0.00    +0.000 A 
ATOM     14  C   UNL     1      -0.977  16.897  19.097  0.00  0.00    +0.000 A 
ATOM     15  C   UNL     1      -0.740  17.500  17.865  0.00  0.00    +0.000 A 
ATOM     16  C   UNL     1       0.568  17.752  17.469  0.00  0.00    +0.000 A 
ATOM     17  C   UNL     1       1.593  17.407  18.335  0.00  0.00    +0.000 A 
ATOM     18  N   UNL     1       1.396  16.812  19.533  0.00  0.00    +0.000 NA
ENDBRANCH   7  13
BRANCH   1  20
ATOM     19  C   UNL     1       1.864   8.676  19.659  0.00  0.00    +0.000 C 
ATOM     20  C   UNL     1       1.012   9.195  20.557  0.00  0.00    +0.000 C 
BRANCH  19  22
ATOM     21  N   UNL     1       2.067   6.623  20.862  0.00  0.00    +0.000 N 
ATOM     22  C   UNL     1       2.085   7.207  19.600  0.00  0.00    +0.000 C 
ATOM     23  O   UNL     1       2.293   6.622  18.544  0.00  0.00    +0.000 OA
ATOM     24  H   UNL     1       1.702   7.157  21.649  0.00  0.00    +0.000 HD
BRANCH  21  25
ATOM     25  N   UNL     1       2.212   5.227  20.990  0.00  0.00    +0.000 NA
ATOM     26  H   UNL     1       3.183   4.962  20.817  0.00  0.00    +0.000 HD
ATOM     27  H   UNL     1       1.657   4.789  20.247  0.00  0.00    +0.000 HD
ENDBRANCH  21  25
ENDBRANCH  19  22
ENDBRANCH   1  20
BRANCH   2  28
ATOM     28  C   UNL     1      -0.476  10.471  22.862  0.00  0.00    +0.000 C 
ATOM     29  O   UNL     1      -1.634  10.487  23.248  0.00  0.00    +0.000 OA
BRANCH  28  30
ATOM     30  O   UNL     1       0.449   9.781  23.559  0.00  0.00    +0.000 OA
ATOM     31  H   UNL     1       0.393   8.800  23.613  0.00  0.00    +0.000 HD
ENDBRANCH  28  30
ENDBRANCH   2  28
TORSDOF 6
ENDMDL
MODEL 9
REMARK VINA RESULT:      -6.2      2.697      3.821
REMARK  Name = 
REMARK  6 active torsions:
REMARK  status: ('A' for Active; 'I' for Inactive)
REMARK    1  A    between atoms: N_1  and  N_2
REMARK    2  A    between atoms: C_3  and  C_5
REMARK    3  A    between atoms: C_6  and  C_7
REMARK    4  A    between atoms: C_8  and  C_9
REMARK    5  A    between atoms: C_9  and  O_11
REMARK    6  A    between atoms: C_16  and  C_17
REMARK                            x       y       z     vdW  Elec       q    Type
REMARK                         _______ _______ _______ _____ _____    ______ ____
ROOT
ATOM      1  C   UNL     1       1.454   8.975  19.185  0.00  0.00    +0.000 C 
ATOM      2  C   UNL     1       1.492   8.068  20.201  0.00  0.00    +0.000 C 
ATOM      3  N   UNL     1       2.339   6.997  20.111  0.00  0.00    +0.000 N 
ATOM      4  C   UNL     1       2.409   5.734  20.578  0.00  0.00    +0.000 C 
ATOM      5  O   UNL     1       1.729   5.126  21.370  0.00  0.00    +0.000 OA
ATOM      6  C   UNL     1       3.467   5.418  19.629  0.00  0.00    +0.000 C 
ATOM      7  C   UNL     1       4.088   4.315  19.211  0.00  0.00    +0.000 C 
ATOM      8  C   UNL     1       3.488   6.879  19.224  0.00  0.00    +0.000 C 
ATOM      9  S   UNL     1       2.864   7.251  17.596  0.00  0.00    +0.000 S 
ATOM     10  O   UNL     1       1.700   6.436  17.289  0.00  0.00    +0.000 OA
ATOM     11  O   UNL     1       3.944   7.366  16.633  0.00  0.00    +0.000 OA
ATOM     12  C   UNL     1       2.302   8.901  17.917  0.00  0.00    +0.000 C 
ENDROOT
BRANCH   7  13
ATOM     13  C   UNL     1       5.117   4.315  18.169  0.00  0.00    +0.000 A 
ATOM     14  C   UNL     1       6.424   4.686  18.457  0.00  0.00    +0.000 A 
ATOM     15  C   UNL     1       7.352   4.700  17.420  0.00  0.00    +0.000 A 
ATOM     16  C   UNL     1       6.951   4.338  16.140  0.00  0.00    +0.000 A 
ATOM     17  C   UNL     1       5.634   3.953  15.950  0.00  0.00    +0.000 A 
ATOM     18  N   UNL     1       4.706   3.937  16.935  0.00  0.00    +0.000 NA
ENDBRANCH   7  13
BRANCH   1  20
ATOM     19  C   UNL     1      -0.679  10.116  18.606  0.00  0.00    +0.000 C 
ATOM     20  C   UNL     1       0.576  10.147  19.083  0.00  0.00    +0.000 C 
BRANCH  19  22
ATOM     21  N   UNL     1      -2.813  11.163  18.382  0.00  0.00    +0.000 N 
ATOM     22  C   UNL     1      -1.440  11.380  18.426  0.00  0.00    +0.000 C 
ATOM     23  O   UNL     1      -0.882  12.462  18.296  0.00  0.00    +0.000 OA
ATOM     24  H   UNL     1      -3.182  10.263  18.686  0.00  0.00    +0.000 HD
BRANCH  21  25
ATOM     25  N   UNL     1      -3.692  12.259  18.263  0.00  0.00    +0.000 NA
ATOM     26  H   UNL     1      -3.158  13.127  18.212  0.00  0.00    +0.000 HD
ATOM     27  H   UNL     1      -4.243  12.309  19.127  0.00  0.00    +0.000 HD
ENDBRANCH  21  25
ENDBRANCH  19  22
ENDBRANCH   1  20
BRANCH   2  28
ATOM     28  C   UNL     1       0.636   8.248  21.439  0.00  0.00    +0.000 C 
ATOM     29  O   UNL     1      -0.515   7.848  21.515  0.00  0.00    +0.000 OA
BRANCH  28  30
ATOM     30  O   UNL     1       1.176   8.924  22.473  0.00  0.00    +0.000 OA
ATOM     31  H   UNL     1       0.600   9.453  23.069  0.00  0.00    +0.000 HD
ENDBRANCH  28  30
ENDBRANCH   2  28
TORSDOF 6
ENDMDL
