MODEL 1
REMARK VINA RESULT:      -8.4      0.000      0.000
REMARK  Name = 
REMARK  7 active torsions:
REMARK  status: ('A' for Active; 'I' for Inactive)
REMARK    1  A    between atoms: C_1  and  C_2
REMARK    2  A    between atoms: C_3  and  C_4
REMARK    3  A    between atoms: N_6  and  C_7
REMARK    4  A    between atoms: C_7  and  C_8
REMARK    5  A    between atoms: C_13  and  C_14
REMARK    6  A    between atoms: N_21  and  C_22
REMARK    7  A    between atoms: C_22  and  C_23
REMARK                            x       y       z     vdW  Elec       q    Type
REMARK                         _______ _______ _______ _____ _____    ______ ____
ROOT
ATOM      1  C   UNL     1       1.873   8.579  17.783  0.00  0.00    +0.000 C 
ATOM      2  C   UNL     1       1.527   8.820  19.220  0.00  0.00    +0.000 A 
ATOM      3  C   UNL     1       1.695   7.957  20.244  0.00  0.00    +0.000 A 
ATOM      4  S   UNL     1       1.169   8.639  21.759  0.00  0.00    +0.000 S 
ATOM      5  C   UNL     1       0.660  10.128  20.970  0.00  0.00    +0.000 A 
ATOM      6  O   UNL     1       0.111  11.042  21.563  0.00  0.00    +0.000 OA
ATOM      7  N   UNL     1       0.957  10.037  19.616  0.00  0.00    +0.000 N 
ENDROOT
BRANCH   3   8
ATOM      8  C   UNL     1       2.193   6.539  20.194  0.00  0.00    +0.000 C 
ATOM      9  O   UNL     1       1.498   5.595  20.552  0.00  0.00    +0.000 OA
ATOM     10  N   UNL     1       3.492   6.388  19.757  0.00  0.00    +0.000 N 
ATOM     11  H   UNL     1       4.046   7.231  19.639  0.00  0.00    +0.000 HD
BRANCH  10  12
ATOM     12  C   UNL     1       4.210   5.133  19.807  0.00  0.00    +0.000 C 
BRANCH  12  13
ATOM     13  C   UNL     1       4.843   4.734  18.487  0.00  0.00    +0.000 A 
ATOM     14  C   UNL     1       6.212   5.027  18.308  0.00  0.00    +0.000 A 
ATOM     15  C   UNL     1       6.857   4.804  17.088  0.00  0.00    +0.000 A 
ATOM     16  C   UNL     1       6.150   4.283  16.016  0.00  0.00    +0.000 A 
ATOM     17  C   UNL     1       4.805   3.956  16.175  0.00  0.00    +0.000 A 
ATOM     18  C   UNL     1       4.134   4.163  17.404  0.00  0.00    +0.000 A 
BRANCH  18  19
ATOM     19  C   UNL     1       2.682   3.741  17.447  0.00  0.00    +0.000 C 
ATOM     20  F   UNL     1       2.311   3.034  18.548  0.00  0.00    +0.000 F 
ATOM     21  F   UNL     1       1.832   4.805  17.393  0.00  0.00    +0.000 F 
ATOM     22  F   UNL     1       2.351   2.951  16.385  0.00  0.00    +0.000 F 
ENDBRANCH  18  19
ENDBRANCH  12  13
ENDBRANCH  10  12
ENDBRANCH   3   8
BRANCH   7  23
ATOM     23  C   UNL     1       0.489  11.083  18.712  0.00  0.00    +0.000 C 
BRANCH  23  24
ATOM     24  C   UNL     1      -0.978  11.039  18.331  0.00  0.00    +0.000 A 
ATOM     25  C   UNL     1      -1.460  10.000  17.511  0.00  0.00    +0.000 A 
ATOM     26  C   UNL     1      -2.830   9.849  17.271  0.00  0.00    +0.000 A 
ATOM     27  C   UNL     1      -3.730  10.736  17.849  0.00  0.00    +0.000 A 
ATOM     28  F   UNL     1      -5.043  10.572  17.646  0.00  0.00    +0.000 F 
ATOM     29  C   UNL     1      -3.281  11.777  18.651  0.00  0.00    +0.000 A 
ATOM     30  C   UNL     1      -1.910  11.930  18.894  0.00  0.00    +0.000 A 
ENDBRANCH  23  24
ENDBRANCH   7  23
TORSDOF 6
ENDMDL
MODEL 2
REMARK VINA RESULT:      -8.4      0.217      1.149
REMARK  Name = 
REMARK  7 active torsions:
REMARK  status: ('A' for Active; 'I' for Inactive)
REMARK    1  A    between atoms: C_1  and  C_2
REMARK    2  A    between atoms: C_3  and  C_4
REMARK    3  A    between atoms: N_6  and  C_7
REMARK    4  A    between atoms: C_7  and  C_8
REMARK    5  A    between atoms: C_13  and  C_14
REMARK    6  A    between atoms: N_21  and  C_22
REMARK    7  A    between atoms: C_22  and  C_23
REMARK                            x       y       z     vdW  Elec       q    Type
REMARK                         _______ _______ _______ _____ _____    ______ ____
ROOT
ATOM      1  C   UNL     1       1.735   8.542  17.768  0.00  0.00    +0.000 C 
ATOM      2  C   UNL     1       1.441   8.794  19.214  0.00  0.00    +0.000 A 
ATOM      3  C   UNL     1       1.685   7.956  20.244  0.00  0.00    +0.000 A 
ATOM      4  S   UNL     1       1.199   8.644  21.769  0.00  0.00    +0.000 S 
ATOM      5  C   UNL     1       0.600  10.099  20.979  0.00  0.00    +0.000 A 
ATOM      6  O   UNL     1       0.043  11.002  21.581  0.00  0.00    +0.000 OA
ATOM      7  N   UNL     1       0.842   9.996  19.616  0.00  0.00    +0.000 N 
ENDROOT
BRANCH   3   8
ATOM      8  C   UNL     1       2.235   6.557  20.194  0.00  0.00    +0.000 C 
ATOM      9  O   UNL     1       1.589   5.593  20.589  0.00  0.00    +0.000 OA
ATOM     10  N   UNL     1       3.521   6.448  19.712  0.00  0.00    +0.000 N 
ATOM     11  H   UNL     1       4.039   7.309  19.564  0.00  0.00    +0.000 HD
BRANCH  10  12
ATOM     12  C   UNL     1       4.288   5.221  19.753  0.00  0.00    +0.000 C 
BRANCH  12  13
ATOM     13  C   UNL     1       4.897   4.834  18.418  0.00  0.00    +0.000 A 
ATOM     14  C   UNL     1       6.252   5.163  18.202  0.00  0.00    +0.000 A 
ATOM     15  C   UNL     1       6.872   4.952  16.967  0.00  0.00    +0.000 A 
ATOM     16  C   UNL     1       6.151   4.405  15.917  0.00  0.00    +0.000 A 
ATOM     17  C   UNL     1       4.821   4.042  16.113  0.00  0.00    +0.000 A 
ATOM     18  C   UNL     1       4.176   4.237  17.357  0.00  0.00    +0.000 A 
BRANCH  18  19
ATOM     19  C   UNL     1       2.738   3.774  17.440  0.00  0.00    +0.000 C 
ATOM     20  F   UNL     1       1.807   4.765  17.466  0.00  0.00    +0.000 F 
ATOM     21  F   UNL     1       2.391   2.975  16.392  0.00  0.00    +0.000 F 
ATOM     22  F   UNL     1       2.506   3.033  18.562  0.00  0.00    +0.000 F 
ENDBRANCH  18  19
ENDBRANCH  12  13
ENDBRANCH  10  12
ENDBRANCH   3   8
BRANCH   7  23
ATOM     23  C   UNL     1       0.297  11.008  18.717  0.00  0.00    +0.000 C 
BRANCH  23  24
ATOM     24  C   UNL     1      -1.168  10.866  18.350  0.00  0.00    +0.000 A 
ATOM     25  C   UNL     1      -2.123  11.722  18.933  0.00  0.00    +0.000 A 
ATOM     26  C   UNL     1      -3.453  11.716  18.500  0.00  0.00    +0.000 A 
ATOM     27  C   UNL     1      -3.840  10.855  17.481  0.00  0.00    +0.000 A 
ATOM     28  F   UNL     1      -5.105  10.874  17.044  0.00  0.00    +0.000 F 
ATOM     29  C   UNL     1      -2.922   9.992  16.897  0.00  0.00    +0.000 A 
ATOM     30  C   UNL     1      -1.589   9.996  17.328  0.00  0.00    +0.000 A 
ENDBRANCH  23  24
ENDBRANCH   7  23
TORSDOF 6
ENDMDL
MODEL 3
REMARK VINA RESULT:      -8.2      0.958      1.236
REMARK  Name = 
REMARK  7 active torsions:
REMARK  status: ('A' for Active; 'I' for Inactive)
REMARK    1  A    between atoms: C_1  and  C_2
REMARK    2  A    between atoms: C_3  and  C_4
REMARK    3  A    between atoms: N_6  and  C_7
REMARK    4  A    between atoms: C_7  and  C_8
REMARK    5  A    between atoms: C_13  and  C_14
REMARK    6  A    between atoms: N_21  and  C_22
REMARK    7  A    between atoms: C_22  and  C_23
REMARK                            x       y       z     vdW  Elec       q    Type
REMARK                         _______ _______ _______ _____ _____    ______ ____
ROOT
ATOM      1  C   UNL     1       1.551   8.939  17.902  0.00  0.00    +0.000 C 
ATOM      2  C   UNL     1       1.310   9.169  19.362  0.00  0.00    +0.000 A 
ATOM      3  C   UNL     1       1.547   8.296  20.365  0.00  0.00    +0.000 A 
ATOM      4  S   UNL     1       1.135   8.967  21.919  0.00  0.00    +0.000 S 
ATOM      5  C   UNL     1       0.578  10.466  21.181  0.00  0.00    +0.000 A 
ATOM      6  O   UNL     1       0.079  11.377  21.820  0.00  0.00    +0.000 OA
ATOM      7  N   UNL     1       0.777  10.386  19.809  0.00  0.00    +0.000 N 
ENDROOT
BRANCH   3   8
ATOM      8  C   UNL     1       2.032   6.876  20.266  0.00  0.00    +0.000 C 
ATOM      9  O   UNL     1       1.403   5.942  20.750  0.00  0.00    +0.000 OA
ATOM     10  N   UNL     1       3.245   6.713  19.632  0.00  0.00    +0.000 N 
ATOM     11  H   UNL     1       3.773   7.552  19.411  0.00  0.00    +0.000 HD
BRANCH  10  12
ATOM     12  C   UNL     1       3.963   5.457  19.596  0.00  0.00    +0.000 C 
BRANCH  12  13
ATOM     13  C   UNL     1       4.497   5.096  18.221  0.00  0.00    +0.000 A 
ATOM     14  C   UNL     1       5.087   6.129  17.461  0.00  0.00    +0.000 A 
ATOM     15  C   UNL     1       5.504   5.924  16.143  0.00  0.00    +0.000 A 
ATOM     16  C   UNL     1       5.343   4.680  15.552  0.00  0.00    +0.000 A 
ATOM     17  C   UNL     1       4.792   3.636  16.290  0.00  0.00    +0.000 A 
ATOM     18  C   UNL     1       4.372   3.817  17.630  0.00  0.00    +0.000 A 
BRANCH  18  19
ATOM     19  C   UNL     1       3.815   2.593  18.323  0.00  0.00    +0.000 C 
ATOM     20  F   UNL     1       3.821   1.450  17.585  0.00  0.00    +0.000 F 
ATOM     21  F   UNL     1       4.494   2.293  19.466  0.00  0.00    +0.000 F 
ATOM     22  F   UNL     1       2.516   2.770  18.701  0.00  0.00    +0.000 F 
ENDBRANCH  18  19
ENDBRANCH  12  13
ENDBRANCH  10  12
ENDBRANCH   3   8
BRANCH   7  23
ATOM     23  C   UNL     1       0.252  11.441  18.950  0.00  0.00    +0.000 C 
BRANCH  23  24
ATOM     24  C   UNL     1      -1.211  11.330  18.560  0.00  0.00    +0.000 A 
ATOM     25  C   UNL     1      -1.626  10.318  17.674  0.00  0.00    +0.000 A 
ATOM     26  C   UNL     1      -2.984  10.098  17.420  0.00  0.00    +0.000 A 
ATOM     27  C   UNL     1      -3.938  10.887  18.049  0.00  0.00    +0.000 A 
ATOM     28  F   UNL     1      -5.238  10.654  17.831  0.00  0.00    +0.000 F 
ATOM     29  C   UNL     1      -3.556  11.901  18.919  0.00  0.00    +0.000 A 
ATOM     30  C   UNL     1      -2.196  12.123  19.176  0.00  0.00    +0.000 A 
ENDBRANCH  23  24
ENDBRANCH   7  23
TORSDOF 6
ENDMDL
MODEL 4
REMARK VINA RESULT:      -8.1      2.074      2.548
REMARK  Name = 
REMARK  7 active torsions:
REMARK  status: ('A' for Active; 'I' for Inactive)
REMARK    1  A    between atoms: C_1  and  C_2
REMARK    2  A    between atoms: C_3  and  C_4
REMARK    3  A    between atoms: N_6  and  C_7
REMARK    4  A    between atoms: C_7  and  C_8
REMARK    5  A    between atoms: C_13  and  C_14
REMARK    6  A    between atoms: N_21  and  C_22
REMARK    7  A    between atoms: C_22  and  C_23
REMARK                            x       y       z     vdW  Elec       q    Type
REMARK                         _______ _______ _______ _____ _____    ______ ____
ROOT
ATOM      1  C   UNL     1       2.049   8.687  17.665  0.00  0.00    +0.000 C 
ATOM      2  C   UNL     1       1.626   8.774  19.099  0.00  0.00    +0.000 A 
ATOM      3  C   UNL     1       1.795   7.828  20.047  0.00  0.00    +0.000 A 
ATOM      4  S   UNL     1       1.165   8.337  21.590  0.00  0.00    +0.000 S 
ATOM      5  C   UNL     1       0.610   9.866  20.916  0.00  0.00    +0.000 A 
ATOM      6  O   UNL     1      -0.014  10.690  21.563  0.00  0.00    +0.000 OA
ATOM      7  N   UNL     1       0.972   9.918  19.577  0.00  0.00    +0.000 N 
ENDROOT
BRANCH   3   8
ATOM      8  C   UNL     1       2.373   6.448  19.892  0.00  0.00    +0.000 C 
ATOM      9  O   UNL     1       1.733   5.442  20.177  0.00  0.00    +0.000 OA
ATOM     10  N   UNL     1       3.676   6.404  19.446  0.00  0.00    +0.000 N 
ATOM     11  H   UNL     1       4.182   7.283  19.393  0.00  0.00    +0.000 HD
BRANCH  10  12
ATOM     12  C   UNL     1       4.464   5.191  19.404  0.00  0.00    +0.000 C 
BRANCH  12  13
ATOM     13  C   UNL     1       5.160   4.957  18.075  0.00  0.00    +0.000 A 
ATOM     14  C   UNL     1       4.370   4.496  17.000  0.00  0.00    +0.000 A 
ATOM     15  C   UNL     1       4.935   4.143  15.772  0.00  0.00    +0.000 A 
ATOM     16  C   UNL     1       6.305   4.243  15.587  0.00  0.00    +0.000 A 
ATOM     17  C   UNL     1       7.104   4.725  16.621  0.00  0.00    +0.000 A 
ATOM     18  C   UNL     1       6.552   5.098  17.870  0.00  0.00    +0.000 A 
BRANCH  18  19
ATOM     19  C   UNL     1       7.529   5.629  18.896  0.00  0.00    +0.000 C 
ATOM     20  F   UNL     1       7.065   5.680  20.173  0.00  0.00    +0.000 F 
ATOM     21  F   UNL     1       8.672   4.888  18.953  0.00  0.00    +0.000 F 
ATOM     22  F   UNL     1       7.929   6.900  18.606  0.00  0.00    +0.000 F 
ENDBRANCH  18  19
ENDBRANCH  12  13
ENDBRANCH  10  12
ENDBRANCH   3   8
BRANCH   7  23
ATOM     23  C   UNL     1       0.489  11.019  18.750  0.00  0.00    +0.000 C 
BRANCH  23  24
ATOM     24  C   UNL     1      -0.981  10.987  18.375  0.00  0.00    +0.000 A 
ATOM     25  C   UNL     1      -1.475   9.952  17.558  0.00  0.00    +0.000 A 
ATOM     26  C   UNL     1      -2.847   9.813  17.324  0.00  0.00    +0.000 A 
ATOM     27  C   UNL     1      -3.737  10.707  17.906  0.00  0.00    +0.000 A 
ATOM     28  F   UNL     1      -5.052  10.553  17.708  0.00  0.00    +0.000 F 
ATOM     29  C   UNL     1      -3.276  11.745  18.706  0.00  0.00    +0.000 A 
ATOM     30  C   UNL     1      -1.903  11.886  18.942  0.00  0.00    +0.000 A 
ENDBRANCH  23  24
ENDBRANCH   7  23
TORSDOF 6
ENDMDL
MODEL 5
REMARK VINA RESULT:      -7.8      2.165      2.773
REMARK  Name = 
REMARK  7 active torsions:
REMARK  status: ('A' for Active; 'I' for Inactive)
REMARK    1  A    between atoms: C_1  and  C_2
REMARK    2  A    between atoms: C_3  and  C_4
REMARK    3  A    between atoms: N_6  and  C_7
REMARK    4  A    between atoms: C_7  and  C_8
REMARK    5  A    between atoms: C_13  and  C_14
REMARK    6  A    between atoms: N_21  and  C_22
REMARK    7  A    between atoms: C_22  and  C_23
REMARK                            x       y       z     vdW  Elec       q    Type
REMARK                         _______ _______ _______ _____ _____    ______ ____
ROOT
ATOM      1  C   UNL     1       2.227   8.769  17.529  0.00  0.00    +0.000 C 
ATOM      2  C   UNL     1       1.751   8.638  18.943  0.00  0.00    +0.000 A 
ATOM      3  C   UNL     1       1.971   7.597  19.775  0.00  0.00    +0.000 A 
ATOM      4  S   UNL     1       1.249   7.854  21.339  0.00  0.00    +0.000 S 
ATOM      5  C   UNL     1       0.585   9.405  20.835  0.00  0.00    +0.000 A 
ATOM      6  O   UNL     1      -0.129  10.087  21.551  0.00  0.00    +0.000 OA
ATOM      7  N   UNL     1       0.985   9.655  19.530  0.00  0.00    +0.000 N 
ENDROOT
BRANCH   3   8
ATOM      8  C   UNL     1       2.672   6.301  19.476  0.00  0.00    +0.000 C 
ATOM      9  O   UNL     1       2.082   5.226  19.493  0.00  0.00    +0.000 OA
ATOM     10  N   UNL     1       4.023   6.407  19.223  0.00  0.00    +0.000 N 
ATOM     11  H   UNL     1       4.459   7.309  19.391  0.00  0.00    +0.000 HD
BRANCH  10  12
ATOM     12  C   UNL     1       4.903   5.267  19.093  0.00  0.00    +0.000 C 
BRANCH  12  13
ATOM     13  C   UNL     1       5.368   5.010  17.671  0.00  0.00    +0.000 A 
ATOM     14  C   UNL     1       4.766   3.941  16.973  0.00  0.00    +0.000 A 
ATOM     15  C   UNL     1       5.205   3.553  15.704  0.00  0.00    +0.000 A 
ATOM     16  C   UNL     1       6.257   4.225  15.100  0.00  0.00    +0.000 A 
ATOM     17  C   UNL     1       6.848   5.303  15.754  0.00  0.00    +0.000 A 
ATOM     18  C   UNL     1       6.413   5.720  17.035  0.00  0.00    +0.000 A 
BRANCH  18  19
ATOM     19  C   UNL     1       7.125   6.921  17.619  0.00  0.00    +0.000 C 
ATOM     20  F   UNL     1       6.345   8.014  17.835  0.00  0.00    +0.000 F 
ATOM     21  F   UNL     1       7.705   6.644  18.821  0.00  0.00    +0.000 F 
ATOM     22  F   UNL     1       8.137   7.353  16.813  0.00  0.00    +0.000 F 
ENDBRANCH  18  19
ENDBRANCH  12  13
ENDBRANCH  10  12
ENDBRANCH   3   8
BRANCH   7  23
ATOM     23  C   UNL     1       0.434  10.808  18.824  0.00  0.00    +0.000 C 
BRANCH  23  24
ATOM     24  C   UNL     1      -1.026  10.719  18.421  0.00  0.00    +0.000 A 
ATOM     25  C   UNL     1      -1.962  11.614  18.972  0.00  0.00    +0.000 A 
ATOM     26  C   UNL     1      -3.280  11.655  18.505  0.00  0.00    +0.000 A 
ATOM     27  C   UNL     1      -3.672  10.801  17.483  0.00  0.00    +0.000 A 
ATOM     28  F   UNL     1      -4.925  10.863  17.013  0.00  0.00    +0.000 F 
ATOM     29  C   UNL     1      -2.773   9.899  16.929  0.00  0.00    +0.000 A 
ATOM     30  C   UNL     1      -1.452   9.857  17.394  0.00  0.00    +0.000 A 
ENDBRANCH  23  24
ENDBRANCH   7  23
TORSDOF 6
ENDMDL
MODEL 6
REMARK VINA RESULT:      -7.8      1.592      2.163
REMARK  Name = 
REMARK  7 active torsions:
REMARK  status: ('A' for Active; 'I' for Inactive)
REMARK    1  A    between atoms: C_1  and  C_2
REMARK    2  A    between atoms: C_3  and  C_4
REMARK    3  A    between atoms: N_6  and  C_7
REMARK    4  A    between atoms: C_7  and  C_8
REMARK    5  A    between atoms: C_13  and  C_14
REMARK    6  A    between atoms: N_21  and  C_22
REMARK    7  A    between atoms: C_22  and  C_23
REMARK                            x       y       z     vdW  Elec       q    Type
REMARK                         _______ _______ _______ _____ _____    ______ ____
ROOT
ATOM      1  C   UNL     1       2.052   8.857  17.552  0.00  0.00    +0.000 C 
ATOM      2  C   UNL     1       1.613   8.811  18.983  0.00  0.00    +0.000 A 
ATOM      3  C   UNL     1       1.780   7.784  19.843  0.00  0.00    +0.000 A 
ATOM      4  S   UNL     1       1.130   8.147  21.419  0.00  0.00    +0.000 S 
ATOM      5  C   UNL     1       0.571   9.727  20.880  0.00  0.00    +0.000 A 
ATOM      6  O   UNL     1      -0.066  10.486  21.592  0.00  0.00    +0.000 OA
ATOM      7  N   UNL     1       0.947   9.903  19.555  0.00  0.00    +0.000 N 
ENDROOT
BRANCH   3   8
ATOM      8  C   UNL     1       2.369   6.428  19.570  0.00  0.00    +0.000 C 
ATOM      9  O   UNL     1       2.431   5.562  20.436  0.00  0.00    +0.000 OA
ATOM     10  N   UNL     1       2.864   6.248  18.297  0.00  0.00    +0.000 N 
ATOM     11  H   UNL     1       2.921   7.067  17.698  0.00  0.00    +0.000 HD
BRANCH  10  12
ATOM     12  C   UNL     1       3.627   5.086  17.893  0.00  0.00    +0.000 C 
BRANCH  12  13
ATOM     13  C   UNL     1       5.129   5.266  18.015  0.00  0.00    +0.000 A 
ATOM     14  C   UNL     1       5.681   5.263  19.314  0.00  0.00    +0.000 A 
ATOM     15  C   UNL     1       7.033   5.534  19.538  0.00  0.00    +0.000 A 
ATOM     16  C   UNL     1       7.869   5.816  18.468  0.00  0.00    +0.000 A 
ATOM     17  C   UNL     1       7.356   5.795  17.173  0.00  0.00    +0.000 A 
ATOM     18  C   UNL     1       5.992   5.512  16.922  0.00  0.00    +0.000 A 
BRANCH  18  19
ATOM     19  C   UNL     1       5.574   5.496  15.468  0.00  0.00    +0.000 C 
ATOM     20  F   UNL     1       6.593   5.436  14.568  0.00  0.00    +0.000 F 
ATOM     21  F   UNL     1       4.765   4.440  15.174  0.00  0.00    +0.000 F 
ATOM     22  F   UNL     1       4.862   6.610  15.132  0.00  0.00    +0.000 F 
ENDBRANCH  18  19
ENDBRANCH  12  13
ENDBRANCH  10  12
ENDBRANCH   3   8
BRANCH   7  23
ATOM     23  C   UNL     1       0.464  11.071  18.827  0.00  0.00    +0.000 C 
BRANCH  23  24
ATOM     24  C   UNL     1      -0.992  11.047  18.401  0.00  0.00    +0.000 A 
ATOM     25  C   UNL     1      -1.452  10.043  17.528  0.00  0.00    +0.000 A 
ATOM     26  C   UNL     1      -2.815   9.906  17.242  0.00  0.00    +0.000 A 
ATOM     27  C   UNL     1      -3.729  10.773  17.827  0.00  0.00    +0.000 A 
ATOM     28  F   UNL     1      -5.036  10.621  17.580  0.00  0.00    +0.000 F 
ATOM     29  C   UNL     1      -3.302  11.780  18.683  0.00  0.00    +0.000 A 
ATOM     30  C   UNL     1      -1.938  11.919  18.971  0.00  0.00    +0.000 A 
ENDBRANCH  23  24
ENDBRANCH   7  23
TORSDOF 6
ENDMDL
MODEL 7
REMARK VINA RESULT:      -7.7      2.657      3.462
REMARK  Name = 
REMARK  7 active torsions:
REMARK  status: ('A' for Active; 'I' for Inactive)
REMARK    1  A    between atoms: C_1  and  C_2
REMARK    2  A    between atoms: C_3  and  C_4
REMARK    3  A    between atoms: N_6  and  C_7
REMARK    4  A    between atoms: C_7  and  C_8
REMARK    5  A    between atoms: C_13  and  C_14
REMARK    6  A    between atoms: N_21  and  C_22
REMARK    7  A    between atoms: C_22  and  C_23
REMARK                            x       y       z     vdW  Elec       q    Type
REMARK                         _______ _______ _______ _____ _____    ______ ____
ROOT
ATOM      1  C   UNL     1       1.352   9.043  17.950  0.00  0.00    +0.000 C 
ATOM      2  C   UNL     1       1.202   9.289  19.420  0.00  0.00    +0.000 A 
ATOM      3  C   UNL     1       1.486   8.422  20.415  0.00  0.00    +0.000 A 
ATOM      4  S   UNL     1       1.177   9.112  21.984  0.00  0.00    +0.000 S 
ATOM      5  C   UNL     1       0.598  10.612  21.266  0.00  0.00    +0.000 A 
ATOM      6  O   UNL     1       0.151  11.536  21.925  0.00  0.00    +0.000 OA
ATOM      7  N   UNL     1       0.713  10.517  19.886  0.00  0.00    +0.000 N 
ENDROOT
BRANCH   3   8
ATOM      8  C   UNL     1       1.946   6.994  20.301  0.00  0.00    +0.000 C 
ATOM      9  O   UNL     1       1.302   6.067  20.779  0.00  0.00    +0.000 OA
ATOM     10  N   UNL     1       3.152   6.815  19.660  0.00  0.00    +0.000 N 
ATOM     11  H   UNL     1       3.694   7.646  19.444  0.00  0.00    +0.000 HD
BRANCH  10  12
ATOM     12  C   UNL     1       3.848   5.547  19.609  0.00  0.00    +0.000 C 
BRANCH  12  13
ATOM     13  C   UNL     1       4.405   5.208  18.238  0.00  0.00    +0.000 A 
ATOM     14  C   UNL     1       4.963   6.263  17.485  0.00  0.00    +0.000 A 
ATOM     15  C   UNL     1       5.398   6.077  16.170  0.00  0.00    +0.000 A 
ATOM     16  C   UNL     1       5.286   4.829  15.575  0.00  0.00    +0.000 A 
ATOM     17  C   UNL     1       4.768   3.764  16.307  0.00  0.00    +0.000 A 
ATOM     18  C   UNL     1       4.332   3.927  17.643  0.00  0.00    +0.000 A 
BRANCH  18  19
ATOM     19  C   UNL     1       3.815   2.682  18.330  0.00  0.00    +0.000 C 
ATOM     20  F   UNL     1       4.473   2.325  19.465  0.00  0.00    +0.000 F 
ATOM     21  F   UNL     1       2.504   2.795  18.688  0.00  0.00    +0.000 F 
ATOM     22  F   UNL     1       3.880   1.589  17.517  0.00  0.00    +0.000 F 
ENDBRANCH  18  19
ENDBRANCH  12  13
ENDBRANCH  10  12
ENDBRANCH   3   8
BRANCH   7  23
ATOM     23  C   UNL     1       0.152  11.573  19.050  0.00  0.00    +0.000 C 
BRANCH  23  24
ATOM     24  C   UNL     1       1.038  12.779  18.800  0.00  0.00    +0.000 A 
ATOM     25  C   UNL     1       0.596  14.063  19.171  0.00  0.00    +0.000 A 
ATOM     26  C   UNL     1       1.451  15.168  19.094  0.00  0.00    +0.000 A 
ATOM     27  C   UNL     1       2.754  14.998  18.646  0.00  0.00    +0.000 A 
ATOM     28  F   UNL     1       3.581  16.050  18.603  0.00  0.00    +0.000 F 
ATOM     29  C   UNL     1       3.213  13.745  18.261  0.00  0.00    +0.000 A 
ATOM     30  C   UNL     1       2.359  12.636  18.338  0.00  0.00    +0.000 A 
ENDBRANCH  23  24
ENDBRANCH   7  23
TORSDOF 6
ENDMDL
MODEL 8
REMARK VINA RESULT:      -7.6      1.422      2.315
REMARK  Name = 
REMARK  7 active torsions:
REMARK  status: ('A' for Active; 'I' for Inactive)
REMARK    1  A    between atoms: C_1  and  C_2
REMARK    2  A    between atoms: C_3  and  C_4
REMARK    3  A    between atoms: N_6  and  C_7
REMARK    4  A    between atoms: C_7  and  C_8
REMARK    5  A    between atoms: C_13  and  C_14
REMARK    6  A    between atoms: N_21  and  C_22
REMARK    7  A    between atoms: C_22  and  C_23
REMARK                            x       y       z     vdW  Elec       q    Type
REMARK                         _______ _______ _______ _____ _____    ______ ____
ROOT
ATOM      1  C   UNL     1       1.529   8.697  17.905  0.00  0.00    +0.000 C 
ATOM      2  C   UNL     1       1.265   9.028  19.341  0.00  0.00    +0.000 A 
ATOM      3  C   UNL     1       1.526   8.244  20.409  0.00  0.00    +0.000 A 
ATOM      4  S   UNL     1       1.073   9.015  21.904  0.00  0.00    +0.000 S 
ATOM      5  C   UNL     1       0.466  10.430  21.050  0.00  0.00    +0.000 A 
ATOM      6  O   UNL     1      -0.075  11.367  21.614  0.00  0.00    +0.000 OA
ATOM      7  N   UNL     1       0.681  10.253  19.690  0.00  0.00    +0.000 N 
ENDROOT
BRANCH   3   8
ATOM      8  C   UNL     1       2.067   6.841  20.423  0.00  0.00    +0.000 C 
ATOM      9  O   UNL     1       1.507   5.937  21.033  0.00  0.00    +0.000 OA
ATOM     10  N   UNL     1       3.249   6.661  19.738  0.00  0.00    +0.000 N 
ATOM     11  H   UNL     1       3.726   7.493  19.404  0.00  0.00    +0.000 HD
BRANCH  10  12
ATOM     12  C   UNL     1       4.019   5.436  19.783  0.00  0.00    +0.000 C 
BRANCH  12  13
ATOM     13  C   UNL     1       3.482   4.340  18.881  0.00  0.00    +0.000 A 
ATOM     14  C   UNL     1       2.609   3.393  19.458  0.00  0.00    +0.000 A 
ATOM     15  C   UNL     1       2.152   2.283  18.742  0.00  0.00    +0.000 A 
ATOM     16  C   UNL     1       2.556   2.093  17.429  0.00  0.00    +0.000 A 
ATOM     17  C   UNL     1       3.392   3.029  16.826  0.00  0.00    +0.000 A 
ATOM     18  C   UNL     1       3.859   4.166  17.529  0.00  0.00    +0.000 A 
BRANCH  18  19
ATOM     19  C   UNL     1       4.739   5.116  16.746  0.00  0.00    +0.000 C 
ATOM     20  F   UNL     1       5.990   5.301  17.249  0.00  0.00    +0.000 F 
ATOM     21  F   UNL     1       4.920   4.710  15.458  0.00  0.00    +0.000 F 
ATOM     22  F   UNL     1       4.195   6.364  16.666  0.00  0.00    +0.000 F 
ENDBRANCH  18  19
ENDBRANCH  12  13
ENDBRANCH  10  12
ENDBRANCH   3   8
BRANCH   7  23
ATOM     23  C   UNL     1       0.123  11.219  18.749  0.00  0.00    +0.000 C 
BRANCH  23  24
ATOM     24  C   UNL     1      -1.338  11.037  18.381  0.00  0.00    +0.000 A 
ATOM     25  C   UNL     1      -2.317  11.861  18.968  0.00  0.00    +0.000 A 
ATOM     26  C   UNL     1      -3.647  11.819  18.535  0.00  0.00    +0.000 A 
ATOM     27  C   UNL     1      -4.008  10.954  17.511  0.00  0.00    +0.000 A 
ATOM     28  F   UNL     1      -5.274  10.937  17.074  0.00  0.00    +0.000 F 
ATOM     29  C   UNL     1      -3.066  10.121  16.922  0.00  0.00    +0.000 A 
ATOM     30  C   UNL     1      -1.733  10.161  17.354  0.00  0.00    +0.000 A 
ENDBRANCH  23  24
ENDBRANCH   7  23
TORSDOF 6
ENDMDL
MODEL 9
REMARK VINA RESULT:      -7.6      2.367      3.186
REMARK  Name = 
REMARK  7 active torsions:
REMARK  status: ('A' for Active; 'I' for Inactive)
REMARK    1  A    between atoms: C_1  and  C_2
REMARK    2  A    between atoms: C_3  and  C_4
REMARK    3  A    between atoms: N_6  and  C_7
REMARK    4  A    between atoms: C_7  and  C_8
REMARK    5  A    between atoms: C_13  and  C_14
REMARK    6  A    between atoms: N_21  and  C_22
REMARK    7  A    between atoms: C_22  and  C_23
REMARK                            x       y       z     vdW  Elec       q    Type
REMARK                         _______ _______ _______ _____ _____    ______ ____
ROOT
ATOM      1  C   UNL     1       1.729   8.651  17.778  0.00  0.00    +0.000 C 
ATOM      2  C   UNL     1       1.421   8.907  19.221  0.00  0.00    +0.000 A 
ATOM      3  C   UNL     1       1.642   8.066  20.253  0.00  0.00    +0.000 A 
ATOM      4  S   UNL     1       1.146   8.760  21.772  0.00  0.00    +0.000 S 
ATOM      5  C   UNL     1       0.575  10.223  20.976  0.00  0.00    +0.000 A 
ATOM      6  O   UNL     1       0.022  11.132  21.571  0.00  0.00    +0.000 OA
ATOM      7  N   UNL     1       0.832  10.116  19.616  0.00  0.00    +0.000 N 
ENDROOT
BRANCH   3   8
ATOM      8  C   UNL     1       2.174   6.660  20.210  0.00  0.00    +0.000 C 
ATOM      9  O   UNL     1       1.515   5.705  20.607  0.00  0.00    +0.000 OA
ATOM     10  N   UNL     1       3.461   6.533  19.732  0.00  0.00    +0.000 N 
ATOM     11  H   UNL     1       3.989   7.388  19.582  0.00  0.00    +0.000 HD
BRANCH  10  12
ATOM     12  C   UNL     1       4.212   5.298  19.780  0.00  0.00    +0.000 C 
BRANCH  12  13
ATOM     13  C   UNL     1       4.823   4.899  18.449  0.00  0.00    +0.000 A 
ATOM     14  C   UNL     1       6.175   5.239  18.227  0.00  0.00    +0.000 A 
ATOM     15  C   UNL     1       6.794   5.018  16.994  0.00  0.00    +0.000 A 
ATOM     16  C   UNL     1       6.078   4.452  15.951  0.00  0.00    +0.000 A 
ATOM     17  C   UNL     1       4.751   4.079  16.153  0.00  0.00    +0.000 A 
ATOM     18  C   UNL     1       4.106   4.283  17.396  0.00  0.00    +0.000 A 
BRANCH  18  19
ATOM     19  C   UNL     1       2.672   3.808  17.487  0.00  0.00    +0.000 C 
ATOM     20  F   UNL     1       2.363   3.094  18.602  0.00  0.00    +0.000 F 
ATOM     21  F   UNL     1       1.783   4.841  17.457  0.00  0.00    +0.000 F 
ATOM     22  F   UNL     1       2.337   3.003  16.439  0.00  0.00    +0.000 F 
ENDBRANCH  18  19
ENDBRANCH  12  13
ENDBRANCH  10  12
ENDBRANCH   3   8
BRANCH   7  23
ATOM     23  C   UNL     1       0.311  11.135  18.710  0.00  0.00    +0.000 C 
BRANCH  23  24
ATOM     24  C   UNL     1       1.092  12.433  18.632  0.00  0.00    +0.000 A 
ATOM     25  C   UNL     1       0.519  13.627  19.111  0.00  0.00    +0.000 A 
ATOM     26  C   UNL     1       1.271  14.804  19.193  0.00  0.00    +0.000 A 
ATOM     27  C   UNL     1       2.602  14.797  18.797  0.00  0.00    +0.000 A 
ATOM     28  F   UNL     1       3.330  15.915  18.906  0.00  0.00    +0.000 F 
ATOM     29  C   UNL     1       3.190  13.637  18.309  0.00  0.00    +0.000 A 
ATOM     30  C   UNL     1       2.439  12.456  18.227  0.00  0.00    +0.000 A 
ENDBRANCH  23  24
ENDBRANCH   7  23
TORSDOF 6
ENDMDL
