MODEL 1
REMARK VINA RESULT:      -7.6      0.000      0.000
REMARK  Name = 
REMARK  4 active torsions:
REMARK  status: ('A' for Active; 'I' for Inactive)
REMARK    1  A    between atoms: C_5  and  C_6
REMARK    2  A    between atoms: C_6  and  N_7
REMARK    3  A    between atoms: N_9  and  C_10
REMARK    4  A    between atoms: C_10  and  C_11
REMARK                            x       y       z     vdW  Elec       q    Type
REMARK                         _______ _______ _______ _____ _____    ______ ____
ROOT
ATOM      1  N   UNL     1       2.106   7.677  19.878  0.00  0.00    +0.000 N 
ATOM      2  C   UNL     1       1.965   8.507  18.835  0.00  0.00    +0.000 A 
ATOM      3  N   UNL     1       1.077   9.445  19.205  0.00  0.00    +0.000 N 
ATOM      4  C   UNL     1       0.691   9.087  20.478  0.00  0.00    +0.000 A 
ATOM      5  N   UNL     1       1.273   8.029  20.913  0.00  0.00    +0.000 NA
ENDROOT
BRANCH   1   6
ATOM      6  C   UNL     1       2.965   6.507  20.015  0.00  0.00    +0.000 C 
BRANCH   6  11
ATOM      7  F   UNL     1       0.175   1.845  18.501  0.00  0.00    +0.000 F 
ATOM      8  C   UNL     1       0.822   2.956  18.869  0.00  0.00    +0.000 A 
ATOM      9  C   UNL     1       0.788   3.366  20.201  0.00  0.00    +0.000 A 
ATOM     10  C   UNL     1       1.463   4.524  20.596  0.00  0.00    +0.000 A 
ATOM     11  C   UNL     1       2.193   5.266  19.655  0.00  0.00    +0.000 A 
ATOM     12  C   UNL     1       2.209   4.819  18.330  0.00  0.00    +0.000 A 
ATOM     13  F   UNL     1       2.919   5.513  17.422  0.00  0.00    +0.000 F 
ATOM     14  C   UNL     1       1.528   3.682  17.922  0.00  0.00    +0.000 A 
ENDBRANCH   6  11
ENDBRANCH   1   6
BRANCH   3  15
ATOM     15  C   UNL     1       0.703  10.649  18.475  0.00  0.00    +0.000 C 
BRANCH  15  16
ATOM     16  C   UNL     1      -0.797  10.736  18.326  0.00  0.00    +0.000 A 
ATOM     17  C   UNL     1      -1.455   9.849  17.453  0.00  0.00    +0.000 A 
ATOM     18  C   UNL     1      -2.839   9.921  17.267  0.00  0.00    +0.000 A 
ATOM     19  C   UNL     1      -3.587  10.865  17.966  0.00  0.00    +0.000 A 
ATOM     20 CL   UNL     1      -5.285  10.962  17.722  0.00  0.00    +0.000 Cl
ATOM     21  C   UNL     1      -2.963  11.729  18.860  0.00  0.00    +0.000 A 
ATOM     22  C   UNL     1      -1.576  11.669  19.033  0.00  0.00    +0.000 A 
ATOM     23 CL   UNL     1      -0.863  12.785  20.142  0.00  0.00    +0.000 Cl
ENDBRANCH  15  16
ENDBRANCH   3  15
TORSDOF 4
ENDMDL
MODEL 2
REMARK VINA RESULT:      -7.5      0.939      1.362
REMARK  Name = 
REMARK  4 active torsions:
REMARK  status: ('A' for Active; 'I' for Inactive)
REMARK    1  A    between atoms: C_5  and  C_6
REMARK    2  A    between atoms: C_6  and  N_7
REMARK    3  A    between atoms: N_9  and  C_10
REMARK    4  A    between atoms: C_10  and  C_11
REMARK                            x       y       z     vdW  Elec       q    Type
REMARK                         _______ _______ _______ _____ _____    ______ ____
ROOT
ATOM      1  N   UNL     1       2.258   7.594  19.621  0.00  0.00    +0.000 N 
ATOM      2  C   UNL     1       2.082   8.483  18.633  0.00  0.00    +0.000 A 
ATOM      3  N   UNL     1       1.197   9.388  19.082  0.00  0.00    +0.000 N 
ATOM      4  C   UNL     1       0.848   8.952  20.340  0.00  0.00    +0.000 A 
ATOM      5  N   UNL     1       1.450   7.875  20.696  0.00  0.00    +0.000 NA
ENDROOT
BRANCH   1   6
ATOM      6  C   UNL     1       3.130   6.426  19.665  0.00  0.00    +0.000 C 
BRANCH   6  11
ATOM      7  F   UNL     1       0.122   1.793  18.528  0.00  0.00    +0.000 F 
ATOM      8  C   UNL     1       0.847   2.888  18.785  0.00  0.00    +0.000 A 
ATOM      9  C   UNL     1       1.272   3.697  17.732  0.00  0.00    +0.000 A 
ATOM     10  C   UNL     1       2.028   4.843  17.991  0.00  0.00    +0.000 A 
ATOM     11  C   UNL     1       2.343   5.192  19.312  0.00  0.00    +0.000 A 
ATOM     12  C   UNL     1       1.892   4.359  20.341  0.00  0.00    +0.000 A 
ATOM     13  F   UNL     1       2.175   4.693  21.614  0.00  0.00    +0.000 F 
ATOM     14  C   UNL     1       1.158   3.210  20.097  0.00  0.00    +0.000 A 
ENDBRANCH   6  11
ENDBRANCH   1   6
BRANCH   3  15
ATOM     15  C   UNL     1       0.794  10.630  18.435  0.00  0.00    +0.000 C 
BRANCH  15  16
ATOM     16  C   UNL     1      -0.708  10.704  18.315  0.00  0.00    +0.000 A 
ATOM     17  C   UNL     1      -1.371   9.849  17.413  0.00  0.00    +0.000 A 
ATOM     18  C   UNL     1      -2.758   9.911  17.254  0.00  0.00    +0.000 A 
ATOM     19  C   UNL     1      -3.506  10.811  18.009  0.00  0.00    +0.000 A 
ATOM     20 CL   UNL     1      -5.209  10.897  17.798  0.00  0.00    +0.000 Cl
ATOM     21  C   UNL     1      -2.878  11.641  18.932  0.00  0.00    +0.000 A 
ATOM     22  C   UNL     1      -1.487  11.592  19.078  0.00  0.00    +0.000 A 
ATOM     23 CL   UNL     1      -0.769  12.664  20.226  0.00  0.00    +0.000 Cl
ENDBRANCH  15  16
ENDBRANCH   3  15
TORSDOF 4
ENDMDL
MODEL 3
REMARK VINA RESULT:      -7.3      6.449      8.270
REMARK  Name = 
REMARK  4 active torsions:
REMARK  status: ('A' for Active; 'I' for Inactive)
REMARK    1  A    between atoms: C_5  and  C_6
REMARK    2  A    between atoms: C_6  and  N_7
REMARK    3  A    between atoms: N_9  and  C_10
REMARK    4  A    between atoms: C_10  and  C_11
REMARK                            x       y       z     vdW  Elec       q    Type
REMARK                         _______ _______ _______ _____ _____    ______ ____
ROOT
ATOM      1  N   UNL     1       5.462   5.369  18.556  0.00  0.00    +0.000 N 
ATOM      2  C   UNL     1       5.699   6.152  17.493  0.00  0.00    +0.000 A 
ATOM      3  N   UNL     1       6.748   5.617  16.847  0.00  0.00    +0.000 N 
ATOM      4  C   UNL     1       7.120   4.531  17.608  0.00  0.00    +0.000 A 
ATOM      5  N   UNL     1       6.385   4.355  18.645  0.00  0.00    +0.000 NA
ENDROOT
BRANCH   1   6
ATOM      6  C   UNL     1       4.422   5.485  19.571  0.00  0.00    +0.000 C 
BRANCH   6  11
ATOM      7  F   UNL     1       0.324   1.786  18.414  0.00  0.00    +0.000 F 
ATOM      8  C   UNL     1       1.294   2.660  18.706  0.00  0.00    +0.000 A 
ATOM      9  C   UNL     1       2.268   2.323  19.644  0.00  0.00    +0.000 A 
ATOM     10  C   UNL     1       3.286   3.229  19.954  0.00  0.00    +0.000 A 
ATOM     11  C   UNL     1       3.340   4.472  19.307  0.00  0.00    +0.000 A 
ATOM     12  C   UNL     1       2.349   4.771  18.366  0.00  0.00    +0.000 A 
ATOM     13  F   UNL     1       2.400   5.954  17.727  0.00  0.00    +0.000 F 
ATOM     14  C   UNL     1       1.324   3.889  18.064  0.00  0.00    +0.000 A 
ENDBRANCH   6  11
ENDBRANCH   1   6
BRANCH   3  15
ATOM     15  C   UNL     1       7.291   6.018  15.556  0.00  0.00    +0.000 C 
BRANCH  15  16
ATOM     16  C   UNL     1       6.811   5.091  14.466  0.00  0.00    +0.000 A 
ATOM     17  C   UNL     1       5.654   4.318  14.679  0.00  0.00    +0.000 A 
ATOM     18  C   UNL     1       5.197   3.427  13.703  0.00  0.00    +0.000 A 
ATOM     19  C   UNL     1       5.876   3.311  12.494  0.00  0.00    +0.000 A 
ATOM     20 CL   UNL     1       5.322   2.202  11.304  0.00  0.00    +0.000 Cl
ATOM     21  C   UNL     1       7.003   4.089  12.246  0.00  0.00    +0.000 A 
ATOM     22  C   UNL     1       7.470   4.968  13.230  0.00  0.00    +0.000 A 
ATOM     23 CL   UNL     1       8.885   5.889  12.867  0.00  0.00    +0.000 Cl
ENDBRANCH  15  16
ENDBRANCH   3  15
TORSDOF 4
ENDMDL
MODEL 4
REMARK VINA RESULT:      -7.1      1.205      1.496
REMARK  Name = 
REMARK  4 active torsions:
REMARK  status: ('A' for Active; 'I' for Inactive)
REMARK    1  A    between atoms: C_5  and  C_6
REMARK    2  A    between atoms: C_6  and  N_7
REMARK    3  A    between atoms: N_9  and  C_10
REMARK    4  A    between atoms: C_10  and  C_11
REMARK                            x       y       z     vdW  Elec       q    Type
REMARK                         _______ _______ _______ _____ _____    ______ ____
ROOT
ATOM      1  N   UNL     1       2.529   7.808  18.415  0.00  0.00    +0.000 N 
ATOM      2  C   UNL     1       2.123   8.961  17.866  0.00  0.00    +0.000 A 
ATOM      3  N   UNL     1       1.416   9.608  18.808  0.00  0.00    +0.000 N 
ATOM      4  C   UNL     1       1.403   8.757  19.890  0.00  0.00    +0.000 A 
ATOM      5  N   UNL     1       2.046   7.664  19.693  0.00  0.00    +0.000 NA
ENDROOT
BRANCH   1   6
ATOM      6  C   UNL     1       3.347   6.749  17.834  0.00  0.00    +0.000 C 
BRANCH   6  11
ATOM      7  F   UNL     1       1.683   1.760  19.871  0.00  0.00    +0.000 F 
ATOM      8  C   UNL     1       2.076   2.937  19.371  0.00  0.00    +0.000 A 
ATOM      9  C   UNL     1       1.347   3.527  18.340  0.00  0.00    +0.000 A 
ATOM     10  C   UNL     1       1.748   4.757  17.813  0.00  0.00    +0.000 A 
ATOM     11  C   UNL     1       2.874   5.411  18.335  0.00  0.00    +0.000 A 
ATOM     12  C   UNL     1       3.575   4.790  19.374  0.00  0.00    +0.000 A 
ATOM     13  F   UNL     1       4.648   5.416  19.893  0.00  0.00    +0.000 F 
ATOM     14  C   UNL     1       3.199   3.562  19.892  0.00  0.00    +0.000 A 
ENDBRANCH   6  11
ENDBRANCH   1   6
BRANCH   3  15
ATOM     15  C   UNL     1       0.892  10.966  18.746  0.00  0.00    +0.000 C 
BRANCH  15  16
ATOM     16  C   UNL     1      -0.600  10.950  18.518  0.00  0.00    +0.000 A 
ATOM     17  C   UNL     1      -1.152  10.004  17.634  0.00  0.00    +0.000 A 
ATOM     18  C   UNL     1      -2.526   9.979  17.376  0.00  0.00    +0.000 A 
ATOM     19  C   UNL     1      -3.370  10.885  18.014  0.00  0.00    +0.000 A 
ATOM     20 CL   UNL     1      -5.056  10.864  17.681  0.00  0.00    +0.000 Cl
ATOM     21  C   UNL     1      -2.853  11.807  18.918  0.00  0.00    +0.000 A 
ATOM     22  C   UNL     1      -1.475  11.843  19.162  0.00  0.00    +0.000 A 
ATOM     23 CL   UNL     1      -0.896  13.025  20.280  0.00  0.00    +0.000 Cl
ENDBRANCH  15  16
ENDBRANCH   3  15
TORSDOF 4
ENDMDL
MODEL 5
REMARK VINA RESULT:      -7.0      4.298      7.766
REMARK  Name = 
REMARK  4 active torsions:
REMARK  status: ('A' for Active; 'I' for Inactive)
REMARK    1  A    between atoms: C_5  and  C_6
REMARK    2  A    between atoms: C_6  and  N_7
REMARK    3  A    between atoms: N_9  and  C_10
REMARK    4  A    between atoms: C_10  and  C_11
REMARK                            x       y       z     vdW  Elec       q    Type
REMARK                         _______ _______ _______ _____ _____    ______ ____
ROOT
ATOM      1  N   UNL     1       1.585   8.933  19.216  0.00  0.00    +0.000 N 
ATOM      2  C   UNL     1       2.172   7.762  18.928  0.00  0.00    +0.000 A 
ATOM      3  N   UNL     1       2.064   6.996  20.026  0.00  0.00    +0.000 N 
ATOM      4  C   UNL     1       1.434   7.793  20.956  0.00  0.00    +0.000 A 
ATOM      5  N   UNL     1       1.142   8.963  20.516  0.00  0.00    +0.000 NA
ENDROOT
BRANCH   1   6
ATOM      6  C   UNL     1       1.404  10.105  18.368  0.00  0.00    +0.000 C 
BRANCH   6  11
ATOM      7  F   UNL     1      -3.964  11.834  18.467  0.00  0.00    +0.000 F 
ATOM      8  C   UNL     1      -2.696  11.407  18.447  0.00  0.00    +0.000 A 
ATOM      9  C   UNL     1      -2.363  10.265  17.719  0.00  0.00    +0.000 A 
ATOM     10  C   UNL     1      -1.041   9.813  17.690  0.00  0.00    +0.000 A 
ATOM     11  C   UNL     1      -0.043  10.519  18.378  0.00  0.00    +0.000 A 
ATOM     12  C   UNL     1      -0.415  11.663  19.091  0.00  0.00    +0.000 A 
ATOM     13  F   UNL     1       0.537  12.357  19.741  0.00  0.00    +0.000 F 
ATOM     14  C   UNL     1      -1.726  12.111  19.143  0.00  0.00    +0.000 A 
ENDBRANCH   6  11
ENDBRANCH   1   6
BRANCH   3  15
ATOM     15  C   UNL     1       2.414   5.589  20.164  0.00  0.00    +0.000 C 
BRANCH  15  16
ATOM     16  C   UNL     1       3.422   5.187  19.114  0.00  0.00    +0.000 A 
ATOM     17  C   UNL     1       4.791   5.408  19.353  0.00  0.00    +0.000 A 
ATOM     18  C   UNL     1       5.750   5.076  18.391  0.00  0.00    +0.000 A 
ATOM     19  C   UNL     1       5.356   4.498  17.187  0.00  0.00    +0.000 A 
ATOM     20 CL   UNL     1       6.536   4.108  16.000  0.00  0.00    +0.000 Cl
ATOM     21  C   UNL     1       4.012   4.238  16.942  0.00  0.00    +0.000 A 
ATOM     22  C   UNL     1       3.051   4.587  17.898  0.00  0.00    +0.000 A 
ATOM     23 CL   UNL     1       1.398   4.255  17.522  0.00  0.00    +0.000 Cl
ENDBRANCH  15  16
ENDBRANCH   3  15
TORSDOF 4
ENDMDL
MODEL 6
REMARK VINA RESULT:      -7.0      4.416      7.821
REMARK  Name = 
REMARK  4 active torsions:
REMARK  status: ('A' for Active; 'I' for Inactive)
REMARK    1  A    between atoms: C_5  and  C_6
REMARK    2  A    between atoms: C_6  and  N_7
REMARK    3  A    between atoms: N_9  and  C_10
REMARK    4  A    between atoms: C_10  and  C_11
REMARK                            x       y       z     vdW  Elec       q    Type
REMARK                         _______ _______ _______ _____ _____    ______ ____
ROOT
ATOM      1  N   UNL     1       1.363   9.700  18.745  0.00  0.00    +0.000 N 
ATOM      2  C   UNL     1       1.449   8.657  19.583  0.00  0.00    +0.000 A 
ATOM      3  N   UNL     1       2.197   7.728  18.966  0.00  0.00    +0.000 N 
ATOM      4  C   UNL     1       2.492   8.268  17.734  0.00  0.00    +0.000 A 
ATOM      5  N   UNL     1       2.002   9.441  17.557  0.00  0.00    +0.000 NA
ENDROOT
BRANCH   1   6
ATOM      6  C   UNL     1       0.689  10.980  18.933  0.00  0.00    +0.000 C 
BRANCH   6  11
ATOM      7  F   UNL     1      -4.741  10.711  17.434  0.00  0.00    +0.000 F 
ATOM      8  C   UNL     1      -3.453  10.757  17.791  0.00  0.00    +0.000 A 
ATOM      9  C   UNL     1      -2.541   9.884  17.200  0.00  0.00    +0.000 A 
ATOM     10  C   UNL     1      -1.193   9.926  17.565  0.00  0.00    +0.000 A 
ATOM     11  C   UNL     1      -0.751  10.860  18.513  0.00  0.00    +0.000 A 
ATOM     12  C   UNL     1      -1.695  11.724  19.078  0.00  0.00    +0.000 A 
ATOM     13  F   UNL     1      -1.280  12.636  19.977  0.00  0.00    +0.000 F 
ATOM     14  C   UNL     1      -3.038  11.680  18.739  0.00  0.00    +0.000 A 
ENDBRANCH   6  11
ENDBRANCH   1   6
BRANCH   3  15
ATOM     15  C   UNL     1       2.698   6.479  19.525  0.00  0.00    +0.000 C 
BRANCH  15  16
ATOM     16  C   UNL     1       3.526   5.735  18.507  0.00  0.00    +0.000 A 
ATOM     17  C   UNL     1       4.872   6.099  18.314  0.00  0.00    +0.000 A 
ATOM     18  C   UNL     1       5.661   5.452  17.357  0.00  0.00    +0.000 A 
ATOM     19  C   UNL     1       5.123   4.417  16.597  0.00  0.00    +0.000 A 
ATOM     20 CL   UNL     1       6.089   3.636  15.410  0.00  0.00    +0.000 Cl
ATOM     21  C   UNL     1       3.805   4.016  16.793  0.00  0.00    +0.000 A 
ATOM     22  C   UNL     1       3.011   4.677  17.737  0.00  0.00    +0.000 A 
ATOM     23 CL   UNL     1       1.378   4.142  17.917  0.00  0.00    +0.000 Cl
ENDBRANCH  15  16
ENDBRANCH   3  15
TORSDOF 4
ENDMDL
MODEL 7
REMARK VINA RESULT:      -7.0      1.806      3.005
REMARK  Name = 
REMARK  4 active torsions:
REMARK  status: ('A' for Active; 'I' for Inactive)
REMARK    1  A    between atoms: C_5  and  C_6
REMARK    2  A    between atoms: C_6  and  N_7
REMARK    3  A    between atoms: N_9  and  C_10
REMARK    4  A    between atoms: C_10  and  C_11
REMARK                            x       y       z     vdW  Elec       q    Type
REMARK                         _______ _______ _______ _____ _____    ______ ____
ROOT
ATOM      1  N   UNL     1       2.316   7.552  19.485  0.00  0.00    +0.000 N 
ATOM      2  C   UNL     1       1.537   8.199  20.365  0.00  0.00    +0.000 A 
ATOM      3  N   UNL     1       0.946   9.201  19.693  0.00  0.00    +0.000 N 
ATOM      4  C   UNL     1       1.454   9.121  18.415  0.00  0.00    +0.000 A 
ATOM      5  N   UNL     1       2.285   8.158  18.251  0.00  0.00    +0.000 NA
ENDROOT
BRANCH   1   6
ATOM      6  C   UNL     1       3.154   6.377  19.686  0.00  0.00    +0.000 C 
BRANCH   6  11
ATOM      7  F   UNL     1       0.241   1.671  18.598  0.00  0.00    +0.000 F 
ATOM      8  C   UNL     1       0.917   2.794  18.864  0.00  0.00    +0.000 A 
ATOM      9  C   UNL     1       0.849   3.356  20.138  0.00  0.00    +0.000 A 
ATOM     10  C   UNL     1       1.554   4.528  20.426  0.00  0.00    +0.000 A 
ATOM     11  C   UNL     1       2.347   5.130  19.439  0.00  0.00    +0.000 A 
ATOM     12  C   UNL     1       2.396   4.532  18.175  0.00  0.00    +0.000 A 
ATOM     13  F   UNL     1       3.167   5.092  17.225  0.00  0.00    +0.000 F 
ATOM     14  C   UNL     1       1.687   3.381  17.871  0.00  0.00    +0.000 A 
ENDBRANCH   6  11
ENDBRANCH   1   6
BRANCH   3  15
ATOM     15  C   UNL     1      -0.100  10.093  20.173  0.00  0.00    +0.000 C 
BRANCH  15  16
ATOM     16  C   UNL     1       0.213  11.524  19.809  0.00  0.00    +0.000 A 
ATOM     17  C   UNL     1       1.212  12.214  20.522  0.00  0.00    +0.000 A 
ATOM     18  C   UNL     1       1.508  13.549  20.232  0.00  0.00    +0.000 A 
ATOM     19  C   UNL     1       0.825  14.208  19.213  0.00  0.00    +0.000 A 
ATOM     20 CL   UNL     1       1.178  15.855  18.872  0.00  0.00    +0.000 Cl
ATOM     21  C   UNL     1      -0.143  13.538  18.472  0.00  0.00    +0.000 A 
ATOM     22  C   UNL     1      -0.451  12.206  18.774  0.00  0.00    +0.000 A 
ATOM     23 CL   UNL     1      -1.677  11.439  17.829  0.00  0.00    +0.000 Cl
ENDBRANCH  15  16
ENDBRANCH   3  15
TORSDOF 4
ENDMDL
MODEL 8
REMARK VINA RESULT:      -7.0      2.775      3.839
REMARK  Name = 
REMARK  4 active torsions:
REMARK  status: ('A' for Active; 'I' for Inactive)
REMARK    1  A    between atoms: C_5  and  C_6
REMARK    2  A    between atoms: C_6  and  N_7
REMARK    3  A    between atoms: N_9  and  C_10
REMARK    4  A    between atoms: C_10  and  C_11
REMARK                            x       y       z     vdW  Elec       q    Type
REMARK                         _______ _______ _______ _____ _____    ______ ____
ROOT
ATOM      1  N   UNL     1       3.222   5.538  17.637  0.00  0.00    +0.000 N 
ATOM      2  C   UNL     1       2.236   6.395  17.943  0.00  0.00    +0.000 A 
ATOM      3  N   UNL     1       2.736   7.631  17.783  0.00  0.00    +0.000 N 
ATOM      4  C   UNL     1       4.050   7.439  17.419  0.00  0.00    +0.000 A 
ATOM      5  N   UNL     1       4.385   6.203  17.332  0.00  0.00    +0.000 NA
ENDROOT
BRANCH   1   6
ATOM      6  C   UNL     1       3.203   4.081  17.621  0.00  0.00    +0.000 C 
BRANCH   6  11
ATOM      7  F   UNL     1       1.018   2.198  22.468  0.00  0.00    +0.000 F 
ATOM      8  C   UNL     1       1.526   2.633  21.309  0.00  0.00    +0.000 A 
ATOM      9  C   UNL     1       0.669   2.960  20.260  0.00  0.00    +0.000 A 
ATOM     10  C   UNL     1       1.189   3.418  19.047  0.00  0.00    +0.000 A 
ATOM     11  C   UNL     1       2.575   3.568  18.890  0.00  0.00    +0.000 A 
ATOM     12  C   UNL     1       3.402   3.236  19.969  0.00  0.00    +0.000 A 
ATOM     13  F   UNL     1       4.732   3.391  19.835  0.00  0.00    +0.000 F 
ATOM     14  C   UNL     1       2.899   2.764  21.170  0.00  0.00    +0.000 A 
ENDBRANCH   6  11
ENDBRANCH   1   6
BRANCH   3  15
ATOM     15  C   UNL     1       2.015   8.895  17.850  0.00  0.00    +0.000 C 
BRANCH  15  16
ATOM     16  C   UNL     1       1.415   9.093  19.221  0.00  0.00    +0.000 A 
ATOM     17  C   UNL     1       1.803   8.240  20.272  0.00  0.00    +0.000 A 
ATOM     18  C   UNL     1       1.245   8.375  21.548  0.00  0.00    +0.000 A 
ATOM     19  C   UNL     1       0.311   9.377  21.796  0.00  0.00    +0.000 A 
ATOM     20 CL   UNL     1      -0.386   9.528  23.359  0.00  0.00    +0.000 Cl
ATOM     21  C   UNL     1      -0.063  10.253  20.782  0.00  0.00    +0.000 A 
ATOM     22  C   UNL     1       0.481  10.106  19.500  0.00  0.00    +0.000 A 
ATOM     23 CL   UNL     1      -0.040  11.214  18.283  0.00  0.00    +0.000 Cl
ENDBRANCH  15  16
ENDBRANCH   3  15
TORSDOF 4
ENDMDL
MODEL 9
REMARK VINA RESULT:      -7.0      0.997      1.175
REMARK  Name = 
REMARK  4 active torsions:
REMARK  status: ('A' for Active; 'I' for Inactive)
REMARK    1  A    between atoms: C_5  and  C_6
REMARK    2  A    between atoms: C_6  and  N_7
REMARK    3  A    between atoms: N_9  and  C_10
REMARK    4  A    between atoms: C_10  and  C_11
REMARK                            x       y       z     vdW  Elec       q    Type
REMARK                         _______ _______ _______ _____ _____    ______ ____
ROOT
ATOM      1  N   UNL     1       2.175   7.760  18.750  0.00  0.00    +0.000 N 
ATOM      2  C   UNL     1       1.777   8.802  18.006  0.00  0.00    +0.000 A 
ATOM      3  N   UNL     1       1.148   9.650  18.837  0.00  0.00    +0.000 N 
ATOM      4  C   UNL     1       1.168   9.027  20.065  0.00  0.00    +0.000 A 
ATOM      5  N   UNL     1       1.761   7.889  20.054  0.00  0.00    +0.000 NA
ENDROOT
BRANCH   1   6
ATOM      6  C   UNL     1       2.922   6.574  18.348  0.00  0.00    +0.000 C 
BRANCH   6  11
ATOM      7  F   UNL     1       1.148   2.046  21.205  0.00  0.00    +0.000 F 
ATOM      8  C   UNL     1       1.566   3.130  20.541  0.00  0.00    +0.000 A 
ATOM      9  C   UNL     1       2.438   4.024  21.160  0.00  0.00    +0.000 A 
ATOM     10  C   UNL     1       2.881   5.158  20.474  0.00  0.00    +0.000 A 
ATOM     11  C   UNL     1       2.464   5.389  19.155  0.00  0.00    +0.000 A 
ATOM     12  C   UNL     1       1.594   4.465  18.567  0.00  0.00    +0.000 A 
ATOM     13  F   UNL     1       1.199   4.667  17.296  0.00  0.00    +0.000 F 
ATOM     14  C   UNL     1       1.132   3.346  19.242  0.00  0.00    +0.000 A 
ENDBRANCH   6  11
ENDBRANCH   1   6
BRANCH   3  15
ATOM     15  C   UNL     1       0.667  10.992  18.536  0.00  0.00    +0.000 C 
BRANCH  15  16
ATOM     16  C   UNL     1      -0.836  10.999  18.392  0.00  0.00    +0.000 A 
ATOM     17  C   UNL     1      -1.449  10.076  17.524  0.00  0.00    +0.000 A 
ATOM     18  C   UNL     1      -2.836  10.073  17.344  0.00  0.00    +0.000 A 
ATOM     19  C   UNL     1      -3.630  10.977  18.044  0.00  0.00    +0.000 A 
ATOM     20 CL   UNL     1      -5.332  10.983  17.806  0.00  0.00    +0.000 Cl
ATOM     21  C   UNL     1      -3.050  11.876  18.933  0.00  0.00    +0.000 A 
ATOM     22  C   UNL     1      -1.660  11.891  19.100  0.00  0.00    +0.000 A 
ATOM     23 CL   UNL     1      -1.004  13.046  20.203  0.00  0.00    +0.000 Cl
ENDBRANCH  15  16
ENDBRANCH   3  15
TORSDOF 4
ENDMDL
