MODEL 1
REMARK VINA RESULT:      -7.8      0.000      0.000
REMARK  Name = 
REMARK  8 active torsions:
REMARK  status: ('A' for Active; 'I' for Inactive)
REMARK    1  A    between atoms: C_2  and  C_3
REMARK    2  A    between atoms: C_3  and  S_4
REMARK    3  A    between atoms: S_4  and  C_5
REMARK    4  A    between atoms: C_8  and  C_9
REMARK    5  A    between atoms: N_14  and  C_15
REMARK    6  A    between atoms: C_15  and  C_16
REMARK    7  A    between atoms: N_21  and  C_22
REMARK    8  A    between atoms: C_22  and  C_23
REMARK                            x       y       z     vdW  Elec       q    Type
REMARK                         _______ _______ _______ _____ _____    ______ ____
ROOT
ATOM      1  C   UNL     1       4.695   3.906  18.046  0.00  0.00    +0.000 A 
ATOM      2  N   UNL     1       5.414   3.571  19.092  0.00  0.00    +0.000 NA
ATOM      3  N   UNL     1       6.390   4.529  19.252  0.00  0.00    +0.000 NA
ATOM      4  C   UNL     1       6.229   5.443  18.315  0.00  0.00    +0.000 A 
ATOM      5  N   UNL     1       5.199   5.053  17.488  0.00  0.00    +0.000 N 
ENDROOT
BRANCH   4   6
ATOM      6  C   UNL     1       6.996   6.644  18.194  0.00  0.00    +0.000 A 
ATOM      7  C   UNL     1       6.770   7.745  17.385  0.00  0.00    +0.000 A 
ATOM      8  C   UNL     1       7.825   8.663  17.616  0.00  0.00    +0.000 A 
ATOM      9  C   UNL     1       8.646   8.070  18.541  0.00  0.00    +0.000 A 
ATOM     10  O   UNL     1       8.149   6.862  18.906  0.00  0.00    +0.000 OA
ENDBRANCH   4   6
BRANCH   1  11
ATOM     11  S   UNL     1       3.296   3.068  17.464  0.00  0.00    +0.000 S 
BRANCH  11  12
ATOM     12  C   UNL     1       2.600   2.435  19.020  0.00  0.00    +0.000 C 
BRANCH  12  14
ATOM     13  O   UNL     1       0.624   3.489  19.925  0.00  0.00    +0.000 OA
ATOM     14  C   UNL     1       1.837   3.540  19.741  0.00  0.00    +0.000 C 
ATOM     15  N   UNL     1       2.623   4.583  20.183  0.00  0.00    +0.000 N 
ATOM     16  H   UNL     1       3.595   4.626  19.910  0.00  0.00    +0.000 HD
BRANCH  15  17
ATOM     17  C   UNL     1       2.086   5.718  20.909  0.00  0.00    +0.000 C 
BRANCH  17  18
ATOM     18  C   UNL     1       2.005   6.933  20.022  0.00  0.00    +0.000 A 
ATOM     19  C   UNL     1       1.367   8.097  20.475  0.00  0.00    +0.000 A 
ATOM     20  C   UNL     1       1.255   9.214  19.644  0.00  0.00    +0.000 A 
ATOM     21  C   UNL     1       1.775   9.177  18.352  0.00  0.00    +0.000 A 
ATOM     22  C   UNL     1       2.412   8.027  17.890  0.00  0.00    +0.000 A 
ATOM     23  C   UNL     1       2.526   6.910  18.719  0.00  0.00    +0.000 A 
ENDBRANCH  17  18
ENDBRANCH  15  17
ENDBRANCH  12  14
ENDBRANCH  11  12
ENDBRANCH   1  11
BRANCH   5  24
ATOM     24  C   UNL     1       4.887   5.629  16.193  0.00  0.00    +0.000 C 
BRANCH  24  25
ATOM     25  C   UNL     1       5.625   5.002  15.069  0.00  0.00    +0.000 A 
ATOM     26  C   UNL     1       5.369   3.997  14.158  0.00  0.00    +0.000 A 
ATOM     27  C   UNL     1       6.516   3.900  13.332  0.00  0.00    +0.000 A 
ATOM     28  C   UNL     1       7.394   4.856  13.781  0.00  0.00    +0.000 A 
ATOM     29  O   UNL     1       6.864   5.527  14.834  0.00  0.00    +0.000 OA
ENDBRANCH  24  25
ENDBRANCH   5  24
TORSDOF 8
ENDMDL
MODEL 2
REMARK VINA RESULT:      -7.8      1.331      3.707
REMARK  Name = 
REMARK  8 active torsions:
REMARK  status: ('A' for Active; 'I' for Inactive)
REMARK    1  A    between atoms: C_2  and  C_3
REMARK    2  A    between atoms: C_3  and  S_4
REMARK    3  A    between atoms: S_4  and  C_5
REMARK    4  A    between atoms: C_8  and  C_9
REMARK    5  A    between atoms: N_14  and  C_15
REMARK    6  A    between atoms: C_15  and  C_16
REMARK    7  A    between atoms: N_21  and  C_22
REMARK    8  A    between atoms: C_22  and  C_23
REMARK                            x       y       z     vdW  Elec       q    Type
REMARK                         _______ _______ _______ _____ _____    ______ ____
ROOT
ATOM      1  C   UNL     1       4.964   4.150  17.726  0.00  0.00    +0.000 A 
ATOM      2  N   UNL     1       3.829   4.214  17.070  0.00  0.00    +0.000 NA
ATOM      3  N   UNL     1       4.127   4.353  15.733  0.00  0.00    +0.000 NA
ATOM      4  C   UNL     1       5.439   4.343  15.599  0.00  0.00    +0.000 A 
ATOM      5  N   UNL     1       6.012   4.277  16.850  0.00  0.00    +0.000 N 
ENDROOT
BRANCH   4   6
ATOM      6  C   UNL     1       6.141   4.382  14.353  0.00  0.00    +0.000 A 
ATOM      7  C   UNL     1       5.971   3.588  13.232  0.00  0.00    +0.000 A 
ATOM      8  C   UNL     1       6.923   4.009  12.268  0.00  0.00    +0.000 A 
ATOM      9  C   UNL     1       7.632   5.025  12.857  0.00  0.00    +0.000 A 
ATOM     10  O   UNL     1       7.159   5.267  14.105  0.00  0.00    +0.000 OA
ENDBRANCH   4   6
BRANCH   1  11
ATOM     11  S   UNL     1       5.140   3.901  19.431  0.00  0.00    +0.000 S 
BRANCH  11  12
ATOM     12  C   UNL     1       3.575   3.063  19.821  0.00  0.00    +0.000 C 
BRANCH  12  14
ATOM     13  O   UNL     1       1.823   3.637  21.382  0.00  0.00    +0.000 OA
ATOM     14  C   UNL     1       2.632   4.020  20.542  0.00  0.00    +0.000 C 
ATOM     15  N   UNL     1       2.782   5.344  20.187  0.00  0.00    +0.000 N 
ATOM     16  H   UNL     1       3.385   5.589  19.414  0.00  0.00    +0.000 HD
BRANCH  15  17
ATOM     17  C   UNL     1       1.992   6.409  20.776  0.00  0.00    +0.000 C 
BRANCH  17  18
ATOM     18  C   UNL     1       1.860   7.570  19.825  0.00  0.00    +0.000 A 
ATOM     19  C   UNL     1       2.453   7.513  18.556  0.00  0.00    +0.000 A 
ATOM     20  C   UNL     1       2.367   8.601  17.683  0.00  0.00    +0.000 A 
ATOM     21  C   UNL     1       1.692   9.756  18.072  0.00  0.00    +0.000 A 
ATOM     22  C   UNL     1       1.098   9.824  19.331  0.00  0.00    +0.000 A 
ATOM     23  C   UNL     1       1.181   8.738  20.203  0.00  0.00    +0.000 A 
ENDBRANCH  17  18
ENDBRANCH  15  17
ENDBRANCH  12  14
ENDBRANCH  11  12
ENDBRANCH   1  11
BRANCH   5  24
ATOM     24  C   UNL     1       7.409   4.520  17.157  0.00  0.00    +0.000 C 
BRANCH  24  25
ATOM     25  C   UNL     1       7.680   5.890  17.656  0.00  0.00    +0.000 A 
ATOM     26  C   UNL     1       8.070   6.444  18.859  0.00  0.00    +0.000 A 
ATOM     27  C   UNL     1       8.154   7.843  18.650  0.00  0.00    +0.000 A 
ATOM     28  C   UNL     1       7.821   8.055  17.334  0.00  0.00    +0.000 A 
ATOM     29  O   UNL     1       7.531   6.879  16.724  0.00  0.00    +0.000 OA
ENDBRANCH  24  25
ENDBRANCH   5  24
TORSDOF 8
ENDMDL
MODEL 3
REMARK VINA RESULT:      -7.5      0.758      1.366
REMARK  Name = 
REMARK  8 active torsions:
REMARK  status: ('A' for Active; 'I' for Inactive)
REMARK    1  A    between atoms: C_2  and  C_3
REMARK    2  A    between atoms: C_3  and  S_4
REMARK    3  A    between atoms: S_4  and  C_5
REMARK    4  A    between atoms: C_8  and  C_9
REMARK    5  A    between atoms: N_14  and  C_15
REMARK    6  A    between atoms: C_15  and  C_16
REMARK    7  A    between atoms: N_21  and  C_22
REMARK    8  A    between atoms: C_22  and  C_23
REMARK                            x       y       z     vdW  Elec       q    Type
REMARK                         _______ _______ _______ _____ _____    ______ ____
ROOT
ATOM      1  C   UNL     1       4.554   3.763  18.043  0.00  0.00    +0.000 A 
ATOM      2  N   UNL     1       5.252   3.424  19.101  0.00  0.00    +0.000 NA
ATOM      3  N   UNL     1       6.246   4.362  19.263  0.00  0.00    +0.000 NA
ATOM      4  C   UNL     1       6.117   5.269  18.315  0.00  0.00    +0.000 A 
ATOM      5  N   UNL     1       5.089   4.893  17.479  0.00  0.00    +0.000 N 
ENDROOT
BRANCH   4   6
ATOM      6  C   UNL     1       6.912   6.452  18.191  0.00  0.00    +0.000 A 
ATOM      7  C   UNL     1       8.115   6.762  18.802  0.00  0.00    +0.000 A 
ATOM      8  C   UNL     1       8.487   8.060  18.369  0.00  0.00    +0.000 A 
ATOM      9  C   UNL     1       7.486   8.479  17.530  0.00  0.00    +0.000 A 
ATOM     10  O   UNL     1       6.542   7.513  17.405  0.00  0.00    +0.000 OA
ENDBRANCH   4   6
BRANCH   1  11
ATOM     11  S   UNL     1       3.144   2.949  17.452  0.00  0.00    +0.000 S 
BRANCH  11  12
ATOM     12  C   UNL     1       2.452   2.288  18.998  0.00  0.00    +0.000 C 
BRANCH  12  14
ATOM     13  O   UNL     1       0.488   3.363  19.906  0.00  0.00    +0.000 OA
ATOM     14  C   UNL     1       1.707   3.385  19.751  0.00  0.00    +0.000 C 
ATOM     15  N   UNL     1       2.514   4.382  20.255  0.00  0.00    +0.000 N 
ATOM     16  H   UNL     1       3.492   4.407  20.005  0.00  0.00    +0.000 HD
BRANCH  15  17
ATOM     17  C   UNL     1       1.994   5.501  21.018  0.00  0.00    +0.000 C 
BRANCH  17  18
ATOM     18  C   UNL     1       1.895   6.736  20.160  0.00  0.00    +0.000 A 
ATOM     19  C   UNL     1       2.417   6.736  18.859  0.00  0.00    +0.000 A 
ATOM     20  C   UNL     1       2.363   7.888  18.072  0.00  0.00    +0.000 A 
ATOM     21  C   UNL     1       1.791   9.054  18.580  0.00  0.00    +0.000 A 
ATOM     22  C   UNL     1       1.269   9.067  19.871  0.00  0.00    +0.000 A 
ATOM     23  C   UNL     1       1.320   7.916  20.658  0.00  0.00    +0.000 A 
ENDBRANCH  17  18
ENDBRANCH  15  17
ENDBRANCH  12  14
ENDBRANCH  11  12
ENDBRANCH   1  11
BRANCH   5  24
ATOM     24  C   UNL     1       4.805   5.461  16.175  0.00  0.00    +0.000 C 
BRANCH  24  25
ATOM     25  C   UNL     1       5.643   4.902  15.086  0.00  0.00    +0.000 A 
ATOM     26  C   UNL     1       6.991   4.884  14.787  0.00  0.00    +0.000 A 
ATOM     27  C   UNL     1       7.126   4.156  13.579  0.00  0.00    +0.000 A 
ATOM     28  C   UNL     1       5.858   3.766  13.221  0.00  0.00    +0.000 A 
ATOM     29  O   UNL     1       4.953   4.215  14.127  0.00  0.00    +0.000 OA
ENDBRANCH  24  25
ENDBRANCH   5  24
TORSDOF 8
ENDMDL
MODEL 4
REMARK VINA RESULT:      -7.5      2.259      7.573
REMARK  Name = 
REMARK  8 active torsions:
REMARK  status: ('A' for Active; 'I' for Inactive)
REMARK    1  A    between atoms: C_2  and  C_3
REMARK    2  A    between atoms: C_3  and  S_4
REMARK    3  A    between atoms: S_4  and  C_5
REMARK    4  A    between atoms: C_8  and  C_9
REMARK    5  A    between atoms: N_14  and  C_15
REMARK    6  A    between atoms: C_15  and  C_16
REMARK    7  A    between atoms: N_21  and  C_22
REMARK    8  A    between atoms: C_22  and  C_23
REMARK                            x       y       z     vdW  Elec       q    Type
REMARK                         _______ _______ _______ _____ _____    ______ ____
ROOT
ATOM      1  C   UNL     1       5.674   5.327  18.512  0.00  0.00    +0.000 A 
ATOM      2  N   UNL     1       6.083   4.562  19.497  0.00  0.00    +0.000 NA
ATOM      3  N   UNL     1       4.998   3.841  19.943  0.00  0.00    +0.000 NA
ATOM      4  C   UNL     1       3.956   4.162  19.202  0.00  0.00    +0.000 A 
ATOM      5  N   UNL     1       4.328   5.151  18.318  0.00  0.00    +0.000 N 
ENDROOT
BRANCH   4   6
ATOM      6  C   UNL     1       2.659   3.566  19.299  0.00  0.00    +0.000 A 
ATOM      7  C   UNL     1       1.736   3.650  20.328  0.00  0.00    +0.000 A 
ATOM      8  C   UNL     1       0.614   2.867  19.955  0.00  0.00    +0.000 A 
ATOM      9  C   UNL     1       0.917   2.336  18.727  0.00  0.00    +0.000 A 
ATOM     10  O   UNL     1       2.137   2.762  18.318  0.00  0.00    +0.000 OA
ENDBRANCH   4   6
BRANCH   1  11
ATOM     11  S   UNL     1       6.670   6.377  17.560  0.00  0.00    +0.000 S 
BRANCH  11  12
ATOM     12  C   UNL     1       7.444   5.185  16.426  0.00  0.00    +0.000 C 
BRANCH  12  14
ATOM     13  O   UNL     1       5.703   5.711  14.837  0.00  0.00    +0.000 OA
ATOM     14  C   UNL     1       6.856   5.333  15.028  0.00  0.00    +0.000 C 
ATOM     15  N   UNL     1       7.729   5.029  14.006  0.00  0.00    +0.000 N 
ATOM     16  H   UNL     1       8.628   4.620  14.221  0.00  0.00    +0.000 HD
BRANCH  15  17
ATOM     17  C   UNL     1       7.363   5.129  12.605  0.00  0.00    +0.000 C 
BRANCH  17  18
ATOM     18  C   UNL     1       6.820   3.818  12.097  0.00  0.00    +0.000 A 
ATOM     19  C   UNL     1       7.691   2.835  11.608  0.00  0.00    +0.000 A 
ATOM     20  C   UNL     1       7.193   1.632  11.102  0.00  0.00    +0.000 A 
ATOM     21  C   UNL     1       5.818   1.404  11.074  0.00  0.00    +0.000 A 
ATOM     22  C   UNL     1       4.942   2.373  11.558  0.00  0.00    +0.000 A 
ATOM     23  C   UNL     1       5.439   3.574  12.067  0.00  0.00    +0.000 A 
ENDBRANCH  17  18
ENDBRANCH  15  17
ENDBRANCH  12  14
ENDBRANCH  11  12
ENDBRANCH   1  11
BRANCH   5  24
ATOM     24  C   UNL     1       3.425   5.966  17.527  0.00  0.00    +0.000 C 
BRANCH  24  25
ATOM     25  C   UNL     1       2.761   7.043  18.302  0.00  0.00    +0.000 A 
ATOM     26  C   UNL     1       2.314   7.194  19.599  0.00  0.00    +0.000 A 
ATOM     27  C   UNL     1       1.772   8.500  19.689  0.00  0.00    +0.000 A 
ATOM     28  C   UNL     1       1.929   9.067  18.448  0.00  0.00    +0.000 A 
ATOM     29  O   UNL     1       2.525   8.192  17.600  0.00  0.00    +0.000 OA
ENDBRANCH  24  25
ENDBRANCH   5  24
TORSDOF 8
ENDMDL
MODEL 5
REMARK VINA RESULT:      -7.5      1.206      3.574
REMARK  Name = 
REMARK  8 active torsions:
REMARK  status: ('A' for Active; 'I' for Inactive)
REMARK    1  A    between atoms: C_2  and  C_3
REMARK    2  A    between atoms: C_3  and  S_4
REMARK    3  A    between atoms: S_4  and  C_5
REMARK    4  A    between atoms: C_8  and  C_9
REMARK    5  A    between atoms: N_14  and  C_15
REMARK    6  A    between atoms: C_15  and  C_16
REMARK    7  A    between atoms: N_21  and  C_22
REMARK    8  A    between atoms: C_22  and  C_23
REMARK                            x       y       z     vdW  Elec       q    Type
REMARK                         _______ _______ _______ _____ _____    ______ ____
ROOT
ATOM      1  C   UNL     1       4.910   4.263  17.807  0.00  0.00    +0.000 A 
ATOM      2  N   UNL     1       3.787   4.249  17.127  0.00  0.00    +0.000 NA
ATOM      3  N   UNL     1       4.106   4.349  15.792  0.00  0.00    +0.000 NA
ATOM      4  C   UNL     1       5.419   4.394  15.683  0.00  0.00    +0.000 A 
ATOM      5  N   UNL     1       5.968   4.403  16.947  0.00  0.00    +0.000 N 
ENDROOT
BRANCH   4   6
ATOM      6  C   UNL     1       6.146   4.416  14.451  0.00  0.00    +0.000 A 
ATOM      7  C   UNL     1       6.001   3.604  13.339  0.00  0.00    +0.000 A 
ATOM      8  C   UNL     1       6.969   4.014  12.388  0.00  0.00    +0.000 A 
ATOM      9  C   UNL     1       7.662   5.042  12.974  0.00  0.00    +0.000 A 
ATOM     10  O   UNL     1       7.165   5.301  14.208  0.00  0.00    +0.000 OA
ENDBRANCH   4   6
BRANCH   1  11
ATOM     11  S   UNL     1       5.060   4.089  19.523  0.00  0.00    +0.000 S 
BRANCH  11  12
ATOM     12  C   UNL     1       3.556   3.144  19.909  0.00  0.00    +0.000 C 
BRANCH  12  14
ATOM     13  O   UNL     1       1.432   3.656  20.940  0.00  0.00    +0.000 OA
ATOM     14  C   UNL     1       2.473   4.076  20.440  0.00  0.00    +0.000 C 
ATOM     15  N   UNL     1       2.769   5.417  20.330  0.00  0.00    +0.000 N 
ATOM     16  H   UNL     1       3.587   5.708  19.814  0.00  0.00    +0.000 HD
BRANCH  15  17
ATOM     17  C   UNL     1       1.874   6.460  20.797  0.00  0.00    +0.000 C 
BRANCH  17  18
ATOM     18  C   UNL     1       1.847   7.617  19.832  0.00  0.00    +0.000 A 
ATOM     19  C   UNL     1       1.174   8.800  20.167  0.00  0.00    +0.000 A 
ATOM     20  C   UNL     1       1.113   9.863  19.263  0.00  0.00    +0.000 A 
ATOM     21  C   UNL     1       1.720   9.751  18.013  0.00  0.00    +0.000 A 
ATOM     22  C   UNL     1       2.392   8.580  17.668  0.00  0.00    +0.000 A 
ATOM     23  C   UNL     1       2.456   7.518  18.572  0.00  0.00    +0.000 A 
ENDBRANCH  17  18
ENDBRANCH  15  17
ENDBRANCH  12  14
ENDBRANCH  11  12
ENDBRANCH   1  11
BRANCH   5  24
ATOM     24  C   UNL     1       7.347   4.722  17.271  0.00  0.00    +0.000 C 
BRANCH  24  25
ATOM     25  C   UNL     1       7.576   6.161  17.546  0.00  0.00    +0.000 A 
ATOM     26  C   UNL     1       7.280   7.349  16.907  0.00  0.00    +0.000 A 
ATOM     27  C   UNL     1       7.785   8.386  17.728  0.00  0.00    +0.000 A 
ATOM     28  C   UNL     1       8.349   7.771  18.820  0.00  0.00    +0.000 A 
ATOM     29  O   UNL     1       8.228   6.424  18.718  0.00  0.00    +0.000 OA
ENDBRANCH  24  25
ENDBRANCH   5  24
TORSDOF 8
ENDMDL
MODEL 6
REMARK VINA RESULT:      -7.3      2.526      6.742
REMARK  Name = 
REMARK  8 active torsions:
REMARK  status: ('A' for Active; 'I' for Inactive)
REMARK    1  A    between atoms: C_2  and  C_3
REMARK    2  A    between atoms: C_3  and  S_4
REMARK    3  A    between atoms: S_4  and  C_5
REMARK    4  A    between atoms: C_8  and  C_9
REMARK    5  A    between atoms: N_14  and  C_15
REMARK    6  A    between atoms: C_15  and  C_16
REMARK    7  A    between atoms: N_21  and  C_22
REMARK    8  A    between atoms: C_22  and  C_23
REMARK                            x       y       z     vdW  Elec       q    Type
REMARK                         _______ _______ _______ _____ _____    ______ ____
ROOT
ATOM      1  C   UNL     1       4.361   6.101  17.969  0.00  0.00    +0.000 A 
ATOM      2  N   UNL     1       4.123   7.062  17.106  0.00  0.00    +0.000 NA
ATOM      3  N   UNL     1       3.123   7.852  17.627  0.00  0.00    +0.000 NA
ATOM      4  C   UNL     1       2.790   7.372  18.809  0.00  0.00    +0.000 A 
ATOM      5  N   UNL     1       3.512   6.221  19.039  0.00  0.00    +0.000 N 
ENDROOT
BRANCH   4   6
ATOM      6  C   UNL     1       1.844   7.964  19.703  0.00  0.00    +0.000 A 
ATOM      7  C   UNL     1       1.374   7.487  20.916  0.00  0.00    +0.000 A 
ATOM      8  C   UNL     1       0.435   8.430  21.405  0.00  0.00    +0.000 A 
ATOM      9  C   UNL     1       0.369   9.422  20.461  0.00  0.00    +0.000 A 
ATOM     10  O   UNL     1       1.224   9.159  19.441  0.00  0.00    +0.000 OA
ENDBRANCH   4   6
BRANCH   1  11
ATOM     11  S   UNL     1       5.582   4.882  17.822  0.00  0.00    +0.000 S 
BRANCH  11  12
ATOM     12  C   UNL     1       7.019   5.745  18.527  0.00  0.00    +0.000 C 
BRANCH  12  14
ATOM     13  O   UNL     1       7.593   6.625  16.352  0.00  0.00    +0.000 OA
ATOM     14  C   UNL     1       7.513   6.817  17.562  0.00  0.00    +0.000 C 
ATOM     15  N   UNL     1       7.837   8.017  18.159  0.00  0.00    +0.000 N 
ATOM     16  H   UNL     1       7.856   8.085  19.167  0.00  0.00    +0.000 HD
BRANCH  15  17
ATOM     17  C   UNL     1       8.305   9.166  17.407  0.00  0.00    +0.000 C 
BRANCH  17  18
ATOM     18  C   UNL     1       8.809  10.244  18.331  0.00  0.00    +0.000 A 
ATOM     19  C   UNL     1       9.177   9.930  19.648  0.00  0.00    +0.000 A 
ATOM     20  C   UNL     1       9.609  10.930  20.522  0.00  0.00    +0.000 A 
ATOM     21  C   UNL     1       9.674  12.254  20.090  0.00  0.00    +0.000 A 
ATOM     22  C   UNL     1       9.312  12.578  18.784  0.00  0.00    +0.000 A 
ATOM     23  C   UNL     1       8.882  11.580  17.909  0.00  0.00    +0.000 A 
ENDBRANCH  17  18
ENDBRANCH  15  17
ENDBRANCH  12  14
ENDBRANCH  11  12
ENDBRANCH   1  11
BRANCH   5  24
ATOM     24  C   UNL     1       3.248   5.249  20.084  0.00  0.00    +0.000 C 
BRANCH  24  25
ATOM     25  C   UNL     1       2.435   4.094  19.631  0.00  0.00    +0.000 A 
ATOM     26  C   UNL     1       1.139   3.911  19.190  0.00  0.00    +0.000 A 
ATOM     27  C   UNL     1       1.002   2.530  18.904  0.00  0.00    +0.000 A 
ATOM     28  C   UNL     1       2.222   1.959  19.177  0.00  0.00    +0.000 A 
ATOM     29  O   UNL     1       3.095   2.898  19.619  0.00  0.00    +0.000 OA
ENDBRANCH  24  25
ENDBRANCH   5  24
TORSDOF 8
ENDMDL
MODEL 7
REMARK VINA RESULT:      -7.3      1.247      1.790
REMARK  Name = 
REMARK  8 active torsions:
REMARK  status: ('A' for Active; 'I' for Inactive)
REMARK    1  A    between atoms: C_2  and  C_3
REMARK    2  A    between atoms: C_3  and  S_4
REMARK    3  A    between atoms: S_4  and  C_5
REMARK    4  A    between atoms: C_8  and  C_9
REMARK    5  A    between atoms: N_14  and  C_15
REMARK    6  A    between atoms: C_15  and  C_16
REMARK    7  A    between atoms: N_21  and  C_22
REMARK    8  A    between atoms: C_22  and  C_23
REMARK                            x       y       z     vdW  Elec       q    Type
REMARK                         _______ _______ _______ _____ _____    ______ ____
ROOT
ATOM      1  C   UNL     1       4.536   4.067  17.961  0.00  0.00    +0.000 A 
ATOM      2  N   UNL     1       5.193   3.668  19.024  0.00  0.00    +0.000 NA
ATOM      3  N   UNL     1       6.237   4.543  19.222  0.00  0.00    +0.000 NA
ATOM      4  C   UNL     1       6.179   5.474  18.291  0.00  0.00    +0.000 A 
ATOM      5  N   UNL     1       5.146   5.175  17.430  0.00  0.00    +0.000 N 
ENDROOT
BRANCH   4   6
ATOM      6  C   UNL     1       7.042   6.611  18.205  0.00  0.00    +0.000 A 
ATOM      7  C   UNL     1       8.187   6.893  18.931  0.00  0.00    +0.000 A 
ATOM      8  C   UNL     1       8.670   8.150  18.487  0.00  0.00    +0.000 A 
ATOM      9  C   UNL     1       7.789   8.574  17.525  0.00  0.00    +0.000 A 
ATOM     10  O   UNL     1       6.816   7.650  17.338  0.00  0.00    +0.000 OA
ENDBRANCH   4   6
BRANCH   1  11
ATOM     11  S   UNL     1       3.092   3.349  17.329  0.00  0.00    +0.000 S 
BRANCH  11  12
ATOM     12  C   UNL     1       1.829   4.128  18.380  0.00  0.00    +0.000 C 
BRANCH  12  14
ATOM     13  O   UNL     1       2.848   5.527  20.064  0.00  0.00    +0.000 OA
ATOM     14  C   UNL     1       2.354   5.443  18.943  0.00  0.00    +0.000 C 
ATOM     15  N   UNL     1       2.246   6.516  18.084  0.00  0.00    +0.000 N 
ATOM     16  H   UNL     1       1.734   6.415  17.219  0.00  0.00    +0.000 HD
BRANCH  15  17
ATOM     17  C   UNL     1       2.709   7.848  18.429  0.00  0.00    +0.000 C 
BRANCH  17  18
ATOM     18  C   UNL     1       1.562   8.714  18.880  0.00  0.00    +0.000 A 
ATOM     19  C   UNL     1       1.197   8.755  20.233  0.00  0.00    +0.000 A 
ATOM     20  C   UNL     1       0.111   9.527  20.653  0.00  0.00    +0.000 A 
ATOM     21  C   UNL     1      -0.622  10.262  19.724  0.00  0.00    +0.000 A 
ATOM     22  C   UNL     1      -0.269  10.231  18.377  0.00  0.00    +0.000 A 
ATOM     23  C   UNL     1       0.817   9.462  17.955  0.00  0.00    +0.000 A 
ENDBRANCH  17  18
ENDBRANCH  15  17
ENDBRANCH  12  14
ENDBRANCH  11  12
ENDBRANCH   1  11
BRANCH   5  24
ATOM     24  C   UNL     1       4.919   5.784  16.132  0.00  0.00    +0.000 C 
BRANCH  24  25
ATOM     25  C   UNL     1       5.640   5.110  15.024  0.00  0.00    +0.000 A 
ATOM     26  C   UNL     1       5.373   4.061  14.167  0.00  0.00    +0.000 A 
ATOM     27  C   UNL     1       6.504   3.933  13.323  0.00  0.00    +0.000 A 
ATOM     28  C   UNL     1       7.384   4.916  13.708  0.00  0.00    +0.000 A 
ATOM     29  O   UNL     1       6.870   5.632  14.739  0.00  0.00    +0.000 OA
ENDBRANCH  24  25
ENDBRANCH   5  24
TORSDOF 8
ENDMDL
MODEL 8
REMARK VINA RESULT:      -7.3      5.913     10.336
REMARK  Name = 
REMARK  8 active torsions:
REMARK  status: ('A' for Active; 'I' for Inactive)
REMARK    1  A    between atoms: C_2  and  C_3
REMARK    2  A    between atoms: C_3  and  S_4
REMARK    3  A    between atoms: S_4  and  C_5
REMARK    4  A    between atoms: C_8  and  C_9
REMARK    5  A    between atoms: N_14  and  C_15
REMARK    6  A    between atoms: C_15  and  C_16
REMARK    7  A    between atoms: N_21  and  C_22
REMARK    8  A    between atoms: C_22  and  C_23
REMARK                            x       y       z     vdW  Elec       q    Type
REMARK                         _______ _______ _______ _____ _____    ______ ____
ROOT
ATOM      1  C   UNL     1      -1.134  10.907  18.385  0.00  0.00    +0.000 A 
ATOM      2  N   UNL     1      -1.570   9.853  17.734  0.00  0.00    +0.000 NA
ATOM      3  N   UNL     1      -2.932   9.988  17.586  0.00  0.00    +0.000 NA
ATOM      4  C   UNL     1      -3.295  11.135  18.127  0.00  0.00    +0.000 A 
ATOM      5  N   UNL     1      -2.190  11.723  18.702  0.00  0.00    +0.000 N 
ENDROOT
BRANCH   4   6
ATOM      6  C   UNL     1      -4.619  11.676  18.104  0.00  0.00    +0.000 A 
ATOM      7  C   UNL     1      -5.576  11.679  19.105  0.00  0.00    +0.000 A 
ATOM      8  C   UNL     1      -6.730  12.318  18.584  0.00  0.00    +0.000 A 
ATOM      9  C   UNL     1      -6.422  12.657  17.291  0.00  0.00    +0.000 A 
ATOM     10  O   UNL     1      -5.150  12.288  16.998  0.00  0.00    +0.000 OA
ENDBRANCH   4   6
BRANCH   1  11
ATOM     11  S   UNL     1       0.519  11.256  18.763  0.00  0.00    +0.000 S 
BRANCH  11  12
ATOM     12  C   UNL     1       0.964   9.797  19.753  0.00  0.00    +0.000 C 
BRANCH  12  14
ATOM     13  O   UNL     1       1.752   8.887  17.659  0.00  0.00    +0.000 OA
ATOM     14  C   UNL     1       1.654   8.759  18.876  0.00  0.00    +0.000 C 
ATOM     15  N   UNL     1       2.172   7.683  19.565  0.00  0.00    +0.000 N 
ATOM     16  H   UNL     1       1.969   7.575  20.549  0.00  0.00    +0.000 HD
BRANCH  15  17
ATOM     17  C   UNL     1       2.883   6.600  18.911  0.00  0.00    +0.000 C 
BRANCH  17  18
ATOM     18  C   UNL     1       2.171   5.289  19.116  0.00  0.00    +0.000 A 
ATOM     19  C   UNL     1       1.711   4.926  20.389  0.00  0.00    +0.000 A 
ATOM     20  C   UNL     1       1.083   3.695  20.594  0.00  0.00    +0.000 A 
ATOM     21  C   UNL     1       0.912   2.814  19.528  0.00  0.00    +0.000 A 
ATOM     22  C   UNL     1       1.364   3.163  18.257  0.00  0.00    +0.000 A 
ATOM     23  C   UNL     1       1.990   4.393  18.050  0.00  0.00    +0.000 A 
ENDBRANCH  17  18
ENDBRANCH  15  17
ENDBRANCH  12  14
ENDBRANCH  11  12
ENDBRANCH   1  11
BRANCH   5  24
ATOM     24  C   UNL     1      -2.208  12.843  19.625  0.00  0.00    +0.000 C 
BRANCH  24  25
ATOM     25  C   UNL     1      -2.252  12.437  21.052  0.00  0.00    +0.000 A 
ATOM     26  C   UNL     1      -1.389  11.807  21.926  0.00  0.00    +0.000 A 
ATOM     27  C   UNL     1      -2.059  11.734  23.172  0.00  0.00    +0.000 A 
ATOM     28  C   UNL     1      -3.282  12.332  22.985  0.00  0.00    +0.000 A 
ATOM     29  O   UNL     1      -3.408  12.759  21.704  0.00  0.00    +0.000 OA
ENDBRANCH  24  25
ENDBRANCH   5  24
TORSDOF 8
ENDMDL
MODEL 9
REMARK VINA RESULT:      -7.2      3.507      5.830
REMARK  Name = 
REMARK  8 active torsions:
REMARK  status: ('A' for Active; 'I' for Inactive)
REMARK    1  A    between atoms: C_2  and  C_3
REMARK    2  A    between atoms: C_3  and  S_4
REMARK    3  A    between atoms: S_4  and  C_5
REMARK    4  A    between atoms: C_8  and  C_9
REMARK    5  A    between atoms: N_14  and  C_15
REMARK    6  A    between atoms: C_15  and  C_16
REMARK    7  A    between atoms: N_21  and  C_22
REMARK    8  A    between atoms: C_22  and  C_23
REMARK                            x       y       z     vdW  Elec       q    Type
REMARK                         _______ _______ _______ _____ _____    ______ ____
ROOT
ATOM      1  C   UNL     1       2.045   7.596  19.548  0.00  0.00    +0.000 A 
ATOM      2  N   UNL     1       2.169   8.603  18.715  0.00  0.00    +0.000 NA
ATOM      3  N   UNL     1       3.080   8.236  17.750  0.00  0.00    +0.000 NA
ATOM      4  C   UNL     1       3.472   7.003  17.999  0.00  0.00    +0.000 A 
ATOM      5  N   UNL     1       2.884   6.578  19.170  0.00  0.00    +0.000 N 
ENDROOT
BRANCH   4   6
ATOM      6  C   UNL     1       4.355   6.235  17.176  0.00  0.00    +0.000 A 
ATOM      7  C   UNL     1       5.567   6.604  16.617  0.00  0.00    +0.000 A 
ATOM      8  C   UNL     1       6.042   5.496  15.870  0.00  0.00    +0.000 A 
ATOM      9  C   UNL     1       5.089   4.518  15.999  0.00  0.00    +0.000 A 
ATOM     10  O   UNL     1       4.079   4.947  16.794  0.00  0.00    +0.000 OA
ENDBRANCH   4   6
BRANCH   1  11
ATOM     11  S   UNL     1       0.964   7.522  20.899  0.00  0.00    +0.000 S 
BRANCH  11  12
ATOM     12  C   UNL     1       1.416   9.042  21.788  0.00  0.00    +0.000 C 
BRANCH  12  14
ATOM     13  O   UNL     1      -0.459  10.475  22.300  0.00  0.00    +0.000 OA
ATOM     14  C   UNL     1       0.405  10.143  21.492  0.00  0.00    +0.000 C 
ATOM     15  N   UNL     1       0.555  10.742  20.260  0.00  0.00    +0.000 N 
ATOM     16  H   UNL     1       1.210  10.357  19.594  0.00  0.00    +0.000 HD
BRANCH  15  17
ATOM     17  C   UNL     1      -0.297  11.824  19.803  0.00  0.00    +0.000 C 
BRANCH  17  18
ATOM     18  C   UNL     1      -1.379  11.307  18.892  0.00  0.00    +0.000 A 
ATOM     19  C   UNL     1      -1.089  10.320  17.939  0.00  0.00    +0.000 A 
ATOM     20  C   UNL     1      -2.078   9.863  17.065  0.00  0.00    +0.000 A 
ATOM     21  C   UNL     1      -3.366  10.391  17.132  0.00  0.00    +0.000 A 
ATOM     22  C   UNL     1      -3.668  11.372  18.075  0.00  0.00    +0.000 A 
ATOM     23  C   UNL     1      -2.681  11.828  18.950  0.00  0.00    +0.000 A 
ENDBRANCH  17  18
ENDBRANCH  15  17
ENDBRANCH  12  14
ENDBRANCH  11  12
ENDBRANCH   1  11
BRANCH   5  24
ATOM     24  C   UNL     1       3.261   5.402  19.932  0.00  0.00    +0.000 C 
BRANCH  24  25
ATOM     25  C   UNL     1       2.405   4.220  19.663  0.00  0.00    +0.000 A 
ATOM     26  C   UNL     1       1.390   3.916  18.778  0.00  0.00    +0.000 A 
ATOM     27  C   UNL     1       1.001   2.582  19.054  0.00  0.00    +0.000 A 
ATOM     28  C   UNL     1       1.806   2.151  20.080  0.00  0.00    +0.000 A 
ATOM     29  O   UNL     1       2.659   3.137  20.457  0.00  0.00    +0.000 OA
ENDBRANCH  24  25
ENDBRANCH   5  24
TORSDOF 8
ENDMDL
