MODEL 1
REMARK VINA RESULT:      -8.4      0.000      0.000
REMARK  Name = 
REMARK  5 active torsions:
REMARK  status: ('A' for Active; 'I' for Inactive)
REMARK    1  A    between atoms: C_1  and  C_2
REMARK    2  A    between atoms: C_2  and  N_3
REMARK    3  A    between atoms: C_2  and  C_24
REMARK    4  A    between atoms: C_12  and  C_13
REMARK    5  A    between atoms: C_16  and  C_17
REMARK                            x       y       z     vdW  Elec       q    Type
REMARK                         _______ _______ _______ _____ _____    ______ ____
ROOT
ATOM      1  N   UNL     1      -0.677  12.360  21.102  0.00  0.00    +0.000 N 
ATOM      2  C   UNL     1       0.257  11.353  20.922  0.00  0.00    +0.000 C 
ATOM      3  O   UNL     1       1.270  11.273  21.612  0.00  0.00    +0.000 OA
ATOM      4  N   UNL     1      -0.077  10.465  19.920  0.00  0.00    +0.000 N 
ATOM      5  C   UNL     1       0.819   9.439  19.556  0.00  0.00    +0.000 A 
ATOM      6  C   UNL     1       1.181   8.483  20.499  0.00  0.00    +0.000 A 
ATOM      7  C   UNL     1       1.993   7.441  20.038  0.00  0.00    +0.000 A 
ATOM      8  N   UNL     1       2.480   6.317  20.635  0.00  0.00    +0.000 N 
ATOM      9  N   UNL     1       3.234   5.561  19.826  0.00  0.00    +0.000 NA
ATOM     10  C   UNL     1       3.271   6.215  18.663  0.00  0.00    +0.000 A 
ATOM     11  C   UNL     1       2.464   7.398  18.735  0.00  0.00    +0.000 A 
ATOM     12  C   UNL     1       2.071   8.416  17.858  0.00  0.00    +0.000 A 
ATOM     13  N   UNL     1       1.207   9.392  18.262  0.00  0.00    +0.000 NA
ATOM     14  H   UNL     1      -1.365  12.523  20.385  0.00  0.00    +0.000 HD
ATOM     15  H   UNL     1      -0.608  10.835  19.147  0.00  0.00    +0.000 HD
ATOM     16  H   UNL     1       2.322   5.994  21.587  0.00  0.00    +0.000 HD
ENDROOT
BRANCH  10  17
ATOM     17  C   UNL     1       4.056   5.718  17.524  0.00  0.00    +0.000 A 
ATOM     18  C   UNL     1       4.745   6.612  16.690  0.00  0.00    +0.000 A 
ATOM     19  C   UNL     1       5.446   6.145  15.570  0.00  0.00    +0.000 A 
ATOM     20  C   UNL     1       5.471   4.779  15.272  0.00  0.00    +0.000 A 
ATOM     21  C   UNL     1       4.807   3.880  16.110  0.00  0.00    +0.000 A 
ATOM     22  C   UNL     1       4.105   4.349  17.226  0.00  0.00    +0.000 A 
BRANCH  20  23
ATOM     23  C   UNL     1       6.164   4.306  14.107  0.00  0.00    +0.000 C 
ATOM     24  N   UNL     1       6.723   3.928  13.166  0.00  0.00    +0.000 NA
ENDBRANCH  20  23
ENDBRANCH  10  17
BRANCH   1  26
ATOM     25  C   UNL     1      -1.693  13.446  23.090  0.00  0.00    +0.000 C 
ATOM     26  C   UNL     1      -0.487  13.368  22.146  0.00  0.00    +0.000 C 
BRANCH  26  27
ATOM     27  C   UNL     1      -0.179  14.756  21.598  0.00  0.00    +0.000 A 
ATOM     28  C   UNL     1       0.340  15.742  22.457  0.00  0.00    +0.000 A 
ATOM     29  C   UNL     1       0.541  17.053  22.015  0.00  0.00    +0.000 A 
ATOM     30  C   UNL     1       0.237  17.401  20.701  0.00  0.00    +0.000 A 
ATOM     31  C   UNL     1      -0.280  16.438  19.840  0.00  0.00    +0.000 A 
ATOM     32 CL   UNL     1      -0.675  16.868  18.220  0.00  0.00    +0.000 Cl
ATOM     33  C   UNL     1      -0.493  15.127  20.278  0.00  0.00    +0.000 A 
ENDBRANCH  26  27
ENDBRANCH   1  26
TORSDOF 4
ENDMDL
MODEL 2
REMARK VINA RESULT:      -8.3      0.839      1.220
REMARK  Name = 
REMARK  5 active torsions:
REMARK  status: ('A' for Active; 'I' for Inactive)
REMARK    1  A    between atoms: C_1  and  C_2
REMARK    2  A    between atoms: C_2  and  N_3
REMARK    3  A    between atoms: C_2  and  C_24
REMARK    4  A    between atoms: C_12  and  C_13
REMARK    5  A    between atoms: C_16  and  C_17
REMARK                            x       y       z     vdW  Elec       q    Type
REMARK                         _______ _______ _______ _____ _____    ______ ____
ROOT
ATOM      1  N   UNL     1      -0.730  12.844  20.912  0.00  0.00    +0.000 N 
ATOM      2  C   UNL     1       0.176  11.807  20.766  0.00  0.00    +0.000 C 
ATOM      3  O   UNL     1       1.194  11.729  21.448  0.00  0.00    +0.000 OA
ATOM      4  N   UNL     1      -0.192  10.886  19.806  0.00  0.00    +0.000 N 
ATOM      5  C   UNL     1       0.673   9.821  19.477  0.00  0.00    +0.000 A 
ATOM      6  C   UNL     1       1.020   8.897  20.456  0.00  0.00    +0.000 A 
ATOM      7  C   UNL     1       1.800   7.815  20.033  0.00  0.00    +0.000 A 
ATOM      8  N   UNL     1       2.263   6.705  20.672  0.00  0.00    +0.000 N 
ATOM      9  N   UNL     1       2.989   5.896  19.889  0.00  0.00    +0.000 NA
ATOM     10  C   UNL     1       3.030   6.499  18.699  0.00  0.00    +0.000 A 
ATOM     11  C   UNL     1       2.255   7.705  18.728  0.00  0.00    +0.000 A 
ATOM     12  C   UNL     1       1.879   8.695  17.812  0.00  0.00    +0.000 A 
ATOM     13  N   UNL     1       1.046   9.709  18.183  0.00  0.00    +0.000 NA
ATOM     14  H   UNL     1      -1.421  12.995  20.195  0.00  0.00    +0.000 HD
ATOM     15  H   UNL     1      -0.722  11.236  19.023  0.00  0.00    +0.000 HD
ATOM     16  H   UNL     1       2.108   6.428  21.638  0.00  0.00    +0.000 HD
ENDROOT
BRANCH  10  17
ATOM     17  C   UNL     1       3.789   5.934  17.574  0.00  0.00    +0.000 A 
ATOM     18  C   UNL     1       3.768   4.554  17.322  0.00  0.00    +0.000 A 
ATOM     19  C   UNL     1       4.537   4.006  16.287  0.00  0.00    +0.000 A 
ATOM     20  C   UNL     1       5.334   4.831  15.488  0.00  0.00    +0.000 A 
ATOM     21  C   UNL     1       5.344   6.209  15.716  0.00  0.00    +0.000 A 
ATOM     22  C   UNL     1       4.577   6.753  16.753  0.00  0.00    +0.000 A 
BRANCH  20  23
ATOM     23  C   UNL     1       6.145   4.264  14.447  0.00  0.00    +0.000 C 
ATOM     24  N   UNL     1       6.799   3.803  13.610  0.00  0.00    +0.000 NA
ENDBRANCH  20  23
ENDBRANCH  10  17
BRANCH   1  26
ATOM     25  C   UNL     1      -1.226  13.588  23.228  0.00  0.00    +0.000 C 
ATOM     26  C   UNL     1      -0.502  13.890  21.909  0.00  0.00    +0.000 C 
BRANCH  26  27
ATOM     27  C   UNL     1      -0.888  15.282  21.425  0.00  0.00    +0.000 A 
ATOM     28  C   UNL     1      -1.568  16.156  22.293  0.00  0.00    +0.000 A 
ATOM     29  C   UNL     1      -2.025  17.402  21.854  0.00  0.00    +0.000 A 
ATOM     30  C   UNL     1      -1.800  17.804  20.540  0.00  0.00    +0.000 A 
ATOM     31  C   UNL     1      -1.131  16.950  19.668  0.00  0.00    +0.000 A 
ATOM     32 CL   UNL     1      -0.867  17.436  18.036  0.00  0.00    +0.000 Cl
ATOM     33  C   UNL     1      -0.680  15.699  20.098  0.00  0.00    +0.000 A 
ENDBRANCH  26  27
ENDBRANCH   1  26
TORSDOF 4
ENDMDL
MODEL 3
REMARK VINA RESULT:      -8.1      1.029      1.075
REMARK  Name = 
REMARK  5 active torsions:
REMARK  status: ('A' for Active; 'I' for Inactive)
REMARK    1  A    between atoms: C_1  and  C_2
REMARK    2  A    between atoms: C_2  and  N_3
REMARK    3  A    between atoms: C_2  and  C_24
REMARK    4  A    between atoms: C_12  and  C_13
REMARK    5  A    between atoms: C_16  and  C_17
REMARK                            x       y       z     vdW  Elec       q    Type
REMARK                         _______ _______ _______ _____ _____    ______ ____
ROOT
ATOM      1  N   UNL     1      -0.482  13.192  20.706  0.00  0.00    +0.000 N 
ATOM      2  C   UNL     1       0.353  12.090  20.628  0.00  0.00    +0.000 C 
ATOM      3  O   UNL     1       1.307  11.940  21.387  0.00  0.00    +0.000 OA
ATOM      4  N   UNL     1      -0.007  11.195  19.641  0.00  0.00    +0.000 N 
ATOM      5  C   UNL     1       0.800  10.069  19.378  0.00  0.00    +0.000 A 
ATOM      6  C   UNL     1       1.001   9.125  20.379  0.00  0.00    +0.000 A 
ATOM      7  C   UNL     1       1.729   7.987  20.015  0.00  0.00    +0.000 A 
ATOM      8  N   UNL     1       2.058   6.848  20.686  0.00  0.00    +0.000 N 
ATOM      9  N   UNL     1       2.780   5.984  19.959  0.00  0.00    +0.000 NA
ATOM     10  C   UNL     1       2.958   6.579  18.777  0.00  0.00    +0.000 A 
ATOM     11  C   UNL     1       2.274   7.839  18.749  0.00  0.00    +0.000 A 
ATOM     12  C   UNL     1       2.044   8.850  17.808  0.00  0.00    +0.000 A 
ATOM     13  N   UNL     1       1.262   9.925  18.116  0.00  0.00    +0.000 NA
ATOM     14  H   UNL     1      -1.103  13.391  19.939  0.00  0.00    +0.000 HD
ATOM     15  H   UNL     1      -0.447  11.581  18.820  0.00  0.00    +0.000 HD
ATOM     16  H   UNL     1       1.808   6.586  21.636  0.00  0.00    +0.000 HD
ENDROOT
BRANCH  10  17
ATOM     17  C   UNL     1       3.758   5.955  17.713  0.00  0.00    +0.000 A 
ATOM     18  C   UNL     1       4.585   6.736  16.892  0.00  0.00    +0.000 A 
ATOM     19  C   UNL     1       5.303   6.151  15.841  0.00  0.00    +0.000 A 
ATOM     20  C   UNL     1       5.208   4.778  15.599  0.00  0.00    +0.000 A 
ATOM     21  C   UNL     1       4.404   3.987  16.427  0.00  0.00    +0.000 A 
ATOM     22  C   UNL     1       3.686   4.575  17.474  0.00  0.00    +0.000 A 
BRANCH  20  23
ATOM     23  C   UNL     1       5.920   4.185  14.503  0.00  0.00    +0.000 C 
ATOM     24  N   UNL     1       6.491   3.706  13.617  0.00  0.00    +0.000 NA
ENDBRANCH  20  23
ENDBRANCH  10  17
BRANCH   1  26
ATOM     25  C   UNL     1      -1.564  14.892  22.155  0.00  0.00    +0.000 C 
ATOM     26  C   UNL     1      -0.255  14.222  21.720  0.00  0.00    +0.000 C 
BRANCH  26  27
ATOM     27  C   UNL     1       0.743  15.290  21.287  0.00  0.00    +0.000 A 
ATOM     28  C   UNL     1       1.703  15.756  22.203  0.00  0.00    +0.000 A 
ATOM     29  C   UNL     1       2.569  16.802  21.874  0.00  0.00    +0.000 A 
ATOM     30  C   UNL     1       2.499  17.397  20.617  0.00  0.00    +0.000 A 
ATOM     31  C   UNL     1       1.552  16.949  19.700  0.00  0.00    +0.000 A 
ATOM     32 CL   UNL     1       1.450  17.694  18.150  0.00  0.00    +0.000 Cl
ATOM     33  C   UNL     1       0.677  15.909  20.026  0.00  0.00    +0.000 A 
ENDBRANCH  26  27
ENDBRANCH   1  26
TORSDOF 4
ENDMDL
MODEL 4
REMARK VINA RESULT:      -8.1      3.561      5.162
REMARK  Name = 
REMARK  5 active torsions:
REMARK  status: ('A' for Active; 'I' for Inactive)
REMARK    1  A    between atoms: C_1  and  C_2
REMARK    2  A    between atoms: C_2  and  N_3
REMARK    3  A    between atoms: C_2  and  C_24
REMARK    4  A    between atoms: C_12  and  C_13
REMARK    5  A    between atoms: C_16  and  C_17
REMARK                            x       y       z     vdW  Elec       q    Type
REMARK                         _______ _______ _______ _____ _____    ______ ____
ROOT
ATOM      1  N   UNL     1      -2.808  13.560  21.533  0.00  0.00    +0.000 N 
ATOM      2  C   UNL     1      -2.154  12.627  20.747  0.00  0.00    +0.000 C 
ATOM      3  O   UNL     1      -2.588  12.278  19.652  0.00  0.00    +0.000 OA
ATOM      4  N   UNL     1      -0.983  12.159  21.307  0.00  0.00    +0.000 N 
ATOM      5  C   UNL     1      -0.252  11.136  20.668  0.00  0.00    +0.000 A 
ATOM      6  C   UNL     1       0.262  11.358  19.395  0.00  0.00    +0.000 A 
ATOM      7  C   UNL     1       1.059  10.338  18.866  0.00  0.00    +0.000 A 
ATOM      8  N   UNL     1       1.772  10.228  17.709  0.00  0.00    +0.000 N 
ATOM      9  N   UNL     1       2.416   9.060  17.583  0.00  0.00    +0.000 NA
ATOM     10  C   UNL     1       2.101   8.362  18.677  0.00  0.00    +0.000 A 
ATOM     11  C   UNL     1       1.272   9.147  19.543  0.00  0.00    +0.000 A 
ATOM     12  C   UNL     1       0.697   8.997  20.811  0.00  0.00    +0.000 A 
ATOM     13  N   UNL     1      -0.010  10.014  21.382  0.00  0.00    +0.000 NA
ATOM     14  H   UNL     1      -2.550  13.651  22.503  0.00  0.00    +0.000 HD
ATOM     15  H   UNL     1      -0.950  12.114  22.314  0.00  0.00    +0.000 HD
ATOM     16  H   UNL     1       1.877  10.919  16.971  0.00  0.00    +0.000 HD
ENDROOT
BRANCH  10  17
ATOM     17  C   UNL     1       2.583   6.988  18.878  0.00  0.00    +0.000 A 
ATOM     18  C   UNL     1       3.363   6.356  17.898  0.00  0.00    +0.000 A 
ATOM     19  C   UNL     1       3.775   5.026  18.063  0.00  0.00    +0.000 A 
ATOM     20  C   UNL     1       3.415   4.313  19.210  0.00  0.00    +0.000 A 
ATOM     21  C   UNL     1       2.658   4.942  20.203  0.00  0.00    +0.000 A 
ATOM     22  C   UNL     1       2.247   6.269  20.034  0.00  0.00    +0.000 A 
BRANCH  20  23
ATOM     23  C   UNL     1       3.811   2.942  19.363  0.00  0.00    +0.000 C 
ATOM     24  N   UNL     1       4.127   1.835  19.488  0.00  0.00    +0.000 NA
ENDBRANCH  20  23
ENDBRANCH  10  17
BRANCH   1  26
ATOM     25  C   UNL     1      -4.110  15.671  21.414  0.00  0.00    +0.000 C 
ATOM     26  C   UNL     1      -4.052  14.177  21.070  0.00  0.00    +0.000 C 
BRANCH  26  27
ATOM     27  C   UNL     1      -5.304  13.486  21.597  0.00  0.00    +0.000 A 
ATOM     28  C   UNL     1      -5.907  12.468  20.836  0.00  0.00    +0.000 A 
ATOM     29  C   UNL     1      -7.110  11.880  21.238  0.00  0.00    +0.000 A 
ATOM     30  C   UNL     1      -7.728  12.292  22.417  0.00  0.00    +0.000 A 
ATOM     31  C   UNL     1      -7.146  13.301  23.179  0.00  0.00    +0.000 A 
ATOM     32 CL   UNL     1      -7.916  13.826  24.626  0.00  0.00    +0.000 Cl
ATOM     33  C   UNL     1      -5.948  13.899  22.777  0.00  0.00    +0.000 A 
ENDBRANCH  26  27
ENDBRANCH   1  26
TORSDOF 4
ENDMDL
MODEL 5
REMARK VINA RESULT:      -8.0      3.695      5.296
REMARK  Name = 
REMARK  5 active torsions:
REMARK  status: ('A' for Active; 'I' for Inactive)
REMARK    1  A    between atoms: C_1  and  C_2
REMARK    2  A    between atoms: C_2  and  N_3
REMARK    3  A    between atoms: C_2  and  C_24
REMARK    4  A    between atoms: C_12  and  C_13
REMARK    5  A    between atoms: C_16  and  C_17
REMARK                            x       y       z     vdW  Elec       q    Type
REMARK                         _______ _______ _______ _____ _____    ______ ____
ROOT
ATOM      1  N   UNL     1      -2.953  13.472  21.095  0.00  0.00    +0.000 N 
ATOM      2  C   UNL     1      -2.257  12.524  20.364  0.00  0.00    +0.000 C 
ATOM      3  O   UNL     1      -2.647  12.130  19.268  0.00  0.00    +0.000 OA
ATOM      4  N   UNL     1      -1.098  12.096  20.979  0.00  0.00    +0.000 N 
ATOM      5  C   UNL     1      -0.328  11.065  20.401  0.00  0.00    +0.000 A 
ATOM      6  C   UNL     1       0.225  11.252  19.139  0.00  0.00    +0.000 A 
ATOM      7  C   UNL     1       1.057  10.229  18.673  0.00  0.00    +0.000 A 
ATOM      8  N   UNL     1       1.810  10.092  17.546  0.00  0.00    +0.000 N 
ATOM      9  N   UNL     1       2.477   8.932  17.481  0.00  0.00    +0.000 NA
ATOM     10  C   UNL     1       2.137   8.266  18.588  0.00  0.00    +0.000 A 
ATOM     11  C   UNL     1       1.265   9.066  19.398  0.00  0.00    +0.000 A 
ATOM     12  C   UNL     1       0.649   8.949  20.650  0.00  0.00    +0.000 A 
ATOM     13  N   UNL     1      -0.093   9.973  21.162  0.00  0.00    +0.000 NA
ATOM     14  H   UNL     1      -2.729  13.600  22.069  0.00  0.00    +0.000 HD
ATOM     15  H   UNL     1      -1.099  12.087  21.987  0.00  0.00    +0.000 HD
ATOM     16  H   UNL     1       1.929  10.759  16.787  0.00  0.00    +0.000 HD
ENDROOT
BRANCH  10  17
ATOM     17  C   UNL     1       2.634   6.909  18.853  0.00  0.00    +0.000 A 
ATOM     18  C   UNL     1       2.254   6.226  20.019  0.00  0.00    +0.000 A 
ATOM     19  C   UNL     1       2.772   4.955  20.302  0.00  0.00    +0.000 A 
ATOM     20  C   UNL     1       3.674   4.349  19.422  0.00  0.00    +0.000 A 
ATOM     21  C   UNL     1       4.040   5.011  18.247  0.00  0.00    +0.000 A 
ATOM     22  C   UNL     1       3.522   6.281  17.969  0.00  0.00    +0.000 A 
BRANCH  20  23
ATOM     23  C   UNL     1       4.228   3.060  19.729  0.00  0.00    +0.000 C 
ATOM     24  N   UNL     1       4.676   2.021  19.973  0.00  0.00    +0.000 NA
ENDBRANCH  20  23
ENDBRANCH  10  17
BRANCH   1  26
ATOM     25  C   UNL     1      -4.489  15.419  21.193  0.00  0.00    +0.000 C 
ATOM     26  C   UNL     1      -4.189  14.051  20.569  0.00  0.00    +0.000 C 
BRANCH  26  27
ATOM     27  C   UNL     1      -5.401  13.141  20.732  0.00  0.00    +0.000 A 
ATOM     28  C   UNL     1      -6.000  12.572  19.594  0.00  0.00    +0.000 A 
ATOM     29  C   UNL     1      -7.171  11.814  19.695  0.00  0.00    +0.000 A 
ATOM     30  C   UNL     1      -7.760  11.601  20.939  0.00  0.00    +0.000 A 
ATOM     31  C   UNL     1      -7.180  12.160  22.075  0.00  0.00    +0.000 A 
ATOM     32 CL   UNL     1      -7.915  11.916  23.613  0.00  0.00    +0.000 Cl
ATOM     33  C   UNL     1      -6.015  12.927  21.979  0.00  0.00    +0.000 A 
ENDBRANCH  26  27
ENDBRANCH   1  26
TORSDOF 4
ENDMDL
MODEL 6
REMARK VINA RESULT:      -8.0      0.956      1.050
REMARK  Name = 
REMARK  5 active torsions:
REMARK  status: ('A' for Active; 'I' for Inactive)
REMARK    1  A    between atoms: C_1  and  C_2
REMARK    2  A    between atoms: C_2  and  N_3
REMARK    3  A    between atoms: C_2  and  C_24
REMARK    4  A    between atoms: C_12  and  C_13
REMARK    5  A    between atoms: C_16  and  C_17
REMARK                            x       y       z     vdW  Elec       q    Type
REMARK                         _______ _______ _______ _____ _____    ______ ____
ROOT
ATOM      1  N   UNL     1      -0.708  12.366  21.251  0.00  0.00    +0.000 N 
ATOM      2  C   UNL     1       0.216  11.353  21.058  0.00  0.00    +0.000 C 
ATOM      3  O   UNL     1       1.220  11.244  21.756  0.00  0.00    +0.000 OA
ATOM      4  N   UNL     1      -0.118  10.492  20.032  0.00  0.00    +0.000 N 
ATOM      5  C   UNL     1       0.770   9.463  19.654  0.00  0.00    +0.000 A 
ATOM      6  C   UNL     1       1.110   8.482  20.578  0.00  0.00    +0.000 A 
ATOM      7  C   UNL     1       1.915   7.441  20.103  0.00  0.00    +0.000 A 
ATOM      8  N   UNL     1       2.381   6.297  20.679  0.00  0.00    +0.000 N 
ATOM      9  N   UNL     1       3.135   5.551  19.861  0.00  0.00    +0.000 NA
ATOM     10  C   UNL     1       3.193   6.231  18.714  0.00  0.00    +0.000 A 
ATOM     11  C   UNL     1       2.399   7.422  18.804  0.00  0.00    +0.000 A 
ATOM     12  C   UNL     1       2.028   8.464  17.946  0.00  0.00    +0.000 A 
ATOM     13  N   UNL     1       1.172   9.441  18.363  0.00  0.00    +0.000 NA
ATOM     14  H   UNL     1      -1.386  12.554  20.530  0.00  0.00    +0.000 HD
ATOM     15  H   UNL     1      -0.636  10.886  19.262  0.00  0.00    +0.000 HD
ATOM     16  H   UNL     1       2.209   5.955  21.621  0.00  0.00    +0.000 HD
ENDROOT
BRANCH  10  17
ATOM     17  C   UNL     1       3.984   5.751  17.572  0.00  0.00    +0.000 A 
ATOM     18  C   UNL     1       4.639   6.659  16.726  0.00  0.00    +0.000 A 
ATOM     19  C   UNL     1       5.346   6.206  15.605  0.00  0.00    +0.000 A 
ATOM     20  C   UNL     1       5.411   4.840  15.315  0.00  0.00    +0.000 A 
ATOM     21  C   UNL     1       4.781   3.926  16.165  0.00  0.00    +0.000 A 
ATOM     22  C   UNL     1       4.074   4.382  17.283  0.00  0.00    +0.000 A 
BRANCH  20  23
ATOM     23  C   UNL     1       6.109   4.381  14.148  0.00  0.00    +0.000 C 
ATOM     24  N   UNL     1       6.674   4.014  13.206  0.00  0.00    +0.000 NA
ENDBRANCH  20  23
ENDBRANCH  10  17
BRANCH   1  26
ATOM     25  C   UNL     1      -1.690  13.352  23.307  0.00  0.00    +0.000 C 
ATOM     26  C   UNL     1      -0.517  13.348  22.319  0.00  0.00    +0.000 C 
BRANCH  26  27
ATOM     27  C   UNL     1      -0.281  14.763  21.806  0.00  0.00    +0.000 A 
ATOM     28  C   UNL     1       0.899  15.057  21.098  0.00  0.00    +0.000 A 
ATOM     29  C   UNL     1       1.197  16.364  20.698  0.00  0.00    +0.000 A 
ATOM     30  C   UNL     1       0.314  17.401  20.990  0.00  0.00    +0.000 A 
ATOM     31  C   UNL     1      -0.857  17.127  21.692  0.00  0.00    +0.000 A 
ATOM     32 CL   UNL     1      -1.942  18.409  22.071  0.00  0.00    +0.000 Cl
ATOM     33  C   UNL     1      -1.155  15.824  22.103  0.00  0.00    +0.000 A 
ENDBRANCH  26  27
ENDBRANCH   1  26
TORSDOF 4
ENDMDL
MODEL 7
REMARK VINA RESULT:      -8.0      1.142      1.441
REMARK  Name = 
REMARK  5 active torsions:
REMARK  status: ('A' for Active; 'I' for Inactive)
REMARK    1  A    between atoms: C_1  and  C_2
REMARK    2  A    between atoms: C_2  and  N_3
REMARK    3  A    between atoms: C_2  and  C_24
REMARK    4  A    between atoms: C_12  and  C_13
REMARK    5  A    between atoms: C_16  and  C_17
REMARK                            x       y       z     vdW  Elec       q    Type
REMARK                         _______ _______ _______ _____ _____    ______ ____
ROOT
ATOM      1  N   UNL     1      -0.793  12.916  20.632  0.00  0.00    +0.000 N 
ATOM      2  C   UNL     1       0.121  11.879  20.550  0.00  0.00    +0.000 C 
ATOM      3  O   UNL     1       1.128  11.840  21.251  0.00  0.00    +0.000 OA
ATOM      4  N   UNL     1      -0.227  10.911  19.629  0.00  0.00    +0.000 N 
ATOM      5  C   UNL     1       0.649   9.838  19.365  0.00  0.00    +0.000 A 
ATOM      6  C   UNL     1       0.987   8.963  20.392  0.00  0.00    +0.000 A 
ATOM      7  C   UNL     1       1.779   7.868  20.033  0.00  0.00    +0.000 A 
ATOM      8  N   UNL     1       2.239   6.792  20.732  0.00  0.00    +0.000 N 
ATOM      9  N   UNL     1       2.981   5.952  19.999  0.00  0.00    +0.000 NA
ATOM     10  C   UNL     1       3.037   6.498  18.782  0.00  0.00    +0.000 A 
ATOM     11  C   UNL     1       2.255   7.699  18.742  0.00  0.00    +0.000 A 
ATOM     12  C   UNL     1       1.888   8.641  17.774  0.00  0.00    +0.000 A 
ATOM     13  N   UNL     1       1.043   9.667  18.083  0.00  0.00    +0.000 NA
ATOM     14  H   UNL     1      -1.474  13.028  19.899  0.00  0.00    +0.000 HD
ATOM     15  H   UNL     1      -0.746  11.221  18.823  0.00  0.00    +0.000 HD
ATOM     16  H   UNL     1       2.069   6.560  21.707  0.00  0.00    +0.000 HD
ENDROOT
BRANCH  10  17
ATOM     17  C   UNL     1       3.817   5.885  17.697  0.00  0.00    +0.000 A 
ATOM     18  C   UNL     1       4.628   6.674  16.869  0.00  0.00    +0.000 A 
ATOM     19  C   UNL     1       5.327   6.100  15.799  0.00  0.00    +0.000 A 
ATOM     20  C   UNL     1       5.228   4.729  15.545  0.00  0.00    +0.000 A 
ATOM     21  C   UNL     1       4.441   3.930  16.380  0.00  0.00    +0.000 A 
ATOM     22  C   UNL     1       3.742   4.508  17.446  0.00  0.00    +0.000 A 
BRANCH  20  23
ATOM     23  C   UNL     1       5.920   4.147  14.430  0.00  0.00    +0.000 C 
ATOM     24  N   UNL     1       6.479   3.682  13.529  0.00  0.00    +0.000 NA
ENDBRANCH  20  23
ENDBRANCH  10  17
BRANCH   1  26
ATOM     25  C   UNL     1      -1.886  14.391  22.303  0.00  0.00    +0.000 C 
ATOM     26  C   UNL     1      -0.587  14.010  21.582  0.00  0.00    +0.000 C 
BRANCH  26  27
ATOM     27  C   UNL     1       0.027  15.253  20.950  0.00  0.00    +0.000 A 
ATOM     28  C   UNL     1       0.149  15.333  19.551  0.00  0.00    +0.000 A 
ATOM     29  C   UNL     1       0.795  16.413  18.941  0.00  0.00    +0.000 A 
ATOM     30  C   UNL     1       1.325  17.439  19.720  0.00  0.00    +0.000 A 
ATOM     31  C   UNL     1       1.216  17.373  21.106  0.00  0.00    +0.000 A 
ATOM     32 CL   UNL     1       1.885  18.631  22.074  0.00  0.00    +0.000 Cl
ATOM     33  C   UNL     1       0.578  16.292  21.722  0.00  0.00    +0.000 A 
ENDBRANCH  26  27
ENDBRANCH   1  26
TORSDOF 4
ENDMDL
MODEL 8
REMARK VINA RESULT:      -8.0      3.367      4.563
REMARK  Name = 
REMARK  5 active torsions:
REMARK  status: ('A' for Active; 'I' for Inactive)
REMARK    1  A    between atoms: C_1  and  C_2
REMARK    2  A    between atoms: C_2  and  N_3
REMARK    3  A    between atoms: C_2  and  C_24
REMARK    4  A    between atoms: C_12  and  C_13
REMARK    5  A    between atoms: C_16  and  C_17
REMARK                            x       y       z     vdW  Elec       q    Type
REMARK                         _______ _______ _______ _____ _____    ______ ____
ROOT
ATOM      1  N   UNL     1      -1.542  13.342  22.358  0.00  0.00    +0.000 N 
ATOM      2  C   UNL     1      -1.132  12.414  21.416  0.00  0.00    +0.000 C 
ATOM      3  O   UNL     1      -1.760  12.216  20.380  0.00  0.00    +0.000 OA
ATOM      4  N   UNL     1       0.040  11.767  21.754  0.00  0.00    +0.000 N 
ATOM      5  C   UNL     1       0.536  10.729  20.939  0.00  0.00    +0.000 A 
ATOM      6  C   UNL     1       0.883  11.003  19.620  0.00  0.00    +0.000 A 
ATOM      7  C   UNL     1       1.461   9.950  18.904  0.00  0.00    +0.000 A 
ATOM      8  N   UNL     1       1.979   9.863  17.646  0.00  0.00    +0.000 N 
ATOM      9  N   UNL     1       2.445   8.646  17.339  0.00  0.00    +0.000 NA
ATOM     10  C   UNL     1       2.207   7.893  18.416  0.00  0.00    +0.000 A 
ATOM     11  C   UNL     1       1.618   8.688  19.454  0.00  0.00    +0.000 A 
ATOM     12  C   UNL     1       1.218   8.491  20.781  0.00  0.00    +0.000 A 
ATOM     13  N   UNL     1       0.736   9.528  21.526  0.00  0.00    +0.000 NA
ATOM     14  H   UNL     1      -1.136  13.316  23.280  0.00  0.00    +0.000 HD
ATOM     15  H   UNL     1       0.213  11.630  22.738  0.00  0.00    +0.000 HD
ATOM     16  H   UNL     1       2.062  10.600  16.951  0.00  0.00    +0.000 HD
ENDROOT
BRANCH  10  17
ATOM     17  C   UNL     1       2.536   6.461  18.443  0.00  0.00    +0.000 A 
ATOM     18  C   UNL     1       1.740   5.534  17.754  0.00  0.00    +0.000 A 
ATOM     19  C   UNL     1       2.018   4.163  17.826  0.00  0.00    +0.000 A 
ATOM     20  C   UNL     1       3.097   3.700  18.584  0.00  0.00    +0.000 A 
ATOM     21  C   UNL     1       3.910   4.618  19.255  0.00  0.00    +0.000 A 
ATOM     22  C   UNL     1       3.628   5.987  19.183  0.00  0.00    +0.000 A 
BRANCH  20  23
ATOM     23  C   UNL     1       3.362   2.292  18.682  0.00  0.00    +0.000 C 
ATOM     24  N   UNL     1       3.577   1.157  18.765  0.00  0.00    +0.000 NA
ENDBRANCH  20  23
ENDBRANCH  10  17
BRANCH   1  26
ATOM     25  C   UNL     1      -2.547  15.606  22.523  0.00  0.00    +0.000 C 
ATOM     26  C   UNL     1      -2.751  14.135  22.138  0.00  0.00    +0.000 C 
BRANCH  26  27
ATOM     27  C   UNL     1      -3.976  13.586  22.860  0.00  0.00    +0.000 A 
ATOM     28  C   UNL     1      -3.819  12.937  24.097  0.00  0.00    +0.000 A 
ATOM     29  C   UNL     1      -4.904  12.334  24.741  0.00  0.00    +0.000 A 
ATOM     30  C   UNL     1      -6.171  12.379  24.163  0.00  0.00    +0.000 A 
ATOM     31  C   UNL     1      -6.342  13.015  22.937  0.00  0.00    +0.000 A 
ATOM     32 CL   UNL     1      -7.903  13.056  22.210  0.00  0.00    +0.000 Cl
ATOM     33  C   UNL     1      -5.259  13.611  22.284  0.00  0.00    +0.000 A 
ENDBRANCH  26  27
ENDBRANCH   1  26
TORSDOF 4
ENDMDL
MODEL 9
REMARK VINA RESULT:      -8.0      3.493      5.124
REMARK  Name = 
REMARK  5 active torsions:
REMARK  status: ('A' for Active; 'I' for Inactive)
REMARK    1  A    between atoms: C_1  and  C_2
REMARK    2  A    between atoms: C_2  and  N_3
REMARK    3  A    between atoms: C_2  and  C_24
REMARK    4  A    between atoms: C_12  and  C_13
REMARK    5  A    between atoms: C_16  and  C_17
REMARK                            x       y       z     vdW  Elec       q    Type
REMARK                         _______ _______ _______ _____ _____    ______ ____
ROOT
ATOM      1  N   UNL     1      -2.724  13.777  22.019  0.00  0.00    +0.000 N 
ATOM      2  C   UNL     1      -2.135  12.847  21.180  0.00  0.00    +0.000 C 
ATOM      3  O   UNL     1      -2.636  12.527  20.106  0.00  0.00    +0.000 OA
ATOM      4  N   UNL     1      -0.943  12.346  21.664  0.00  0.00    +0.000 N 
ATOM      5  C   UNL     1      -0.269  11.323  20.966  0.00  0.00    +0.000 A 
ATOM      6  C   UNL     1       0.175  11.559  19.669  0.00  0.00    +0.000 A 
ATOM      7  C   UNL     1       0.921  10.535  19.078  0.00  0.00    +0.000 A 
ATOM      8  N   UNL     1       1.564  10.434  17.881  0.00  0.00    +0.000 N 
ATOM      9  N   UNL     1       2.177   9.257  17.696  0.00  0.00    +0.000 NA
ATOM     10  C   UNL     1       1.912   8.544  18.793  0.00  0.00    +0.000 A 
ATOM     11  C   UNL     1       1.149   9.328  19.720  0.00  0.00    +0.000 A 
ATOM     12  C   UNL     1       0.643   9.164  21.015  0.00  0.00    +0.000 A 
ATOM     13  N   UNL     1      -0.009  10.183  21.645  0.00  0.00    +0.000 NA
ATOM     14  H   UNL     1      -2.410  13.844  22.974  0.00  0.00    +0.000 HD
ATOM     15  H   UNL     1      -0.854  12.282  22.666  0.00  0.00    +0.000 HD
ATOM     16  H   UNL     1       1.641  11.136  17.150  0.00  0.00    +0.000 HD
ENDROOT
BRANCH  10  17
ATOM     17  C   UNL     1       2.377   7.158  18.942  0.00  0.00    +0.000 A 
ATOM     18  C   UNL     1       2.005   6.397  20.061  0.00  0.00    +0.000 A 
ATOM     19  C   UNL     1       2.494   5.096  20.234  0.00  0.00    +0.000 A 
ATOM     20  C   UNL     1       3.359   4.536  19.289  0.00  0.00    +0.000 A 
ATOM     21  C   UNL     1       3.717   5.277  18.160  0.00  0.00    +0.000 A 
ATOM     22  C   UNL     1       3.229   6.578  17.992  0.00  0.00    +0.000 A 
BRANCH  20  23
ATOM     23  C   UNL     1       3.884   3.214  19.483  0.00  0.00    +0.000 C 
ATOM     24  N   UNL     1       4.311   2.149  19.638  0.00  0.00    +0.000 NA
ENDBRANCH  20  23
ENDBRANCH  10  17
BRANCH   1  26
ATOM     25  C   UNL     1      -4.013  15.898  22.066  0.00  0.00    +0.000 C 
ATOM     26  C   UNL     1      -3.980  14.425  21.639  0.00  0.00    +0.000 C 
BRANCH  26  27
ATOM     27  C   UNL     1      -5.216  13.714  22.175  0.00  0.00    +0.000 A 
ATOM     28  C   UNL     1      -5.583  13.880  23.523  0.00  0.00    +0.000 A 
ATOM     29  C   UNL     1      -6.652  13.167  24.075  0.00  0.00    +0.000 A 
ATOM     30  C   UNL     1      -7.381  12.280  23.286  0.00  0.00    +0.000 A 
ATOM     31  C   UNL     1      -7.028  12.102  21.952  0.00  0.00    +0.000 A 
ATOM     32 CL   UNL     1      -7.915  10.994  20.977  0.00  0.00    +0.000 Cl
ATOM     33  C   UNL     1      -5.955  12.805  21.396  0.00  0.00    +0.000 A 
ENDBRANCH  26  27
ENDBRANCH   1  26
TORSDOF 4
ENDMDL
