MODEL 1
REMARK VINA RESULT:      -7.7      0.000      0.000
REMARK  Name = 
REMARK  11 active torsions:
REMARK  status: ('A' for Active; 'I' for Inactive)
REMARK    1  A    between atoms: C_1  and  O_2
REMARK    2  A    between atoms: O_2  and  C_3
REMARK    3  A    between atoms: C_3  and  C_5
REMARK    4  A    between atoms: N_7  and  C_8
REMARK    5  A    between atoms: C_11  and  N_12
REMARK    6  A    between atoms: N_12  and  CA_13
REMARK    7  A    between atoms: CA_17  and  C_18
REMARK    8  A    between atoms: C_21  and  C_22
REMARK    9  A    between atoms: C_22  and  S_23
REMARK   10  A    between atoms: S_23  and  C_24
REMARK   11  A    between atoms: N_28  and  C_29
REMARK                            x       y       z     vdW  Elec       q    Type
REMARK                         _______ _______ _______ _____ _____    ______ ____
ROOT
ATOM      1  CA  UNL     1       1.590   6.608  19.787  0.00  0.00    +0.000 C 
ATOM      2  C   UNL     1       2.438   5.345  20.172  0.00  0.00    +0.000 C 
ATOM      3  O   UNL     1       2.698   4.786  21.214  0.00  0.00    +0.000 OA
ATOM      4  N   UNL     1       2.877   5.249  18.905  0.00  0.00    +0.000 N 
ATOM      5  CA  UNL     1       3.718   4.427  18.217  0.00  0.00    +0.000 C 
ATOM      6  C   UNL     1       4.361   4.904  17.121  0.00  0.00    +0.000 C 
ATOM      7  C   UNL     1       4.262   6.346  16.640  0.00  0.00    +0.000 C 
ATOM      8  S   UNL     1       3.486   7.545  17.791  0.00  0.00    +0.000 S 
ATOM      9  C   UNL     1       2.206   6.393  18.357  0.00  0.00    +0.000 C 
ENDROOT
BRANCH   5  10
ATOM     10  C   UNL     1       3.859   2.943  18.744  0.00  0.00    +0.000 C 
ATOM     11  O   UNL     1       4.793   2.733  19.565  0.00  0.00    +0.000 OA
ATOM     12  OXT UNL     1       3.026   2.144  18.220  0.00  0.00    +0.000 OA
ENDBRANCH   5  10
BRANCH   1  13
ATOM     13  N   UNL     1       1.886   7.864  20.461  0.00  0.00    +0.000 N 
ATOM     14  H   UNL     1       2.883   8.077  20.546  0.00  0.00    +0.000 HD
BRANCH  13  21
ATOM     15  C   UNL     1       0.585   9.933  20.208  0.00  0.00    +0.000 A 
ATOM     16  C   UNL     1      -0.092  10.995  20.825  0.00  0.00    +0.000 A 
ATOM     17  N   UNL     1      -0.404  10.942  22.140  0.00  0.00    +0.000 N 
ATOM     18  C   UNL     1      -1.014  12.099  22.814  0.00  0.00    +0.000 C 
ATOM     19  C   UNL     1      -0.113   9.844  22.869  0.00  0.00    +0.000 A 
ATOM     20  C   UNL     1       0.567   8.777  22.293  0.00  0.00    +0.000 A 
ATOM     21  C   UNL     1       0.983   8.822  20.961  0.00  0.00    +0.000 A 
BRANCH  15  22
ATOM     22  C   UNL     1       0.827  10.098  18.756  0.00  0.00    +0.000 C 
ATOM     23  O   UNL     1       0.062   9.673  17.910  0.00  0.00    +0.000 OA
BRANCH  22  25
ATOM     24  C   UNL     1       2.074  12.071  18.446  0.00  0.00    +0.000 C 
ATOM     25  O   UNL     1       2.050  10.649  18.559  0.00  0.00    +0.000 OA
ENDBRANCH  22  25
ENDBRANCH  15  22
ENDBRANCH  13  21
ENDBRANCH   1  13
BRANCH   6  26
ATOM     26  C   UNL     1       5.370   4.093  16.315  0.00  0.00    +0.000 C 
BRANCH  26  27
ATOM     27  S   UNL     1       6.946   4.911  15.970  0.00  0.00    +0.000 S 
BRANCH  27  28
ATOM     28  C   UNL     1       7.509   5.295  17.542  0.00  0.00    +0.000 A 
ATOM     29  N   UNL     1       7.808   4.467  18.517  0.00  0.00    +0.000 NA
ATOM     30  N   UNL     1       8.222   5.260  19.561  0.00  0.00    +0.000 NA
ATOM     31  N   UNL     1       8.182   6.547  19.233  0.00  0.00    +0.000 NA
ATOM     32  N   UNL     1       7.736   6.570  17.962  0.00  0.00    +0.000 N 
ATOM     33  C   UNL     1       7.566   7.810  17.256  0.00  0.00    +0.000 C 
ENDBRANCH  27  28
ENDBRANCH  26  27
ENDBRANCH   6  26
TORSDOF 8
ENDMDL
MODEL 2
REMARK VINA RESULT:      -7.7      2.093      2.694
REMARK  Name = 
REMARK  11 active torsions:
REMARK  status: ('A' for Active; 'I' for Inactive)
REMARK    1  A    between atoms: C_1  and  O_2
REMARK    2  A    between atoms: O_2  and  C_3
REMARK    3  A    between atoms: C_3  and  C_5
REMARK    4  A    between atoms: N_7  and  C_8
REMARK    5  A    between atoms: C_11  and  N_12
REMARK    6  A    between atoms: N_12  and  CA_13
REMARK    7  A    between atoms: CA_17  and  C_18
REMARK    8  A    between atoms: C_21  and  C_22
REMARK    9  A    between atoms: C_22  and  S_23
REMARK   10  A    between atoms: S_23  and  C_24
REMARK   11  A    between atoms: N_28  and  C_29
REMARK                            x       y       z     vdW  Elec       q    Type
REMARK                         _______ _______ _______ _____ _____    ______ ____
ROOT
ATOM      1  CA  UNL     1       1.650   6.758  19.694  0.00  0.00    +0.000 C 
ATOM      2  C   UNL     1       2.411   5.482  20.199  0.00  0.00    +0.000 C 
ATOM      3  O   UNL     1       2.489   4.909  21.262  0.00  0.00    +0.000 OA
ATOM      4  N   UNL     1       3.055   5.396  19.021  0.00  0.00    +0.000 N 
ATOM      5  CA  UNL     1       3.991   4.572  18.472  0.00  0.00    +0.000 C 
ATOM      6  C   UNL     1       4.812   5.055  17.505  0.00  0.00    +0.000 C 
ATOM      7  C   UNL     1       4.806   6.503  17.032  0.00  0.00    +0.000 C 
ATOM      8  S   UNL     1       3.860   7.698  18.054  0.00  0.00    +0.000 S 
ATOM      9  C   UNL     1       2.494   6.552  18.384  0.00  0.00    +0.000 C 
ENDROOT
BRANCH   5  10
ATOM     10  C   UNL     1       4.029   3.081  18.997  0.00  0.00    +0.000 C 
ATOM     11  O   UNL     1       4.895   2.826  19.878  0.00  0.00    +0.000 OA
ATOM     12  OXT UNL     1       3.200   2.323  18.411  0.00  0.00    +0.000 OA
ENDBRANCH   5  10
BRANCH   1  13
ATOM     13  N   UNL     1       1.841   8.004  20.424  0.00  0.00    +0.000 N 
ATOM     14  H   UNL     1       2.816   8.293  20.524  0.00  0.00    +0.000 HD
BRANCH  13  21
ATOM     15  C   UNL     1       0.482  10.049  20.320  0.00  0.00    +0.000 A 
ATOM     16  C   UNL     1      -0.286  11.002  21.005  0.00  0.00    +0.000 A 
ATOM     17  N   UNL     1      -0.705  10.770  22.270  0.00  0.00    +0.000 N 
ATOM     18  C   UNL     1      -1.416  11.812  23.028  0.00  0.00    +0.000 C 
ATOM     19  C   UNL     1      -0.431   9.595  22.877  0.00  0.00    +0.000 A 
ATOM     20  C   UNL     1       0.337   8.633  22.233  0.00  0.00    +0.000 A 
ATOM     21  C   UNL     1       0.861   8.862  20.959  0.00  0.00    +0.000 A 
BRANCH  15  22
ATOM     22  C   UNL     1       0.838  10.407  18.928  0.00  0.00    +0.000 C 
ATOM     23  O   UNL     1       1.514  11.382  18.653  0.00  0.00    +0.000 OA
BRANCH  22  25
ATOM     24  C   UNL     1      -1.057  10.061  17.575  0.00  0.00    +0.000 C 
ATOM     25  O   UNL     1       0.194   9.582  18.068  0.00  0.00    +0.000 OA
ENDBRANCH  22  25
ENDBRANCH  15  22
ENDBRANCH  13  21
ENDBRANCH   1  13
BRANCH   6  26
ATOM     26  C   UNL     1       5.934   4.242  16.868  0.00  0.00    +0.000 C 
BRANCH  26  27
ATOM     27  S   UNL     1       5.574   3.538  15.242  0.00  0.00    +0.000 S 
BRANCH  27  28
ATOM     28  C   UNL     1       6.663   4.388  14.228  0.00  0.00    +0.000 A 
ATOM     29  N   UNL     1       7.524   5.319  14.570  0.00  0.00    +0.000 NA
ATOM     30  N   UNL     1       8.167   5.673  13.406  0.00  0.00    +0.000 NA
ATOM     31  N   UNL     1       7.712   4.973  12.373  0.00  0.00    +0.000 NA
ATOM     32  N   UNL     1       6.767   4.162  12.889  0.00  0.00    +0.000 N 
ATOM     33  C   UNL     1       6.045   3.238  12.059  0.00  0.00    +0.000 C 
ENDBRANCH  27  28
ENDBRANCH  26  27
ENDBRANCH   6  26
TORSDOF 8
ENDMDL
MODEL 3
REMARK VINA RESULT:      -7.6      2.095      2.647
REMARK  Name = 
REMARK  11 active torsions:
REMARK  status: ('A' for Active; 'I' for Inactive)
REMARK    1  A    between atoms: C_1  and  O_2
REMARK    2  A    between atoms: O_2  and  C_3
REMARK    3  A    between atoms: C_3  and  C_5
REMARK    4  A    between atoms: N_7  and  C_8
REMARK    5  A    between atoms: C_11  and  N_12
REMARK    6  A    between atoms: N_12  and  CA_13
REMARK    7  A    between atoms: CA_17  and  C_18
REMARK    8  A    between atoms: C_21  and  C_22
REMARK    9  A    between atoms: C_22  and  S_23
REMARK   10  A    between atoms: S_23  and  C_24
REMARK   11  A    between atoms: N_28  and  C_29
REMARK                            x       y       z     vdW  Elec       q    Type
REMARK                         _______ _______ _______ _____ _____    ______ ____
ROOT
ATOM      1  CA  UNL     1       1.623   6.825  19.516  0.00  0.00    +0.000 C 
ATOM      2  C   UNL     1       2.408   5.590  20.083  0.00  0.00    +0.000 C 
ATOM      3  O   UNL     1       2.491   5.067  21.172  0.00  0.00    +0.000 OA
ATOM      4  N   UNL     1       3.061   5.464  18.914  0.00  0.00    +0.000 N 
ATOM      5  CA  UNL     1       4.018   4.636  18.408  0.00  0.00    +0.000 C 
ATOM      6  C   UNL     1       4.835   5.092  17.425  0.00  0.00    +0.000 C 
ATOM      7  C   UNL     1       4.802   6.517  16.887  0.00  0.00    +0.000 C 
ATOM      8  S   UNL     1       3.823   7.736  17.847  0.00  0.00    +0.000 S 
ATOM      9  C   UNL     1       2.480   6.578  18.221  0.00  0.00    +0.000 C 
ENDROOT
BRANCH   5  10
ATOM     10  C   UNL     1       4.084   3.172  19.001  0.00  0.00    +0.000 C 
ATOM     11  O   UNL     1       3.218   2.362  18.574  0.00  0.00    +0.000 OA
ATOM     12  OXT UNL     1       4.987   3.028  19.879  0.00  0.00    +0.000 OA
ENDBRANCH   5  10
BRANCH   1  13
ATOM     13  N   UNL     1       1.783   8.107  20.189  0.00  0.00    +0.000 N 
ATOM     14  H   UNL     1       2.738   8.472  20.188  0.00  0.00    +0.000 HD
BRANCH  13  21
ATOM     15  C   UNL     1       0.279  10.050  20.167  0.00  0.00    +0.000 A 
ATOM     16  C   UNL     1      -0.495  10.962  20.898  0.00  0.00    +0.000 A 
ATOM     17  N   UNL     1      -0.789  10.731  22.198  0.00  0.00    +0.000 N 
ATOM     18  C   UNL     1      -1.506  11.738  22.996  0.00  0.00    +0.000 C 
ATOM     19  C   UNL     1      -0.383   9.593  22.799  0.00  0.00    +0.000 A 
ATOM     20  C   UNL     1       0.395   8.671  22.109  0.00  0.00    +0.000 A 
ATOM     21  C   UNL     1       0.793   8.907  20.791  0.00  0.00    +0.000 A 
BRANCH  15  22
ATOM     22  C   UNL     1       0.491  10.400  18.744  0.00  0.00    +0.000 C 
ATOM     23  O   UNL     1       0.529   9.563  17.860  0.00  0.00    +0.000 OA
BRANCH  22  25
ATOM     24  C   UNL     1       2.135  12.063  18.477  0.00  0.00    +0.000 C 
ATOM     25  O   UNL     1       0.759  11.724  18.636  0.00  0.00    +0.000 OA
ENDBRANCH  22  25
ENDBRANCH  15  22
ENDBRANCH  13  21
ENDBRANCH   1  13
BRANCH   6  26
ATOM     26  C   UNL     1       5.978   4.275  16.832  0.00  0.00    +0.000 C 
BRANCH  26  27
ATOM     27  S   UNL     1       5.655   3.515  15.224  0.00  0.00    +0.000 S 
BRANCH  27  28
ATOM     28  C   UNL     1       6.709   4.386  14.191  0.00  0.00    +0.000 A 
ATOM     29  N   UNL     1       7.564   5.327  14.519  0.00  0.00    +0.000 NA
ATOM     30  N   UNL     1       8.177   5.696  13.344  0.00  0.00    +0.000 NA
ATOM     31  N   UNL     1       7.710   4.994  12.317  0.00  0.00    +0.000 NA
ATOM     32  N   UNL     1       6.788   4.167  12.849  0.00  0.00    +0.000 N 
ATOM     33  C   UNL     1       6.062   3.237  12.029  0.00  0.00    +0.000 C 
ENDBRANCH  27  28
ENDBRANCH  26  27
ENDBRANCH   6  26
TORSDOF 8
ENDMDL
MODEL 4
REMARK VINA RESULT:      -7.3      2.427      2.796
REMARK  Name = 
REMARK  11 active torsions:
REMARK  status: ('A' for Active; 'I' for Inactive)
REMARK    1  A    between atoms: C_1  and  O_2
REMARK    2  A    between atoms: O_2  and  C_3
REMARK    3  A    between atoms: C_3  and  C_5
REMARK    4  A    between atoms: N_7  and  C_8
REMARK    5  A    between atoms: C_11  and  N_12
REMARK    6  A    between atoms: N_12  and  CA_13
REMARK    7  A    between atoms: CA_17  and  C_18
REMARK    8  A    between atoms: C_21  and  C_22
REMARK    9  A    between atoms: C_22  and  S_23
REMARK   10  A    between atoms: S_23  and  C_24
REMARK   11  A    between atoms: N_28  and  C_29
REMARK                            x       y       z     vdW  Elec       q    Type
REMARK                         _______ _______ _______ _____ _____    ______ ____
ROOT
ATOM      1  CA  UNL     1       1.672   6.675  19.472  0.00  0.00    +0.000 C 
ATOM      2  C   UNL     1       2.475   5.440  20.013  0.00  0.00    +0.000 C 
ATOM      3  O   UNL     1       2.615   4.933  21.103  0.00  0.00    +0.000 OA
ATOM      4  N   UNL     1       3.059   5.289  18.811  0.00  0.00    +0.000 N 
ATOM      5  CA  UNL     1       3.978   4.444  18.265  0.00  0.00    +0.000 C 
ATOM      6  C   UNL     1       4.742   4.875  17.229  0.00  0.00    +0.000 C 
ATOM      7  C   UNL     1       4.692   6.292  16.671  0.00  0.00    +0.000 C 
ATOM      8  S   UNL     1       3.782   7.536  17.666  0.00  0.00    +0.000 S 
ATOM      9  C   UNL     1       2.451   6.398  18.134  0.00  0.00    +0.000 C 
ENDROOT
BRANCH   5  10
ATOM     10  C   UNL     1       4.063   2.988  18.876  0.00  0.00    +0.000 C 
ATOM     11  O   UNL     1       4.925   2.816  19.780  0.00  0.00    +0.000 OA
ATOM     12  OXT UNL     1       3.270   2.166  18.326  0.00  0.00    +0.000 OA
ENDBRANCH   5  10
BRANCH   1  13
ATOM     13  N   UNL     1       1.882   7.965  20.114  0.00  0.00    +0.000 N 
ATOM     14  H   UNL     1       2.839   8.319  20.053  0.00  0.00    +0.000 HD
BRANCH  13  21
ATOM     15  C   UNL     1       0.293   9.839  20.098  0.00  0.00    +0.000 A 
ATOM     16  C   UNL     1      -0.429  10.792  20.831  0.00  0.00    +0.000 A 
ATOM     17  N   UNL     1      -0.548  10.683  22.174  0.00  0.00    +0.000 N 
ATOM     18  C   UNL     1      -1.209  11.739  22.957  0.00  0.00    +0.000 C 
ATOM     19  C   UNL     1      -0.015   9.627  22.825  0.00  0.00    +0.000 A 
ATOM     20  C   UNL     1       0.716   8.669  22.133  0.00  0.00    +0.000 A 
ATOM     21  C   UNL     1       0.936   8.785  20.758  0.00  0.00    +0.000 A 
BRANCH  15  22
ATOM     22  C   UNL     1       0.310  10.050  18.633  0.00  0.00    +0.000 C 
ATOM     23  O   UNL     1       1.281   9.797  17.944  0.00  0.00    +0.000 OA
BRANCH  22  25
ATOM     24  C   UNL     1      -1.647   9.949  17.328  0.00  0.00    +0.000 C 
ATOM     25  O   UNL     1      -0.833  10.671  18.250  0.00  0.00    +0.000 OA
ENDBRANCH  22  25
ENDBRANCH  15  22
ENDBRANCH  13  21
ENDBRANCH   1  13
BRANCH   6  26
ATOM     26  C   UNL     1       5.841   4.037  16.586  0.00  0.00    +0.000 C 
BRANCH  26  27
ATOM     27  S   UNL     1       7.065   4.949  15.617  0.00  0.00    +0.000 S 
BRANCH  27  28
ATOM     28  C   UNL     1       6.772   4.375  14.028  0.00  0.00    +0.000 A 
ATOM     29  N   UNL     1       5.884   3.489  13.642  0.00  0.00    +0.000 NA
ATOM     30  N   UNL     1       6.036   3.384  12.279  0.00  0.00    +0.000 NA
ATOM     31  N   UNL     1       6.994   4.191  11.838  0.00  0.00    +0.000 NA
ATOM     32  N   UNL     1       7.457   4.818  12.938  0.00  0.00    +0.000 N 
ATOM     33  C   UNL     1       8.514   5.787  12.851  0.00  0.00    +0.000 C 
ENDBRANCH  27  28
ENDBRANCH  26  27
ENDBRANCH   6  26
TORSDOF 8
ENDMDL
MODEL 5
REMARK VINA RESULT:      -7.2      2.369      2.702
REMARK  Name = 
REMARK  11 active torsions:
REMARK  status: ('A' for Active; 'I' for Inactive)
REMARK    1  A    between atoms: C_1  and  O_2
REMARK    2  A    between atoms: O_2  and  C_3
REMARK    3  A    between atoms: C_3  and  C_5
REMARK    4  A    between atoms: N_7  and  C_8
REMARK    5  A    between atoms: C_11  and  N_12
REMARK    6  A    between atoms: N_12  and  CA_13
REMARK    7  A    between atoms: CA_17  and  C_18
REMARK    8  A    between atoms: C_21  and  C_22
REMARK    9  A    between atoms: C_22  and  S_23
REMARK   10  A    between atoms: S_23  and  C_24
REMARK   11  A    between atoms: N_28  and  C_29
REMARK                            x       y       z     vdW  Elec       q    Type
REMARK                         _______ _______ _______ _____ _____    ______ ____
ROOT
ATOM      1  CA  UNL     1       1.684   6.566  19.592  0.00  0.00    +0.000 C 
ATOM      2  C   UNL     1       2.502   5.323  20.090  0.00  0.00    +0.000 C 
ATOM      3  O   UNL     1       2.657   4.788  21.165  0.00  0.00    +0.000 OA
ATOM      4  N   UNL     1       3.073   5.209  18.879  0.00  0.00    +0.000 N 
ATOM      5  CA  UNL     1       3.991   4.385  18.300  0.00  0.00    +0.000 C 
ATOM      6  C   UNL     1       4.741   4.850  17.268  0.00  0.00    +0.000 C 
ATOM      7  C   UNL     1       4.675   6.280  16.749  0.00  0.00    +0.000 C 
ATOM      8  S   UNL     1       3.768   7.491  17.787  0.00  0.00    +0.000 S 
ATOM      9  C   UNL     1       2.450   6.331  18.239  0.00  0.00    +0.000 C 
ENDROOT
BRANCH   5  10
ATOM     10  C   UNL     1       4.094   2.914  18.871  0.00  0.00    +0.000 C 
ATOM     11  O   UNL     1       3.273   2.079  18.402  0.00  0.00    +0.000 OA
ATOM     12  OXT UNL     1       4.973   2.788  19.775  0.00  0.00    +0.000 OA
ENDBRANCH   5  10
BRANCH   1  13
ATOM     13  N   UNL     1       1.892   7.840  20.267  0.00  0.00    +0.000 N 
ATOM     14  H   UNL     1       2.867   8.146  20.306  0.00  0.00    +0.000 HD
BRANCH  13  21
ATOM     15  C   UNL     1       0.641   9.954  20.264  0.00  0.00    +0.000 A 
ATOM     16  C   UNL     1      -0.116  10.889  20.985  0.00  0.00    +0.000 A 
ATOM     17  N   UNL     1      -0.611  10.580  22.205  0.00  0.00    +0.000 N 
ATOM     18  C   UNL     1      -1.310  11.595  23.010  0.00  0.00    +0.000 C 
ATOM     19  C   UNL     1      -0.426   9.349  22.728  0.00  0.00    +0.000 A 
ATOM     20  C   UNL     1       0.328   8.401  22.046  0.00  0.00    +0.000 A 
ATOM     21  C   UNL     1       0.928   8.703  20.821  0.00  0.00    +0.000 A 
BRANCH  15  22
ATOM     22  C   UNL     1       1.086  10.402  18.924  0.00  0.00    +0.000 C 
ATOM     23  O   UNL     1       1.134   9.654  17.964  0.00  0.00    +0.000 OA
BRANCH  22  25
ATOM     24  C   UNL     1       2.482  12.056  18.000  0.00  0.00    +0.000 C 
ATOM     25  O   UNL     1       1.535  11.678  18.997  0.00  0.00    +0.000 OA
ENDBRANCH  22  25
ENDBRANCH  15  22
ENDBRANCH  13  21
ENDBRANCH   1  13
BRANCH   6  26
ATOM     26  C   UNL     1       5.839   4.037  16.591  0.00  0.00    +0.000 C 
BRANCH  26  27
ATOM     27  S   UNL     1       7.038   4.983  15.622  0.00  0.00    +0.000 S 
BRANCH  27  28
ATOM     28  C   UNL     1       6.766   4.397  14.034  0.00  0.00    +0.000 A 
ATOM     29  N   UNL     1       5.875   3.516  13.641  0.00  0.00    +0.000 NA
ATOM     30  N   UNL     1       6.049   3.396  12.282  0.00  0.00    +0.000 NA
ATOM     31  N   UNL     1       7.023   4.190  11.850  0.00  0.00    +0.000 NA
ATOM     32  N   UNL     1       7.474   4.821  12.951  0.00  0.00    +0.000 N 
ATOM     33  C   UNL     1       8.542   5.779  12.874  0.00  0.00    +0.000 C 
ENDBRANCH  27  28
ENDBRANCH  26  27
ENDBRANCH   6  26
TORSDOF 8
ENDMDL
MODEL 6
REMARK VINA RESULT:      -7.1      2.645      8.134
REMARK  Name = 
REMARK  11 active torsions:
REMARK  status: ('A' for Active; 'I' for Inactive)
REMARK    1  A    between atoms: C_1  and  O_2
REMARK    2  A    between atoms: O_2  and  C_3
REMARK    3  A    between atoms: C_3  and  C_5
REMARK    4  A    between atoms: N_7  and  C_8
REMARK    5  A    between atoms: C_11  and  N_12
REMARK    6  A    between atoms: N_12  and  CA_13
REMARK    7  A    between atoms: CA_17  and  C_18
REMARK    8  A    between atoms: C_21  and  C_22
REMARK    9  A    between atoms: C_22  and  S_23
REMARK   10  A    between atoms: S_23  and  C_24
REMARK   11  A    between atoms: N_28  and  C_29
REMARK                            x       y       z     vdW  Elec       q    Type
REMARK                         _______ _______ _______ _____ _____    ______ ____
ROOT
ATOM      1  CA  UNL     1       2.814   7.003  19.445  0.00  0.00    +0.000 C 
ATOM      2  C   UNL     1       1.710   7.030  20.559  0.00  0.00    +0.000 C 
ATOM      3  O   UNL     1       1.195   6.188  21.261  0.00  0.00    +0.000 OA
ATOM      4  N   UNL     1       1.466   8.325  20.291  0.00  0.00    +0.000 N 
ATOM      5  CA  UNL     1       0.614   9.280  20.758  0.00  0.00    +0.000 C 
ATOM      6  C   UNL     1       0.245  10.297  19.937  0.00  0.00    +0.000 C 
ATOM      7  C   UNL     1       0.669  10.405  18.478  0.00  0.00    +0.000 C 
ATOM      8  S   UNL     1       1.450   8.920  17.736  0.00  0.00    +0.000 S 
ATOM      9  C   UNL     1       2.403   8.504  19.220  0.00  0.00    +0.000 C 
ENDROOT
BRANCH   5  10
ATOM     10  C   UNL     1       0.136   9.142  22.259  0.00  0.00    +0.000 C 
ATOM     11  O   UNL     1       0.842   9.730  23.122  0.00  0.00    +0.000 OA
ATOM     12  OXT UNL     1      -0.885   8.401  22.392  0.00  0.00    +0.000 OA
ENDBRANCH   5  10
BRANCH   1  13
ATOM     13  N   UNL     1       2.639   6.087  18.326  0.00  0.00    +0.000 N 
ATOM     14  H   UNL     1       1.686   5.733  18.212  0.00  0.00    +0.000 HD
BRANCH  13  21
ATOM     15  C   UNL     1       3.831   4.321  17.102  0.00  0.00    +0.000 A 
ATOM     16  C   UNL     1       4.960   3.942  16.363  0.00  0.00    +0.000 A 
ATOM     17  N   UNL     1       5.809   4.875  15.873  0.00  0.00    +0.000 N 
ATOM     18  C   UNL     1       7.052   4.476  15.194  0.00  0.00    +0.000 C 
ATOM     19  C   UNL     1       5.554   6.190  16.046  0.00  0.00    +0.000 A 
ATOM     20  C   UNL     1       4.450   6.602  16.783  0.00  0.00    +0.000 A 
ATOM     21  C   UNL     1       3.593   5.673  17.378  0.00  0.00    +0.000 A 
BRANCH  15  22
ATOM     22  C   UNL     1       2.962   3.206  17.542  0.00  0.00    +0.000 C 
ATOM     23  O   UNL     1       1.749   3.237  17.436  0.00  0.00    +0.000 OA
BRANCH  22  25
ATOM     24  C   UNL     1       3.905   2.478  19.572  0.00  0.00    +0.000 C 
ATOM     25  O   UNL     1       3.709   2.269  18.174  0.00  0.00    +0.000 OA
ENDBRANCH  22  25
ENDBRANCH  15  22
ENDBRANCH  13  21
ENDBRANCH   1  13
BRANCH   6  26
ATOM     26  C   UNL     1      -0.750  11.382  20.334  0.00  0.00    +0.000 C 
BRANCH  26  27
ATOM     27  S   UNL     1      -0.457  13.019  19.625  0.00  0.00    +0.000 S 
BRANCH  27  28
ATOM     28  C   UNL     1       0.949  13.532  20.461  0.00  0.00    +0.000 A 
ATOM     29  N   UNL     1       1.074  13.798  21.741  0.00  0.00    +0.000 NA
ATOM     30  N   UNL     1       2.391  14.152  21.918  0.00  0.00    +0.000 NA
ATOM     31  N   UNL     1       3.061  14.101  20.771  0.00  0.00    +0.000 NA
ATOM     32  N   UNL     1       2.154  13.708  19.854  0.00  0.00    +0.000 N 
ATOM     33  C   UNL     1       2.519  13.533  18.475  0.00  0.00    +0.000 C 
ENDBRANCH  27  28
ENDBRANCH  26  27
ENDBRANCH   6  26
TORSDOF 8
ENDMDL
MODEL 7
REMARK VINA RESULT:      -7.1      2.520      3.428
REMARK  Name = 
REMARK  11 active torsions:
REMARK  status: ('A' for Active; 'I' for Inactive)
REMARK    1  A    between atoms: C_1  and  O_2
REMARK    2  A    between atoms: O_2  and  C_3
REMARK    3  A    between atoms: C_3  and  C_5
REMARK    4  A    between atoms: N_7  and  C_8
REMARK    5  A    between atoms: C_11  and  N_12
REMARK    6  A    between atoms: N_12  and  CA_13
REMARK    7  A    between atoms: CA_17  and  C_18
REMARK    8  A    between atoms: C_21  and  C_22
REMARK    9  A    between atoms: C_22  and  S_23
REMARK   10  A    between atoms: S_23  and  C_24
REMARK   11  A    between atoms: N_28  and  C_29
REMARK                            x       y       z     vdW  Elec       q    Type
REMARK                         _______ _______ _______ _____ _____    ______ ____
ROOT
ATOM      1  CA  UNL     1       1.609   6.667  19.466  0.00  0.00    +0.000 C 
ATOM      2  C   UNL     1       2.454   5.484  20.058  0.00  0.00    +0.000 C 
ATOM      3  O   UNL     1       2.563   4.989  21.157  0.00  0.00    +0.000 OA
ATOM      4  N   UNL     1       3.112   5.366  18.891  0.00  0.00    +0.000 N 
ATOM      5  CA  UNL     1       4.109   4.576  18.402  0.00  0.00    +0.000 C 
ATOM      6  C   UNL     1       4.902   5.050  17.408  0.00  0.00    +0.000 C 
ATOM      7  C   UNL     1       4.799   6.460  16.839  0.00  0.00    +0.000 C 
ATOM      8  S   UNL     1       3.761   7.649  17.775  0.00  0.00    +0.000 S 
ATOM      9  C   UNL     1       2.477   6.435  18.175  0.00  0.00    +0.000 C 
ENDROOT
BRANCH   5  10
ATOM     10  C   UNL     1       4.248   3.129  19.025  0.00  0.00    +0.000 C 
ATOM     11  O   UNL     1       5.133   2.991  19.912  0.00  0.00    +0.000 OA
ATOM     12  OXT UNL     1       3.466   2.281  18.500  0.00  0.00    +0.000 OA
ENDBRANCH   5  10
BRANCH   1  13
ATOM     13  N   UNL     1       1.705   7.968  20.111  0.00  0.00    +0.000 N 
ATOM     14  H   UNL     1       2.321   7.994  20.927  0.00  0.00    +0.000 HD
BRANCH  13  21
ATOM     15  C   UNL     1       0.645  10.114  20.669  0.00  0.00    +0.000 A 
ATOM     16  C   UNL     1      -0.188  11.168  20.268  0.00  0.00    +0.000 A 
ATOM     17  N   UNL     1      -0.528  11.321  18.967  0.00  0.00    +0.000 N 
ATOM     18  C   UNL     1      -1.489  12.359  18.560  0.00  0.00    +0.000 C 
ATOM     19  C   UNL     1      -0.031  10.489  18.028  0.00  0.00    +0.000 A 
ATOM     20  C   UNL     1       0.788   9.426  18.390  0.00  0.00    +0.000 A 
ATOM     21  C   UNL     1       1.098   9.180  19.730  0.00  0.00    +0.000 A 
BRANCH  15  22
ATOM     22  C   UNL     1       0.976  10.086  22.112  0.00  0.00    +0.000 C 
ATOM     23  O   UNL     1       1.818   9.340  22.578  0.00  0.00    +0.000 OA
BRANCH  22  25
ATOM     24  C   UNL     1      -1.054  10.258  23.292  0.00  0.00    +0.000 C 
ATOM     25  O   UNL     1       0.122  10.891  22.790  0.00  0.00    +0.000 OA
ENDBRANCH  22  25
ENDBRANCH  15  22
ENDBRANCH  13  21
ENDBRANCH   1  13
BRANCH   6  26
ATOM     26  C   UNL     1       6.085   4.279  16.832  0.00  0.00    +0.000 C 
BRANCH  26  27
ATOM     27  S   UNL     1       5.794   3.456  15.247  0.00  0.00    +0.000 S 
BRANCH  27  28
ATOM     28  C   UNL     1       6.781   4.364  14.180  0.00  0.00    +0.000 A 
ATOM     29  N   UNL     1       7.626   5.323  14.481  0.00  0.00    +0.000 NA
ATOM     30  N   UNL     1       8.177   5.719  13.285  0.00  0.00    +0.000 NA
ATOM     31  N   UNL     1       7.683   5.016  12.271  0.00  0.00    +0.000 NA
ATOM     32  N   UNL     1       6.806   4.161  12.834  0.00  0.00    +0.000 N 
ATOM     33  C   UNL     1       6.068   3.221  12.036  0.00  0.00    +0.000 C 
ENDBRANCH  27  28
ENDBRANCH  26  27
ENDBRANCH   6  26
TORSDOF 8
ENDMDL
MODEL 8
REMARK VINA RESULT:      -7.0      0.969      1.629
REMARK  Name = 
REMARK  11 active torsions:
REMARK  status: ('A' for Active; 'I' for Inactive)
REMARK    1  A    between atoms: C_1  and  O_2
REMARK    2  A    between atoms: O_2  and  C_3
REMARK    3  A    between atoms: C_3  and  C_5
REMARK    4  A    between atoms: N_7  and  C_8
REMARK    5  A    between atoms: C_11  and  N_12
REMARK    6  A    between atoms: N_12  and  CA_13
REMARK    7  A    between atoms: CA_17  and  C_18
REMARK    8  A    between atoms: C_21  and  C_22
REMARK    9  A    between atoms: C_22  and  S_23
REMARK   10  A    between atoms: S_23  and  C_24
REMARK   11  A    between atoms: N_28  and  C_29
REMARK                            x       y       z     vdW  Elec       q    Type
REMARK                         _______ _______ _______ _____ _____    ______ ____
ROOT
ATOM      1  CA  UNL     1       1.538   6.749  19.712  0.00  0.00    +0.000 C 
ATOM      2  C   UNL     1       2.416   5.508  20.102  0.00  0.00    +0.000 C 
ATOM      3  O   UNL     1       2.661   4.938  21.141  0.00  0.00    +0.000 OA
ATOM      4  N   UNL     1       2.900   5.453  18.848  0.00  0.00    +0.000 N 
ATOM      5  CA  UNL     1       3.790   4.673  18.173  0.00  0.00    +0.000 C 
ATOM      6  C   UNL     1       4.452   5.193  17.109  0.00  0.00    +0.000 C 
ATOM      7  C   UNL     1       4.318   6.640  16.651  0.00  0.00    +0.000 C 
ATOM      8  S   UNL     1       3.464   7.789  17.798  0.00  0.00    +0.000 S 
ATOM      9  C   UNL     1       2.207   6.583  18.299  0.00  0.00    +0.000 C 
ENDROOT
BRANCH   5  10
ATOM     10  C   UNL     1       3.965   3.184  18.678  0.00  0.00    +0.000 C 
ATOM     11  O   UNL     1       3.144   2.344  18.221  0.00  0.00    +0.000 OA
ATOM     12  OXT UNL     1       4.896   3.051  19.529  0.00  0.00    +0.000 OA
ENDBRANCH   5  10
BRANCH   1  13
ATOM     13  N   UNL     1       1.768   8.001  20.418  0.00  0.00    +0.000 N 
ATOM     14  H   UNL     1       2.739   8.321  20.412  0.00  0.00    +0.000 HD
BRANCH  13  21
ATOM     15  C   UNL     1       0.072   9.780  20.356  0.00  0.00    +0.000 A 
ATOM     16  C   UNL     1      -0.647  10.760  21.053  0.00  0.00    +0.000 A 
ATOM     17  N   UNL     1      -0.658  10.777  22.405  0.00  0.00    +0.000 N 
ATOM     18  C   UNL     1      -1.320  11.869  23.137  0.00  0.00    +0.000 C 
ATOM     19  C   UNL     1      -0.015   9.819  23.107  0.00  0.00    +0.000 A 
ATOM     20  C   UNL     1       0.718   8.838  22.450  0.00  0.00    +0.000 A 
ATOM     21  C   UNL     1       0.826   8.830  21.057  0.00  0.00    +0.000 A 
BRANCH  15  22
ATOM     22  C   UNL     1      -0.035   9.847  18.881  0.00  0.00    +0.000 C 
ATOM     23  O   UNL     1       0.936   9.975  18.157  0.00  0.00    +0.000 OA
BRANCH  22  25
ATOM     24  C   UNL     1      -1.591  10.068  17.128  0.00  0.00    +0.000 C 
ATOM     25  O   UNL     1      -1.340   9.882  18.520  0.00  0.00    +0.000 OA
ENDBRANCH  22  25
ENDBRANCH  15  22
ENDBRANCH  13  21
ENDBRANCH   1  13
BRANCH   6  26
ATOM     26  C   UNL     1       5.515   4.433  16.323  0.00  0.00    +0.000 C 
BRANCH  26  27
ATOM     27  S   UNL     1       7.137   4.301  17.111  0.00  0.00    +0.000 S 
BRANCH  27  28
ATOM     28  C   UNL     1       7.535   5.943  17.401  0.00  0.00    +0.000 A 
ATOM     29  N   UNL     1       7.548   6.934  16.540  0.00  0.00    +0.000 NA
ATOM     30  N   UNL     1       7.918   8.045  17.261  0.00  0.00    +0.000 NA
ATOM     31  N   UNL     1       8.124   7.743  18.539  0.00  0.00    +0.000 NA
ATOM     32  N   UNL     1       7.881   6.420  18.628  0.00  0.00    +0.000 N 
ATOM     33  C   UNL     1       7.999   5.726  19.881  0.00  0.00    +0.000 C 
ENDBRANCH  27  28
ENDBRANCH  26  27
ENDBRANCH   6  26
TORSDOF 8
ENDMDL
MODEL 9
REMARK VINA RESULT:      -7.0      3.942      9.914
REMARK  Name = 
REMARK  11 active torsions:
REMARK  status: ('A' for Active; 'I' for Inactive)
REMARK    1  A    between atoms: C_1  and  O_2
REMARK    2  A    between atoms: O_2  and  C_3
REMARK    3  A    between atoms: C_3  and  C_5
REMARK    4  A    between atoms: N_7  and  C_8
REMARK    5  A    between atoms: C_11  and  N_12
REMARK    6  A    between atoms: N_12  and  CA_13
REMARK    7  A    between atoms: CA_17  and  C_18
REMARK    8  A    between atoms: C_21  and  C_22
REMARK    9  A    between atoms: C_22  and  S_23
REMARK   10  A    between atoms: S_23  and  C_24
REMARK   11  A    between atoms: N_28  and  C_29
REMARK                            x       y       z     vdW  Elec       q    Type
REMARK                         _______ _______ _______ _____ _____    ______ ____
ROOT
ATOM      1  CA  UNL     1       1.606   9.402  19.500  0.00  0.00    +0.000 C 
ATOM      2  C   UNL     1       0.925   9.515  20.909  0.00  0.00    +0.000 C 
ATOM      3  O   UNL     1       0.995   8.877  21.936  0.00  0.00    +0.000 OA
ATOM      4  N   UNL     1       0.128  10.495  20.449  0.00  0.00    +0.000 N 
ATOM      5  CA  UNL     1      -0.871  11.268  20.960  0.00  0.00    +0.000 C 
ATOM      6  C   UNL     1      -1.818  11.764  20.123  0.00  0.00    +0.000 C 
ATOM      7  C   UNL     1      -1.882  11.450  18.634  0.00  0.00    +0.000 C 
ATOM      8  S   UNL     1      -0.810  10.088  18.034  0.00  0.00    +0.000 S 
ATOM      9  C   UNL     1       0.592  10.533  19.093  0.00  0.00    +0.000 C 
ENDROOT
BRANCH   5  10
ATOM     10  C   UNL     1      -0.832  11.555  22.514  0.00  0.00    +0.000 C 
ATOM     11  O   UNL     1      -1.427  10.719  23.247  0.00  0.00    +0.000 OA
ATOM     12  OXT UNL     1      -0.237  12.635  22.809  0.00  0.00    +0.000 OA
ENDBRANCH   5  10
BRANCH   1  13
ATOM     13  N   UNL     1       1.511   8.133  18.792  0.00  0.00    +0.000 N 
ATOM     14  H   UNL     1       0.564   7.874  18.507  0.00  0.00    +0.000 HD
BRANCH  13  21
ATOM     15  C   UNL     1       2.768   6.040  19.079  0.00  0.00    +0.000 A 
ATOM     16  C   UNL     1       3.959   5.331  18.870  0.00  0.00    +0.000 A 
ATOM     17  N   UNL     1       4.893   5.790  18.006  0.00  0.00    +0.000 N 
ATOM     18  C   UNL     1       6.189   5.108  17.870  0.00  0.00    +0.000 C 
ATOM     19  C   UNL     1       4.671   6.915  17.293  0.00  0.00    +0.000 A 
ATOM     20  C   UNL     1       3.506   7.650  17.482  0.00  0.00    +0.000 A 
ATOM     21  C   UNL     1       2.552   7.258  18.423  0.00  0.00    +0.000 A 
BRANCH  15  22
ATOM     22  C   UNL     1       1.812   5.406  20.016  0.00  0.00    +0.000 C 
ATOM     23  O   UNL     1       1.508   5.908  21.083  0.00  0.00    +0.000 OA
BRANCH  22  25
ATOM     24  C   UNL     1       1.186   3.203  20.558  0.00  0.00    +0.000 C 
ATOM     25  O   UNL     1       1.471   4.178  19.556  0.00  0.00    +0.000 OA
ENDBRANCH  22  25
ENDBRANCH  15  22
ENDBRANCH  13  21
ENDBRANCH   1  13
BRANCH   6  26
ATOM     26  C   UNL     1      -3.013  12.586  20.594  0.00  0.00    +0.000 C 
BRANCH  26  27
ATOM     27  S   UNL     1      -4.463  12.562  19.514  0.00  0.00    +0.000 S 
BRANCH  27  28
ATOM     28  C   UNL     1      -5.696  12.012  20.571  0.00  0.00    +0.000 A 
ATOM     29  N   UNL     1      -5.906  12.367  21.817  0.00  0.00    +0.000 NA
ATOM     30  N   UNL     1      -7.016  11.661  22.220  0.00  0.00    +0.000 NA
ATOM     31  N   UNL     1      -7.478  10.892  21.240  0.00  0.00    +0.000 NA
ATOM     32  N   UNL     1      -6.650  11.114  20.201  0.00  0.00    +0.000 N 
ATOM     33  C   UNL     1      -6.842  10.450  18.942  0.00  0.00    +0.000 C 
ENDBRANCH  27  28
ENDBRANCH  26  27
ENDBRANCH   6  26
TORSDOF 8
ENDMDL
