MODEL 1
REMARK VINA RESULT:      -8.2      0.000      0.000
REMARK  Name = 
REMARK  6 active torsions:
REMARK  status: ('A' for Active; 'I' for Inactive)
REMARK    1  A    between atoms: C_1  and  C_2
REMARK    2  A    between atoms: C_2  and  O_3
REMARK    3  A    between atoms: O_3  and  C_4
REMARK    4  A    between atoms: C_4  and  C_6
REMARK    5  A    between atoms: C_17  and  C_18
REMARK    6  A    between atoms: C_19  and  C_20
REMARK                            x       y       z     vdW  Elec       q    Type
REMARK                         _______ _______ _______ _____ _____    ______ ____
ROOT
ATOM      1  C   UNL     1       5.639   4.922  15.813  0.00  0.00    +0.000 C 
ATOM      2  C   UNL     1       5.198   3.488  16.165  0.00  0.00    +0.000 C 
ATOM      3  C   UNL     1       4.167   3.564  17.233  0.00  0.00    +0.000 A 
ATOM      4  N   UNL     1       3.234   2.602  17.490  0.00  0.00    +0.000 N 
ATOM      5  C   UNL     1       2.394   3.026  18.497  0.00  0.00    +0.000 A 
ATOM      6  C   UNL     1       1.259   2.411  19.039  0.00  0.00    +0.000 A 
ATOM      7  C   UNL     1       0.577   3.089  20.054  0.00  0.00    +0.000 A 
ATOM      8  C   UNL     1       1.029   4.320  20.523  0.00  0.00    +0.000 A 
ATOM      9  C   UNL     1       2.171   4.914  19.980  0.00  0.00    +0.000 A 
ATOM     10  C   UNL     1       2.860   4.269  18.930  0.00  0.00    +0.000 A 
ATOM     11  C   UNL     1       3.977   4.612  18.109  0.00  0.00    +0.000 A 
ATOM     12  C   UNL     1       4.797   5.879  18.074  0.00  0.00    +0.000 C 
ATOM     13  C   UNL     1       3.908   7.083  17.730  0.00  0.00    +0.000 C 
ATOM     14  C   UNL     1       6.024   5.727  17.093  0.00  0.00    +0.000 C 
ATOM     15  C   UNL     1       6.664   7.079  16.748  0.00  0.00    +0.000 C 
ATOM     16  H   UNL     1       3.138   1.725  16.994  0.00  0.00    +0.000 HD
ENDROOT
BRANCH   1  17
ATOM     17  C   UNL     1       6.780   4.830  14.827  0.00  0.00    +0.000 C 
ATOM     18  O   UNL     1       7.693   5.638  14.735  0.00  0.00    +0.000 OA
BRANCH  17  19
ATOM     19  O   UNL     1       6.624   3.725  14.044  0.00  0.00    +0.000 OA
BRANCH  19  21
ATOM     20  C   UNL     1       5.424   3.144  12.031  0.00  0.00    +0.000 C 
ATOM     21  C   UNL     1       6.554   3.959  12.631  0.00  0.00    +0.000 C 
ENDBRANCH  19  21
ENDBRANCH  17  19
ENDBRANCH   1  17
TORSDOF 3
ENDMDL
MODEL 2
REMARK VINA RESULT:      -8.0      1.082      1.120
REMARK  Name = 
REMARK  6 active torsions:
REMARK  status: ('A' for Active; 'I' for Inactive)
REMARK    1  A    between atoms: C_1  and  C_2
REMARK    2  A    between atoms: C_2  and  O_3
REMARK    3  A    between atoms: O_3  and  C_4
REMARK    4  A    between atoms: C_4  and  C_6
REMARK    5  A    between atoms: C_17  and  C_18
REMARK    6  A    between atoms: C_19  and  C_20
REMARK                            x       y       z     vdW  Elec       q    Type
REMARK                         _______ _______ _______ _____ _____    ______ ____
ROOT
ATOM      1  C   UNL     1       5.767   4.712  16.253  0.00  0.00    +0.000 C 
ATOM      2  C   UNL     1       4.692   3.653  15.940  0.00  0.00    +0.000 C 
ATOM      3  C   UNL     1       3.837   3.484  17.143  0.00  0.00    +0.000 A 
ATOM      4  N   UNL     1       2.558   3.008  17.133  0.00  0.00    +0.000 N 
ATOM      5  C   UNL     1       2.037   3.050  18.408  0.00  0.00    +0.000 A 
ATOM      6  C   UNL     1       0.752   2.735  18.865  0.00  0.00    +0.000 A 
ATOM      7  C   UNL     1       0.491   2.892  20.229  0.00  0.00    +0.000 A 
ATOM      8  C   UNL     1       1.485   3.324  21.104  0.00  0.00    +0.000 A 
ATOM      9  C   UNL     1       2.767   3.622  20.634  0.00  0.00    +0.000 A 
ATOM     10  C   UNL     1       3.049   3.506  19.256  0.00  0.00    +0.000 A 
ATOM     11  C   UNL     1       4.185   3.796  18.441  0.00  0.00    +0.000 A 
ATOM     12  C   UNL     1       5.514   4.405  18.817  0.00  0.00    +0.000 C 
ATOM     13  C   UNL     1       5.312   5.811  19.403  0.00  0.00    +0.000 C 
ATOM     14  C   UNL     1       6.505   4.393  17.590  0.00  0.00    +0.000 C 
ATOM     15  C   UNL     1       7.715   5.312  17.809  0.00  0.00    +0.000 C 
ATOM     16  H   UNL     1       2.046   2.707  16.314  0.00  0.00    +0.000 HD
ENDROOT
BRANCH   1  17
ATOM     17  C   UNL     1       6.713   4.779  15.075  0.00  0.00    +0.000 C 
ATOM     18  O   UNL     1       7.531   5.666  14.885  0.00  0.00    +0.000 OA
BRANCH  17  19
ATOM     19  O   UNL     1       6.497   3.715  14.251  0.00  0.00    +0.000 OA
BRANCH  19  21
ATOM     20  C   UNL     1       5.586   3.139  12.091  0.00  0.00    +0.000 C 
ATOM     21  C   UNL     1       6.602   3.975  12.845  0.00  0.00    +0.000 C 
ENDBRANCH  19  21
ENDBRANCH  17  19
ENDBRANCH   1  17
TORSDOF 3
ENDMDL
MODEL 3
REMARK VINA RESULT:      -7.4      3.449      6.263
REMARK  Name = 
REMARK  6 active torsions:
REMARK  status: ('A' for Active; 'I' for Inactive)
REMARK    1  A    between atoms: C_1  and  C_2
REMARK    2  A    between atoms: C_2  and  O_3
REMARK    3  A    between atoms: O_3  and  C_4
REMARK    4  A    between atoms: C_4  and  C_6
REMARK    5  A    between atoms: C_17  and  C_18
REMARK    6  A    between atoms: C_19  and  C_20
REMARK                            x       y       z     vdW  Elec       q    Type
REMARK                         _______ _______ _______ _____ _____    ______ ____
ROOT
ATOM      1  C   UNL     1       3.039   3.537  18.921  0.00  0.00    +0.000 C 
ATOM      2  C   UNL     1       4.528   3.171  19.075  0.00  0.00    +0.000 C 
ATOM      3  C   UNL     1       5.342   4.364  18.730  0.00  0.00    +0.000 A 
ATOM      4  N   UNL     1       6.617   4.593  19.158  0.00  0.00    +0.000 N 
ATOM      5  C   UNL     1       7.045   5.823  18.710  0.00  0.00    +0.000 A 
ATOM      6  C   UNL     1       8.243   6.504  18.959  0.00  0.00    +0.000 A 
ATOM      7  C   UNL     1       8.402   7.768  18.382  0.00  0.00    +0.000 A 
ATOM      8  C   UNL     1       7.413   8.315  17.570  0.00  0.00    +0.000 A 
ATOM      9  C   UNL     1       6.228   7.617  17.321  0.00  0.00    +0.000 A 
ATOM     10  C   UNL     1       6.025   6.354  17.918  0.00  0.00    +0.000 A 
ATOM     11  C   UNL     1       4.939   5.428  17.950  0.00  0.00    +0.000 A 
ATOM     12  C   UNL     1       3.556   5.539  17.354  0.00  0.00    +0.000 C 
ATOM     13  C   UNL     1       2.815   6.750  17.941  0.00  0.00    +0.000 C 
ATOM     14  C   UNL     1       2.757   4.191  17.532  0.00  0.00    +0.000 C 
ATOM     15  C   UNL     1       1.254   4.366  17.278  0.00  0.00    +0.000 C 
ATOM     16  H   UNL     1       7.161   3.978  19.750  0.00  0.00    +0.000 HD
ENDROOT
BRANCH   1  17
ATOM     17  C   UNL     1       2.225   2.282  19.141  0.00  0.00    +0.000 C 
ATOM     18  O   UNL     1       2.548   1.164  18.768  0.00  0.00    +0.000 OA
BRANCH  17  19
ATOM     19  O   UNL     1       1.070   2.591  19.796  0.00  0.00    +0.000 OA
BRANCH  19  21
ATOM     20  C   UNL     1       1.816   2.593  22.093  0.00  0.00    +0.000 C 
ATOM     21  C   UNL     1       1.209   3.408  20.966  0.00  0.00    +0.000 C 
ENDBRANCH  19  21
ENDBRANCH  17  19
ENDBRANCH   1  17
TORSDOF 3
ENDMDL
MODEL 4
REMARK VINA RESULT:      -7.3      1.655      1.873
REMARK  Name = 
REMARK  6 active torsions:
REMARK  status: ('A' for Active; 'I' for Inactive)
REMARK    1  A    between atoms: C_1  and  C_2
REMARK    2  A    between atoms: C_2  and  O_3
REMARK    3  A    between atoms: O_3  and  C_4
REMARK    4  A    between atoms: C_4  and  C_6
REMARK    5  A    between atoms: C_17  and  C_18
REMARK    6  A    between atoms: C_19  and  C_20
REMARK                            x       y       z     vdW  Elec       q    Type
REMARK                         _______ _______ _______ _____ _____    ______ ____
ROOT
ATOM      1  C   UNL     1       5.556   5.325  16.857  0.00  0.00    +0.000 C 
ATOM      2  C   UNL     1       6.114   4.340  17.902  0.00  0.00    +0.000 C 
ATOM      3  C   UNL     1       5.031   4.020  18.868  0.00  0.00    +0.000 A 
ATOM      4  N   UNL     1       4.974   2.894  19.636  0.00  0.00    +0.000 N 
ATOM      5  C   UNL     1       3.804   2.884  20.363  0.00  0.00    +0.000 A 
ATOM      6  C   UNL     1       3.286   1.908  21.222  0.00  0.00    +0.000 A 
ATOM      7  C   UNL     1       2.047   2.159  21.818  0.00  0.00    +0.000 A 
ATOM      8  C   UNL     1       1.367   3.351  21.583  0.00  0.00    +0.000 A 
ATOM      9  C   UNL     1       1.903   4.321  20.733  0.00  0.00    +0.000 A 
ATOM     10  C   UNL     1       3.136   4.081  20.090  0.00  0.00    +0.000 A 
ATOM     11  C   UNL     1       3.915   4.789  19.125  0.00  0.00    +0.000 A 
ATOM     12  C   UNL     1       3.618   6.083  18.406  0.00  0.00    +0.000 C 
ATOM     13  C   UNL     1       2.329   5.955  17.581  0.00  0.00    +0.000 C 
ATOM     14  C   UNL     1       4.855   6.540  17.539  0.00  0.00    +0.000 C 
ATOM     15  C   UNL     1       4.484   7.630  16.524  0.00  0.00    +0.000 C 
ATOM     16  H   UNL     1       5.662   2.151  19.647  0.00  0.00    +0.000 HD
ENDROOT
BRANCH   1  17
ATOM     17  C   UNL     1       6.698   5.749  15.961  0.00  0.00    +0.000 C 
ATOM     18  O   UNL     1       7.701   6.338  16.337  0.00  0.00    +0.000 OA
BRANCH  17  19
ATOM     19  O   UNL     1       6.428   5.395  14.672  0.00  0.00    +0.000 OA
BRANCH  19  21
ATOM     20  C   UNL     1       6.144   3.670  13.007  0.00  0.00    +0.000 C 
ATOM     21  C   UNL     1       5.987   4.046  14.468  0.00  0.00    +0.000 C 
ENDBRANCH  19  21
ENDBRANCH  17  19
ENDBRANCH   1  17
TORSDOF 3
ENDMDL
MODEL 5
REMARK VINA RESULT:      -7.1      1.784      3.786
REMARK  Name = 
REMARK  6 active torsions:
REMARK  status: ('A' for Active; 'I' for Inactive)
REMARK    1  A    between atoms: C_1  and  C_2
REMARK    2  A    between atoms: C_2  and  O_3
REMARK    3  A    between atoms: O_3  and  C_4
REMARK    4  A    between atoms: C_4  and  C_6
REMARK    5  A    between atoms: C_17  and  C_18
REMARK    6  A    between atoms: C_19  and  C_20
REMARK                            x       y       z     vdW  Elec       q    Type
REMARK                         _______ _______ _______ _____ _____    ______ ____
ROOT
ATOM      1  C   UNL     1       6.196   5.725  17.427  0.00  0.00    +0.000 C 
ATOM      2  C   UNL     1       5.462   6.322  18.643  0.00  0.00    +0.000 C 
ATOM      3  C   UNL     1       4.269   5.485  18.929  0.00  0.00    +0.000 A 
ATOM      4  N   UNL     1       3.641   5.402  20.138  0.00  0.00    +0.000 N 
ATOM      5  C   UNL     1       2.618   4.482  20.068  0.00  0.00    +0.000 A 
ATOM      6  C   UNL     1       1.757   4.018  21.070  0.00  0.00    +0.000 A 
ATOM      7  C   UNL     1       0.810   3.052  20.715  0.00  0.00    +0.000 A 
ATOM      8  C   UNL     1       0.714   2.589  19.406  0.00  0.00    +0.000 A 
ATOM      9  C   UNL     1       1.573   3.073  18.414  0.00  0.00    +0.000 A 
ATOM     10  C   UNL     1       2.561   4.022  18.751  0.00  0.00    +0.000 A 
ATOM     11  C   UNL     1       3.626   4.652  18.037  0.00  0.00    +0.000 A 
ATOM     12  C   UNL     1       4.088   4.448  16.614  0.00  0.00    +0.000 C 
ATOM     13  C   UNL     1       4.523   2.991  16.395  0.00  0.00    +0.000 C 
ATOM     14  C   UNL     1       5.216   5.484  16.237  0.00  0.00    +0.000 C 
ATOM     15  C   UNL     1       5.962   5.091  14.954  0.00  0.00    +0.000 C 
ATOM     16  H   UNL     1       3.905   5.904  20.975  0.00  0.00    +0.000 HD
ENDROOT
BRANCH   1  17
ATOM     17  C   UNL     1       7.328   6.658  17.061  0.00  0.00    +0.000 C 
ATOM     18  O   UNL     1       7.939   6.634  16.003  0.00  0.00    +0.000 OA
BRANCH  17  19
ATOM     19  O   UNL     1       7.576   7.509  18.096  0.00  0.00    +0.000 OA
BRANCH  19  21
ATOM     20  C   UNL     1       8.843   9.456  18.755  0.00  0.00    +0.000 C 
ATOM     21  C   UNL     1       7.885   8.863  17.739  0.00  0.00    +0.000 C 
ENDBRANCH  19  21
ENDBRANCH  17  19
ENDBRANCH   1  17
TORSDOF 3
ENDMDL
MODEL 6
REMARK VINA RESULT:      -7.0      4.502      6.669
REMARK  Name = 
REMARK  6 active torsions:
REMARK  status: ('A' for Active; 'I' for Inactive)
REMARK    1  A    between atoms: C_1  and  C_2
REMARK    2  A    between atoms: C_2  and  O_3
REMARK    3  A    between atoms: O_3  and  C_4
REMARK    4  A    between atoms: C_4  and  C_6
REMARK    5  A    between atoms: C_17  and  C_18
REMARK    6  A    between atoms: C_19  and  C_20
REMARK                            x       y       z     vdW  Elec       q    Type
REMARK                         _______ _______ _______ _____ _____    ______ ____
ROOT
ATOM      1  C   UNL     1       1.704   8.500  20.173  0.00  0.00    +0.000 C 
ATOM      2  C   UNL     1       1.183   7.239  20.887  0.00  0.00    +0.000 C 
ATOM      3  C   UNL     1       1.796   6.049  20.243  0.00  0.00    +0.000 A 
ATOM      4  N   UNL     1       1.952   4.830  20.837  0.00  0.00    +0.000 N 
ATOM      5  C   UNL     1       2.619   3.978  19.983  0.00  0.00    +0.000 A 
ATOM      6  C   UNL     1       3.060   2.666  20.186  0.00  0.00    +0.000 A 
ATOM      7  C   UNL     1       3.738   2.040  19.136  0.00  0.00    +0.000 A 
ATOM      8  C   UNL     1       3.944   2.694  17.924  0.00  0.00    +0.000 A 
ATOM      9  C   UNL     1       3.486   4.000  17.733  0.00  0.00    +0.000 A 
ATOM     10  C   UNL     1       2.828   4.669  18.787  0.00  0.00    +0.000 A 
ATOM     11  C   UNL     1       2.318   5.991  18.967  0.00  0.00    +0.000 A 
ATOM     12  C   UNL     1       2.369   7.181  18.039  0.00  0.00    +0.000 C 
ATOM     13  C   UNL     1       3.825   7.560  17.733  0.00  0.00    +0.000 C 
ATOM     14  C   UNL     1       1.536   8.386  18.626  0.00  0.00    +0.000 C 
ATOM     15  C   UNL     1       1.850   9.710  17.917  0.00  0.00    +0.000 C 
ATOM     16  H   UNL     1       1.663   4.589  21.776  0.00  0.00    +0.000 HD
ENDROOT
BRANCH   1  17
ATOM     17  C   UNL     1       0.973   9.695  20.744  0.00  0.00    +0.000 C 
ATOM     18  O   UNL     1       1.489  10.573  21.419  0.00  0.00    +0.000 OA
BRANCH  17  19
ATOM     19  O   UNL     1      -0.347   9.628  20.411  0.00  0.00    +0.000 OA
BRANCH  19  21
ATOM     20  C   UNL     1      -1.643  10.637  18.641  0.00  0.00    +0.000 C 
ATOM     21  C   UNL     1      -0.949  10.854  19.972  0.00  0.00    +0.000 C 
ENDBRANCH  19  21
ENDBRANCH  17  19
ENDBRANCH   1  17
TORSDOF 3
ENDMDL
MODEL 7
REMARK VINA RESULT:      -6.9      3.299      6.582
REMARK  Name = 
REMARK  6 active torsions:
REMARK  status: ('A' for Active; 'I' for Inactive)
REMARK    1  A    between atoms: C_1  and  C_2
REMARK    2  A    between atoms: C_2  and  O_3
REMARK    3  A    between atoms: O_3  and  C_4
REMARK    4  A    between atoms: C_4  and  C_6
REMARK    5  A    between atoms: C_17  and  C_18
REMARK    6  A    between atoms: C_19  and  C_20
REMARK                            x       y       z     vdW  Elec       q    Type
REMARK                         _______ _______ _______ _____ _____    ______ ____
ROOT
ATOM      1  C   UNL     1       3.180   3.547  19.848  0.00  0.00    +0.000 C 
ATOM      2  C   UNL     1       4.714   3.696  19.876  0.00  0.00    +0.000 C 
ATOM      3  C   UNL     1       5.195   3.839  18.478  0.00  0.00    +0.000 A 
ATOM      4  N   UNL     1       6.372   4.425  18.111  0.00  0.00    +0.000 N 
ATOM      5  C   UNL     1       6.471   4.452  16.737  0.00  0.00    +0.000 A 
ATOM      6  C   UNL     1       7.456   5.013  15.917  0.00  0.00    +0.000 A 
ATOM      7  C   UNL     1       7.287   4.907  14.534  0.00  0.00    +0.000 A 
ATOM      8  C   UNL     1       6.188   4.243  13.995  0.00  0.00    +0.000 A 
ATOM      9  C   UNL     1       5.219   3.676  14.828  0.00  0.00    +0.000 A 
ATOM     10  C   UNL     1       5.346   3.798  16.228  0.00  0.00    +0.000 A 
ATOM     11  C   UNL     1       4.532   3.428  17.341  0.00  0.00    +0.000 A 
ATOM     12  C   UNL     1       3.164   2.788  17.367  0.00  0.00    +0.000 C 
ATOM     13  C   UNL     1       2.141   3.680  16.648  0.00  0.00    +0.000 C 
ATOM     14  C   UNL     1       2.736   2.438  18.845  0.00  0.00    +0.000 C 
ATOM     15  C   UNL     1       1.237   2.130  18.959  0.00  0.00    +0.000 C 
ATOM     16  H   UNL     1       7.056   4.821  18.743  0.00  0.00    +0.000 HD
ENDROOT
BRANCH   1  17
ATOM     17  C   UNL     1       2.714   3.267  21.259  0.00  0.00    +0.000 C 
ATOM     18  O   UNL     1       2.986   2.262  21.899  0.00  0.00    +0.000 OA
BRANCH  17  19
ATOM     19  O   UNL     1       1.927   4.291  21.695  0.00  0.00    +0.000 OA
BRANCH  19  21
ATOM     20  C   UNL     1       1.740   6.530  20.812  0.00  0.00    +0.000 C 
ATOM     21  C   UNL     1       1.302   5.084  20.677  0.00  0.00    +0.000 C 
ENDBRANCH  19  21
ENDBRANCH  17  19
ENDBRANCH   1  17
TORSDOF 3
ENDMDL
MODEL 8
REMARK VINA RESULT:      -6.9      7.464     10.133
REMARK  Name = 
REMARK  6 active torsions:
REMARK  status: ('A' for Active; 'I' for Inactive)
REMARK    1  A    between atoms: C_1  and  C_2
REMARK    2  A    between atoms: C_2  and  O_3
REMARK    3  A    between atoms: O_3  and  C_4
REMARK    4  A    between atoms: C_4  and  C_6
REMARK    5  A    between atoms: C_17  and  C_18
REMARK    6  A    between atoms: C_19  and  C_20
REMARK                            x       y       z     vdW  Elec       q    Type
REMARK                         _______ _______ _______ _____ _____    ______ ____
ROOT
ATOM      1  C   UNL     1      -0.295  11.702  21.855  0.00  0.00    +0.000 C 
ATOM      2  C   UNL     1      -0.307  10.195  22.176  0.00  0.00    +0.000 C 
ATOM      3  C   UNL     1       0.428   9.482  21.100  0.00  0.00    +0.000 A 
ATOM      4  N   UNL     1       1.015   8.257  21.232  0.00  0.00    +0.000 N 
ATOM      5  C   UNL     1       1.669   7.926  20.065  0.00  0.00    +0.000 A 
ATOM      6  C   UNL     1       2.462   6.813  19.764  0.00  0.00    +0.000 A 
ATOM      7  C   UNL     1       3.026   6.745  18.486  0.00  0.00    +0.000 A 
ATOM      8  C   UNL     1       2.785   7.739  17.542  0.00  0.00    +0.000 A 
ATOM      9  C   UNL     1       1.980   8.838  17.855  0.00  0.00    +0.000 A 
ATOM     10  C   UNL     1       1.425   8.951  19.148  0.00  0.00    +0.000 A 
ATOM     11  C   UNL     1       0.650   9.944  19.820  0.00  0.00    +0.000 A 
ATOM     12  C   UNL     1       0.191  11.300  19.338  0.00  0.00    +0.000 C 
ATOM     13  C   UNL     1       1.398  12.181  18.985  0.00  0.00    +0.000 C 
ATOM     14  C   UNL     1      -0.768  11.974  20.394  0.00  0.00    +0.000 C 
ATOM     15  C   UNL     1      -0.965  13.473  20.127  0.00  0.00    +0.000 C 
ATOM     16  H   UNL     1       1.013   7.688  22.069  0.00  0.00    +0.000 HD
ENDROOT
BRANCH   1  17
ATOM     17  C   UNL     1      -1.159  12.403  22.880  0.00  0.00    +0.000 C 
ATOM     18  O   UNL     1      -0.824  13.390  23.519  0.00  0.00    +0.000 OA
BRANCH  17  19
ATOM     19  O   UNL     1      -2.352  11.755  22.997  0.00  0.00    +0.000 OA
BRANCH  19  21
ATOM     20  C   UNL     1      -4.212  12.334  24.423  0.00  0.00    +0.000 C 
ATOM     21  C   UNL     1      -3.514  12.589  23.100  0.00  0.00    +0.000 C 
ENDBRANCH  19  21
ENDBRANCH  17  19
ENDBRANCH   1  17
TORSDOF 3
ENDMDL
MODEL 9
REMARK VINA RESULT:      -6.8      4.486      7.026
REMARK  Name = 
REMARK  6 active torsions:
REMARK  status: ('A' for Active; 'I' for Inactive)
REMARK    1  A    between atoms: C_1  and  C_2
REMARK    2  A    between atoms: C_2  and  O_3
REMARK    3  A    between atoms: O_3  and  C_4
REMARK    4  A    between atoms: C_4  and  C_6
REMARK    5  A    between atoms: C_17  and  C_18
REMARK    6  A    between atoms: C_19  and  C_20
REMARK                            x       y       z     vdW  Elec       q    Type
REMARK                         _______ _______ _______ _____ _____    ______ ____
ROOT
ATOM      1  C   UNL     1       1.735   8.370  20.239  0.00  0.00    +0.000 C 
ATOM      2  C   UNL     1       1.275   7.091  20.964  0.00  0.00    +0.000 C 
ATOM      3  C   UNL     1       1.856   5.919  20.260  0.00  0.00    +0.000 A 
ATOM      4  N   UNL     1       2.062   4.692  20.820  0.00  0.00    +0.000 N 
ATOM      5  C   UNL     1       2.680   3.863  19.910  0.00  0.00    +0.000 A 
ATOM      6  C   UNL     1       3.146   2.551  20.060  0.00  0.00    +0.000 A 
ATOM      7  C   UNL     1       3.761   1.951  18.958  0.00  0.00    +0.000 A 
ATOM      8  C   UNL     1       3.882   2.628  17.747  0.00  0.00    +0.000 A 
ATOM      9  C   UNL     1       3.400   3.933  17.610  0.00  0.00    +0.000 A 
ATOM     10  C   UNL     1       2.805   4.576  18.716  0.00  0.00    +0.000 A 
ATOM     11  C   UNL     1       2.294   5.889  18.952  0.00  0.00    +0.000 A 
ATOM     12  C   UNL     1       2.273   7.095  18.044  0.00  0.00    +0.000 C 
ATOM     13  C   UNL     1       3.703   7.495  17.651  0.00  0.00    +0.000 C 
ATOM     14  C   UNL     1       1.468   8.281  18.705  0.00  0.00    +0.000 C 
ATOM     15  C   UNL     1       1.723   9.621  18.001  0.00  0.00    +0.000 C 
ATOM     16  H   UNL     1       1.836   4.432  21.772  0.00  0.00    +0.000 HD
ENDROOT
BRANCH   1  17
ATOM     17  C   UNL     1       1.032   9.546  20.878  0.00  0.00    +0.000 C 
ATOM     18  O   UNL     1       1.348  10.717  20.726  0.00  0.00    +0.000 OA
BRANCH  17  19
ATOM     19  O   UNL     1       0.010   9.101  21.663  0.00  0.00    +0.000 OA
BRANCH  19  21
ATOM     20  C   UNL     1      -1.128  10.646  23.128  0.00  0.00    +0.000 C 
ATOM     21  C   UNL     1      -0.025   9.613  23.002  0.00  0.00    +0.000 C 
ENDBRANCH  19  21
ENDBRANCH  17  19
ENDBRANCH   1  17
TORSDOF 3
ENDMDL
