MODEL 1
REMARK VINA RESULT:      -7.0      0.000      0.000
REMARK  Name = 
REMARK  2 active torsions:
REMARK  status: ('A' for Active; 'I' for Inactive)
REMARK    1  A    between atoms: C_1  and  N_2
REMARK    2  A    between atoms: C_11  and  C_12
REMARK                            x       y       z     vdW  Elec       q    Type
REMARK                         _______ _______ _______ _____ _____    ______ ____
ROOT
ATOM      1  C   UNL     1       2.939   7.684  17.769  0.00  0.00    +0.000 C 
ATOM      2  N   UNL     1       2.991   6.355  18.289  0.00  0.00    +0.000 N 
ATOM      3  C   UNL     1       2.153   5.300  18.208  0.00  0.00    +0.000 C 
ATOM      4  O   UNL     1       1.129   5.141  17.591  0.00  0.00    +0.000 OA
ATOM      5  C   UNL     1       2.954   4.569  19.340  0.00  0.00    +0.000 C 
ATOM      6  C   UNL     1       3.361   3.115  19.096  0.00  0.00    +0.000 C 
ATOM      7  C   UNL     1       2.198   2.154  19.337  0.00  0.00    +0.000 C 
ATOM      8  C   UNL     1       1.570   2.355  20.713  0.00  0.00    +0.000 C 
ATOM      9  C   UNL     1       1.117   3.799  20.890  0.00  0.00    +0.000 C 
ATOM     10  C   UNL     1       2.292   4.758  20.720  0.00  0.00    +0.000 C 
ATOM     11  C   UNL     1       4.058   5.662  19.012  0.00  0.00    +0.000 C 
ENDROOT
BRANCH  11  12
ATOM     12  C   UNL     1       5.339   5.255  18.133  0.00  0.00    +0.000 A 
ATOM     13  C   UNL     1       5.260   4.959  16.753  0.00  0.00    +0.000 A 
ATOM     14  C   UNL     1       6.381   4.616  15.991  0.00  0.00    +0.000 A 
ATOM     15  C   UNL     1       7.628   4.538  16.592  0.00  0.00    +0.000 A 
ATOM     16  C   UNL     1       7.748   4.805  17.952  0.00  0.00    +0.000 A 
ATOM     17  C   UNL     1       6.624   5.159  18.705  0.00  0.00    +0.000 A 
ENDBRANCH  11  12
TORSDOF 1
ENDMDL
MODEL 2
REMARK VINA RESULT:      -6.9      0.282      1.189
REMARK  Name = 
REMARK  2 active torsions:
REMARK  status: ('A' for Active; 'I' for Inactive)
REMARK    1  A    between atoms: C_1  and  N_2
REMARK    2  A    between atoms: C_11  and  C_12
REMARK                            x       y       z     vdW  Elec       q    Type
REMARK                         _______ _______ _______ _____ _____    ______ ____
ROOT
ATOM      1  C   UNL     1       2.850   7.596  17.715  0.00  0.00    +0.000 C 
ATOM      2  N   UNL     1       2.931   6.305  18.319  0.00  0.00    +0.000 N 
ATOM      3  C   UNL     1       2.158   5.200  18.241  0.00  0.00    +0.000 C 
ATOM      4  O   UNL     1       1.194   4.948  17.561  0.00  0.00    +0.000 OA
ATOM      5  C   UNL     1       2.906   4.583  19.472  0.00  0.00    +0.000 C 
ATOM      6  C   UNL     1       3.406   3.142  19.350  0.00  0.00    +0.000 C 
ATOM      7  C   UNL     1       2.280   2.133  19.563  0.00  0.00    +0.000 C 
ATOM      8  C   UNL     1       1.538   2.377  20.873  0.00  0.00    +0.000 C 
ATOM      9  C   UNL     1       0.998   3.800  20.926  0.00  0.00    +0.000 C 
ATOM     10  C   UNL     1       2.130   4.813  20.785  0.00  0.00    +0.000 C 
ATOM     11  C   UNL     1       3.974   5.716  19.160  0.00  0.00    +0.000 C 
ENDROOT
BRANCH  11  12
ATOM     12  C   UNL     1       5.339   5.332  18.405  0.00  0.00    +0.000 A 
ATOM     13  C   UNL     1       6.608   5.423  19.021  0.00  0.00    +0.000 A 
ATOM     14  C   UNL     1       7.791   5.077  18.362  0.00  0.00    +0.000 A 
ATOM     15  C   UNL     1       7.748   4.641  17.047  0.00  0.00    +0.000 A 
ATOM     16  C   UNL     1       6.521   4.553  16.397  0.00  0.00    +0.000 A 
ATOM     17  C   UNL     1       5.340   4.890  17.067  0.00  0.00    +0.000 A 
ENDBRANCH  11  12
TORSDOF 1
ENDMDL
MODEL 3
REMARK VINA RESULT:      -6.9      2.002      2.974
REMARK  Name = 
REMARK  2 active torsions:
REMARK  status: ('A' for Active; 'I' for Inactive)
REMARK    1  A    between atoms: C_1  and  N_2
REMARK    2  A    between atoms: C_11  and  C_12
REMARK                            x       y       z     vdW  Elec       q    Type
REMARK                         _______ _______ _______ _____ _____    ______ ____
ROOT
ATOM      1  C   UNL     1       5.264   3.282  15.597  0.00  0.00    +0.000 C 
ATOM      2  N   UNL     1       4.653   3.816  16.772  0.00  0.00    +0.000 N 
ATOM      3  C   UNL     1       4.134   3.247  17.881  0.00  0.00    +0.000 C 
ATOM      4  O   UNL     1       4.105   2.098  18.249  0.00  0.00    +0.000 OA
ATOM      5  C   UNL     1       3.480   4.613  18.284  0.00  0.00    +0.000 C 
ATOM      6  C   UNL     1       3.678   5.100  19.721  0.00  0.00    +0.000 C 
ATOM      7  C   UNL     1       2.733   4.393  20.691  0.00  0.00    +0.000 C 
ATOM      8  C   UNL     1       1.279   4.493  20.243  0.00  0.00    +0.000 C 
ATOM      9  C   UNL     1       1.112   3.937  18.835  0.00  0.00    +0.000 C 
ATOM     10  C   UNL     1       2.002   4.689  17.849  0.00  0.00    +0.000 C 
ATOM     11  C   UNL     1       4.488   5.203  17.207  0.00  0.00    +0.000 C 
ENDROOT
BRANCH  11  12
ATOM     12  C   UNL     1       5.828   5.941  17.698  0.00  0.00    +0.000 A 
ATOM     13  C   UNL     1       6.683   5.401  18.685  0.00  0.00    +0.000 A 
ATOM     14  C   UNL     1       7.854   6.043  19.100  0.00  0.00    +0.000 A 
ATOM     15  C   UNL     1       8.204   7.266  18.549  0.00  0.00    +0.000 A 
ATOM     16  C   UNL     1       7.381   7.841  17.586  0.00  0.00    +0.000 A 
ATOM     17  C   UNL     1       6.217   7.187  17.168  0.00  0.00    +0.000 A 
ENDBRANCH  11  12
TORSDOF 1
ENDMDL
MODEL 4
REMARK VINA RESULT:      -6.9      2.078      4.552
REMARK  Name = 
REMARK  2 active torsions:
REMARK  status: ('A' for Active; 'I' for Inactive)
REMARK    1  A    between atoms: C_1  and  N_2
REMARK    2  A    between atoms: C_11  and  C_12
REMARK                            x       y       z     vdW  Elec       q    Type
REMARK                         _______ _______ _______ _____ _____    ______ ____
ROOT
ATOM      1  C   UNL     1       5.532   6.500  17.709  0.00  0.00    +0.000 C 
ATOM      2  N   UNL     1       4.352   5.790  18.085  0.00  0.00    +0.000 N 
ATOM      3  C   UNL     1       4.128   4.740  18.904  0.00  0.00    +0.000 C 
ATOM      4  O   UNL     1       4.867   4.130  19.637  0.00  0.00    +0.000 OA
ATOM      5  C   UNL     1       2.678   4.593  18.330  0.00  0.00    +0.000 C 
ATOM      6  C   UNL     1       1.528   4.462  19.331  0.00  0.00    +0.000 C 
ATOM      7  C   UNL     1       1.422   3.043  19.887  0.00  0.00    +0.000 C 
ATOM      8  C   UNL     1       1.342   2.001  18.775  0.00  0.00    +0.000 C 
ATOM      9  C   UNL     1       2.539   2.121  17.841  0.00  0.00    +0.000 C 
ATOM     10  C   UNL     1       2.607   3.517  17.228  0.00  0.00    +0.000 C 
ATOM     11  C   UNL     1       2.947   6.055  17.772  0.00  0.00    +0.000 C 
ENDROOT
BRANCH  11  12
ATOM     12  C   UNL     1       2.296   7.320  18.518  0.00  0.00    +0.000 A 
ATOM     13  C   UNL     1       2.079   7.359  19.915  0.00  0.00    +0.000 A 
ATOM     14  C   UNL     1       1.523   8.467  20.559  0.00  0.00    +0.000 A 
ATOM     15  C   UNL     1       1.145   9.579  19.822  0.00  0.00    +0.000 A 
ATOM     16  C   UNL     1       1.325   9.576  18.443  0.00  0.00    +0.000 A 
ATOM     17  C   UNL     1       1.893   8.468  17.806  0.00  0.00    +0.000 A 
ENDBRANCH  11  12
TORSDOF 1
ENDMDL
MODEL 5
REMARK VINA RESULT:      -6.8      2.067      4.397
REMARK  Name = 
REMARK  2 active torsions:
REMARK  status: ('A' for Active; 'I' for Inactive)
REMARK    1  A    between atoms: C_1  and  N_2
REMARK    2  A    between atoms: C_11  and  C_12
REMARK                            x       y       z     vdW  Elec       q    Type
REMARK                         _______ _______ _______ _____ _____    ______ ____
ROOT
ATOM      1  C   UNL     1       5.651   6.600  17.509  0.00  0.00    +0.000 C 
ATOM      2  N   UNL     1       4.547   5.821  17.970  0.00  0.00    +0.000 N 
ATOM      3  C   UNL     1       4.444   4.785  18.830  0.00  0.00    +0.000 C 
ATOM      4  O   UNL     1       5.262   4.253  19.539  0.00  0.00    +0.000 OA
ATOM      5  C   UNL     1       2.979   4.517  18.340  0.00  0.00    +0.000 C 
ATOM      6  C   UNL     1       1.896   4.337  19.406  0.00  0.00    +0.000 C 
ATOM      7  C   UNL     1       1.923   2.933  20.008  0.00  0.00    +0.000 C 
ATOM      8  C   UNL     1       1.860   1.853  18.933  0.00  0.00    +0.000 C 
ATOM      9  C   UNL     1       2.995   2.027  17.931  0.00  0.00    +0.000 C 
ATOM     10  C   UNL     1       2.929   3.403  17.275  0.00  0.00    +0.000 C 
ATOM     11  C   UNL     1       3.112   5.975  17.727  0.00  0.00    +0.000 C 
ENDROOT
BRANCH  11  12
ATOM     12  C   UNL     1       2.412   7.215  18.471  0.00  0.00    +0.000 A 
ATOM     13  C   UNL     1       1.995   8.382  17.791  0.00  0.00    +0.000 A 
ATOM     14  C   UNL     1       1.376   9.452  18.442  0.00  0.00    +0.000 A 
ATOM     15  C   UNL     1       1.167   9.401  19.812  0.00  0.00    +0.000 A 
ATOM     16  C   UNL     1       1.577   8.278  20.522  0.00  0.00    +0.000 A 
ATOM     17  C   UNL     1       2.185   7.205  19.862  0.00  0.00    +0.000 A 
ENDBRANCH  11  12
TORSDOF 1
ENDMDL
MODEL 6
REMARK VINA RESULT:      -6.8      1.993      2.793
REMARK  Name = 
REMARK  2 active torsions:
REMARK  status: ('A' for Active; 'I' for Inactive)
REMARK    1  A    between atoms: C_1  and  N_2
REMARK    2  A    between atoms: C_11  and  C_12
REMARK                            x       y       z     vdW  Elec       q    Type
REMARK                         _______ _______ _______ _____ _____    ______ ____
ROOT
ATOM      1  C   UNL     1       5.174   3.670  15.220  0.00  0.00    +0.000 C 
ATOM      2  N   UNL     1       4.604   4.029  16.479  0.00  0.00    +0.000 N 
ATOM      3  C   UNL     1       4.106   3.307  17.506  0.00  0.00    +0.000 C 
ATOM      4  O   UNL     1       4.069   2.116  17.699  0.00  0.00    +0.000 OA
ATOM      5  C   UNL     1       3.486   4.605  18.127  0.00  0.00    +0.000 C 
ATOM      6  C   UNL     1       3.732   4.868  19.614  0.00  0.00    +0.000 C 
ATOM      7  C   UNL     1       2.803   4.036  20.496  0.00  0.00    +0.000 C 
ATOM      8  C   UNL     1       1.338   4.220  20.111  0.00  0.00    +0.000 C 
ATOM      9  C   UNL     1       1.124   3.883  18.641  0.00  0.00    +0.000 C 
ATOM     10  C   UNL     1       1.999   4.763  17.753  0.00  0.00    +0.000 C 
ATOM     11  C   UNL     1       4.474   5.337  17.121  0.00  0.00    +0.000 C 
ENDROOT
BRANCH  11  12
ATOM     12  C   UNL     1       5.839   5.977  17.676  0.00  0.00    +0.000 A 
ATOM     13  C   UNL     1       6.375   7.188  17.182  0.00  0.00    +0.000 A 
ATOM     14  C   UNL     1       7.558   7.745  17.677  0.00  0.00    +0.000 A 
ATOM     15  C   UNL     1       8.261   7.095  18.680  0.00  0.00    +0.000 A 
ATOM     16  C   UNL     1       7.778   5.892  19.183  0.00  0.00    +0.000 A 
ATOM     17  C   UNL     1       6.587   5.347  18.691  0.00  0.00    +0.000 A 
ENDBRANCH  11  12
TORSDOF 1
ENDMDL
MODEL 7
REMARK VINA RESULT:      -6.6      1.862      2.696
REMARK  Name = 
REMARK  2 active torsions:
REMARK  status: ('A' for Active; 'I' for Inactive)
REMARK    1  A    between atoms: C_1  and  N_2
REMARK    2  A    between atoms: C_11  and  C_12
REMARK                            x       y       z     vdW  Elec       q    Type
REMARK                         _______ _______ _______ _____ _____    ______ ____
ROOT
ATOM      1  C   UNL     1       6.512   5.473  19.601  0.00  0.00    +0.000 C 
ATOM      2  N   UNL     1       5.330   4.855  19.092  0.00  0.00    +0.000 N 
ATOM      3  C   UNL     1       4.014   5.072  19.297  0.00  0.00    +0.000 C 
ATOM      4  O   UNL     1       3.435   5.925  19.924  0.00  0.00    +0.000 OA
ATOM      5  C   UNL     1       3.673   3.714  18.593  0.00  0.00    +0.000 C 
ATOM      6  C   UNL     1       2.585   3.725  17.517  0.00  0.00    +0.000 C 
ATOM      7  C   UNL     1       1.185   3.728  18.129  0.00  0.00    +0.000 C 
ATOM      8  C   UNL     1       0.999   2.589  19.127  0.00  0.00    +0.000 C 
ATOM      9  C   UNL     1       2.060   2.653  20.218  0.00  0.00    +0.000 C 
ATOM     10  C   UNL     1       3.460   2.579  19.615  0.00  0.00    +0.000 C 
ATOM     11  C   UNL     1       5.168   3.822  18.068  0.00  0.00    +0.000 C 
ENDROOT
BRANCH  11  12
ATOM     12  C   UNL     1       5.445   4.294  16.557  0.00  0.00    +0.000 A 
ATOM     13  C   UNL     1       5.211   5.614  16.111  0.00  0.00    +0.000 A 
ATOM     14  C   UNL     1       5.464   6.021  14.798  0.00  0.00    +0.000 A 
ATOM     15  C   UNL     1       5.948   5.109  13.872  0.00  0.00    +0.000 A 
ATOM     16  C   UNL     1       6.175   3.794  14.265  0.00  0.00    +0.000 A 
ATOM     17  C   UNL     1       5.930   3.397  15.584  0.00  0.00    +0.000 A 
ENDBRANCH  11  12
TORSDOF 1
ENDMDL
MODEL 8
REMARK VINA RESULT:      -6.6      1.891      5.210
REMARK  Name = 
REMARK  2 active torsions:
REMARK  status: ('A' for Active; 'I' for Inactive)
REMARK    1  A    between atoms: C_1  and  N_2
REMARK    2  A    between atoms: C_11  and  C_12
REMARK                            x       y       z     vdW  Elec       q    Type
REMARK                         _______ _______ _______ _____ _____    ______ ____
ROOT
ATOM      1  C   UNL     1       1.452   4.152  19.810  0.00  0.00    +0.000 C 
ATOM      2  N   UNL     1       2.510   4.835  19.136  0.00  0.00    +0.000 N 
ATOM      3  C   UNL     1       3.139   4.628  17.959  0.00  0.00    +0.000 C 
ATOM      4  O   UNL     1       2.933   3.835  17.074  0.00  0.00    +0.000 OA
ATOM      5  C   UNL     1       4.255   5.648  18.370  0.00  0.00    +0.000 C 
ATOM      6  C   UNL     1       4.641   6.726  17.355  0.00  0.00    +0.000 C 
ATOM      7  C   UNL     1       5.575   6.180  16.277  0.00  0.00    +0.000 C 
ATOM      8  C   UNL     1       6.796   5.491  16.879  0.00  0.00    +0.000 C 
ATOM      9  C   UNL     1       6.370   4.380  17.831  0.00  0.00    +0.000 C 
ATOM     10  C   UNL     1       5.494   4.936  18.950  0.00  0.00    +0.000 C 
ATOM     11  C   UNL     1       3.199   6.081  19.473  0.00  0.00    +0.000 C 
ENDROOT
BRANCH  11  12
ATOM     12  C   UNL     1       2.342   7.425  19.266  0.00  0.00    +0.000 A 
ATOM     13  C   UNL     1       2.206   8.062  18.011  0.00  0.00    +0.000 A 
ATOM     14  C   UNL     1       1.451   9.224  17.835  0.00  0.00    +0.000 A 
ATOM     15  C   UNL     1       0.813   9.806  18.921  0.00  0.00    +0.000 A 
ATOM     16  C   UNL     1       0.935   9.221  20.177  0.00  0.00    +0.000 A 
ATOM     17  C   UNL     1       1.683   8.051  20.343  0.00  0.00    +0.000 A 
ENDBRANCH  11  12
TORSDOF 1
ENDMDL
MODEL 9
REMARK VINA RESULT:      -6.5      1.869      2.674
REMARK  Name = 
REMARK  2 active torsions:
REMARK  status: ('A' for Active; 'I' for Inactive)
REMARK    1  A    between atoms: C_1  and  N_2
REMARK    2  A    between atoms: C_11  and  C_12
REMARK                            x       y       z     vdW  Elec       q    Type
REMARK                         _______ _______ _______ _____ _____    ______ ____
ROOT
ATOM      1  C   UNL     1       6.533   5.474  19.598  0.00  0.00    +0.000 C 
ATOM      2  N   UNL     1       5.349   4.852  19.098  0.00  0.00    +0.000 N 
ATOM      3  C   UNL     1       4.033   5.069  19.310  0.00  0.00    +0.000 C 
ATOM      4  O   UNL     1       3.457   5.923  19.937  0.00  0.00    +0.000 OA
ATOM      5  C   UNL     1       3.691   3.707  18.613  0.00  0.00    +0.000 C 
ATOM      6  C   UNL     1       2.597   3.712  17.544  0.00  0.00    +0.000 C 
ATOM      7  C   UNL     1       1.201   3.715  18.164  0.00  0.00    +0.000 C 
ATOM      8  C   UNL     1       1.022   2.580  19.167  0.00  0.00    +0.000 C 
ATOM      9  C   UNL     1       2.089   2.650  20.252  0.00  0.00    +0.000 C 
ATOM     10  C   UNL     1       3.486   2.576  19.641  0.00  0.00    +0.000 C 
ATOM     11  C   UNL     1       5.182   3.815  18.079  0.00  0.00    +0.000 C 
ENDROOT
BRANCH  11  12
ATOM     12  C   UNL     1       5.450   4.281  16.565  0.00  0.00    +0.000 A 
ATOM     13  C   UNL     1       5.947   3.409  15.570  0.00  0.00    +0.000 A 
ATOM     14  C   UNL     1       6.167   3.817  14.252  0.00  0.00    +0.000 A 
ATOM     15  C   UNL     1       5.912   5.129  13.883  0.00  0.00    +0.000 A 
ATOM     16  C   UNL     1       5.438   6.026  14.835  0.00  0.00    +0.000 A 
ATOM     17  C   UNL     1       5.209   5.606  16.150  0.00  0.00    +0.000 A 
ENDBRANCH  11  12
TORSDOF 1
ENDMDL
