MODEL 1
REMARK VINA RESULT:      -6.3      0.000      0.000
REMARK  Name = 
REMARK  6 active torsions:
REMARK  status: ('A' for Active; 'I' for Inactive)
REMARK    1  A    between atoms: C_2  and  C_3
REMARK    2  A    between atoms: C_4  and  N_5
REMARK    3  A    between atoms: C_6  and  C_7
REMARK    4  A    between atoms: C_10  and  O_11
REMARK    5  A    between atoms: C_14  and  C_15
REMARK    6  A    between atoms: N_17  and  C_18
REMARK                            x       y       z     vdW  Elec       q    Type
REMARK                         _______ _______ _______ _____ _____    ______ ____
ROOT
ATOM      1  C   UNL     1      -0.383  16.104  19.046  0.00  0.00    +0.000 A 
ATOM      2  C   UNL     1      -0.486  14.774  19.584  0.00  0.00    +0.000 A 
ATOM      3  C   UNL     1       0.754  14.143  19.459  0.00  0.00    +0.000 A 
ATOM      4  N   UNL     1       1.553  15.055  18.832  0.00  0.00    +0.000 N 
ATOM      5  C   UNL     1       0.905  16.224  18.590  0.00  0.00    +0.000 A 
ATOM      6  C   UNL     1       1.804  17.214  17.959  0.00  0.00    +0.000 C 
ATOM      7  C   UNL     1       2.992  16.331  17.516  0.00  0.00    +0.000 C 
ATOM      8  C   UNL     1       2.948  15.083  18.415  0.00  0.00    +0.000 C 
ENDROOT
BRANCH   3   9
ATOM      9  C   UNL     1       1.243  12.839  19.860  0.00  0.00    +0.000 C 
ATOM     10  O   UNL     1       2.054  12.741  20.778  0.00  0.00    +0.000 OA
ATOM     11  N   UNL     1       0.781  11.758  19.125  0.00  0.00    +0.000 N 
ATOM     12  H   UNL     1       0.215  11.991  18.313  0.00  0.00    +0.000 HD
BRANCH  11  13
ATOM     13  C   UNL     1       1.162  10.413  19.332  0.00  0.00    +0.000 A 
ATOM     14  C   UNL     1       1.826   9.663  18.353  0.00  0.00    +0.000 A 
ATOM     15  C   UNL     1       2.149   8.322  18.560  0.00  0.00    +0.000 A 
ATOM     16  C   UNL     1       1.800   7.714  19.759  0.00  0.00    +0.000 A 
ATOM     17 BR   UNL     1       2.197   5.886  20.024  0.00  0.00    +0.000 Br
ATOM     18  C   UNL     1       1.157   8.445  20.757  0.00  0.00    +0.000 A 
ATOM     19  C   UNL     1       0.856   9.800  20.552  0.00  0.00    +0.000 A 
ENDBRANCH  11  13
ENDBRANCH   3   9
BRANCH   1  21
ATOM     20  N   UNL     1      -2.107  18.027  18.851  0.00  0.00    +0.000 NA
ATOM     21  C   UNL     1      -1.329  17.166  18.961  0.00  0.00    +0.000 C 
ENDBRANCH   1  21
BRANCH   2  22
ATOM     22  N   UNL     1      -1.551  14.133  20.245  0.00  0.00    +0.000 NA
ATOM     23  C   UNL     1      -1.805  14.501  21.459  0.00  0.00    +0.000 C 
BRANCH  23  24
ATOM     24  C   UNL     1      -2.909  13.892  22.232  0.00  0.00    +0.000 A 
ATOM     25  C   UNL     1      -2.691  13.329  23.494  0.00  0.00    +0.000 A 
ATOM     26  C   UNL     1      -3.752  12.737  24.181  0.00  0.00    +0.000 A 
ATOM     27  C   UNL     1      -5.016  12.708  23.596  0.00  0.00    +0.000 A 
ATOM     28  C   UNL     1      -5.242  13.276  22.345  0.00  0.00    +0.000 A 
ATOM     29  C   UNL     1      -4.187  13.875  21.660  0.00  0.00    +0.000 A 
BRANCH  27  30
ATOM     30  O   UNL     1      -6.075  12.121  24.221  0.00  0.00    +0.000 OA
ATOM     31  H   UNL     1      -6.290  11.294  23.762  0.00  0.00    +0.000 HD
ENDBRANCH  27  30
ENDBRANCH  23  24
ENDBRANCH   2  22
TORSDOF 6
ENDMDL
MODEL 2
REMARK VINA RESULT:      -6.1      2.351      2.881
REMARK  Name = 
REMARK  6 active torsions:
REMARK  status: ('A' for Active; 'I' for Inactive)
REMARK    1  A    between atoms: C_2  and  C_3
REMARK    2  A    between atoms: C_4  and  N_5
REMARK    3  A    between atoms: C_6  and  C_7
REMARK    4  A    between atoms: C_10  and  O_11
REMARK    5  A    between atoms: C_14  and  C_15
REMARK    6  A    between atoms: N_17  and  C_18
REMARK                            x       y       z     vdW  Elec       q    Type
REMARK                         _______ _______ _______ _____ _____    ______ ____
ROOT
ATOM      1  C   UNL     1       0.301  15.049  19.183  0.00  0.00    +0.000 A 
ATOM      2  C   UNL     1      -0.064  13.660  19.268  0.00  0.00    +0.000 A 
ATOM      3  C   UNL     1       0.958  12.967  19.922  0.00  0.00    +0.000 A 
ATOM      4  N   UNL     1       1.913  13.908  20.180  0.00  0.00    +0.000 N 
ATOM      5  C   UNL     1       1.540  15.146  19.764  0.00  0.00    +0.000 A 
ATOM      6  C   UNL     1       2.566  16.155  20.101  0.00  0.00    +0.000 C 
ATOM      7  C   UNL     1       3.784  15.270  20.450  0.00  0.00    +0.000 C 
ATOM      8  C   UNL     1       3.209  13.899  20.845  0.00  0.00    +0.000 C 
ENDROOT
BRANCH   3   9
ATOM      9  C   UNL     1       1.114  11.582  20.319  0.00  0.00    +0.000 C 
ATOM     10  O   UNL     1       1.127  11.281  21.511  0.00  0.00    +0.000 OA
ATOM     11  N   UNL     1       1.291  10.667  19.293  0.00  0.00    +0.000 N 
ATOM     12  H   UNL     1       1.388  11.065  18.363  0.00  0.00    +0.000 HD
BRANCH  11  13
ATOM     13  C   UNL     1       1.494   9.280  19.470  0.00  0.00    +0.000 A 
ATOM     14  C   UNL     1       1.140   8.615  20.651  0.00  0.00    +0.000 A 
ATOM     15  C   UNL     1       1.395   7.255  20.824  0.00  0.00    +0.000 A 
ATOM     16  C   UNL     1       2.020   6.544  19.808  0.00  0.00    +0.000 A 
ATOM     17 BR   UNL     1       2.406   4.711  20.057  0.00  0.00    +0.000 Br
ATOM     18  C   UNL     1       2.365   7.178  18.615  0.00  0.00    +0.000 A 
ATOM     19  C   UNL     1       2.083   8.541  18.437  0.00  0.00    +0.000 A 
ENDBRANCH  11  13
ENDBRANCH   3   9
BRANCH   1  21
ATOM     20  N   UNL     1      -0.927  17.103  18.193  0.00  0.00    +0.000 NA
ATOM     21  C   UNL     1      -0.389  16.178  18.656  0.00  0.00    +0.000 C 
ENDBRANCH   1  21
BRANCH   2  22
ATOM     22  N   UNL     1      -1.252  13.001  18.898  0.00  0.00    +0.000 NA
ATOM     23  C   UNL     1      -2.233  13.027  19.740  0.00  0.00    +0.000 C 
BRANCH  23  24
ATOM     24  C   UNL     1      -3.524  12.370  19.437  0.00  0.00    +0.000 A 
ATOM     25  C   UNL     1      -4.653  12.581  20.236  0.00  0.00    +0.000 A 
ATOM     26  C   UNL     1      -5.846  11.920  19.937  0.00  0.00    +0.000 A 
ATOM     27  C   UNL     1      -5.894  11.054  18.847  0.00  0.00    +0.000 A 
ATOM     28  C   UNL     1      -4.777  10.849  18.042  0.00  0.00    +0.000 A 
ATOM     29  C   UNL     1      -3.587  11.512  18.334  0.00  0.00    +0.000 A 
BRANCH  27  30
ATOM     30  O   UNL     1      -7.030  10.372  18.531  0.00  0.00    +0.000 OA
ATOM     31  H   UNL     1      -6.919   9.442  18.785  0.00  0.00    +0.000 HD
ENDBRANCH  27  30
ENDBRANCH  23  24
ENDBRANCH   2  22
TORSDOF 6
ENDMDL
MODEL 3
REMARK VINA RESULT:      -6.0      7.002      9.986
REMARK  Name = 
REMARK  6 active torsions:
REMARK  status: ('A' for Active; 'I' for Inactive)
REMARK    1  A    between atoms: C_2  and  C_3
REMARK    2  A    between atoms: C_4  and  N_5
REMARK    3  A    between atoms: C_6  and  C_7
REMARK    4  A    between atoms: C_10  and  O_11
REMARK    5  A    between atoms: C_14  and  C_15
REMARK    6  A    between atoms: N_17  and  C_18
REMARK                            x       y       z     vdW  Elec       q    Type
REMARK                         _______ _______ _______ _____ _____    ______ ____
ROOT
ATOM      1  C   UNL     1      10.676  13.544  19.357  0.00  0.00    +0.000 A 
ATOM      2  C   UNL     1       9.357  13.855  19.841  0.00  0.00    +0.000 A 
ATOM      3  C   UNL     1       8.862  14.947  19.123  0.00  0.00    +0.000 A 
ATOM      4  N   UNL     1       9.869  15.294  18.270  0.00  0.00    +0.000 N 
ATOM      5  C   UNL     1      10.944  14.472  18.383  0.00  0.00    +0.000 A 
ATOM      6  C   UNL     1      12.000  14.835  17.414  0.00  0.00    +0.000 C 
ATOM      7  C   UNL     1      11.547  16.239  16.957  0.00  0.00    +0.000 C 
ATOM      8  C   UNL     1      10.035  16.304  17.234  0.00  0.00    +0.000 C 
ENDROOT
BRANCH   3   9
ATOM      9  C   UNL     1       7.596  15.653  19.148  0.00  0.00    +0.000 C 
ATOM     10  O   UNL     1       7.576  16.876  19.271  0.00  0.00    +0.000 OA
ATOM     11  N   UNL     1       6.455  14.869  19.076  0.00  0.00    +0.000 N 
ATOM     12  H   UNL     1       6.611  13.865  19.106  0.00  0.00    +0.000 HD
BRANCH  11  13
ATOM     13  C   UNL     1       5.131  15.359  19.120  0.00  0.00    +0.000 A 
ATOM     14  C   UNL     1       4.464  15.608  20.326  0.00  0.00    +0.000 A 
ATOM     15  C   UNL     1       3.139  16.044  20.348  0.00  0.00    +0.000 A 
ATOM     16  C   UNL     1       2.463  16.230  19.150  0.00  0.00    +0.000 A 
ATOM     17 BR   UNL     1       0.656  16.780  19.177  0.00  0.00    +0.000 Br
ATOM     18  C   UNL     1       3.111  16.009  17.935  0.00  0.00    +0.000 A 
ATOM     19  C   UNL     1       4.451  15.594  17.919  0.00  0.00    +0.000 A 
ENDBRANCH  11  13
ENDBRANCH   3   9
BRANCH   1  21
ATOM     20  N   UNL     1      12.333  11.652  19.971  0.00  0.00    +0.000 NA
ATOM     21  C   UNL     1      11.595  12.516  19.713  0.00  0.00    +0.000 C 
ENDBRANCH   1  21
BRANCH   2  22
ATOM     22  N   UNL     1       8.548  13.195  20.787  0.00  0.00    +0.000 NA
ATOM     23  C   UNL     1       8.853  13.342  22.035  0.00  0.00    +0.000 C 
BRANCH  23  24
ATOM     24  C   UNL     1       8.057  12.695  23.101  0.00  0.00    +0.000 A 
ATOM     25  C   UNL     1       8.627  12.365  24.336  0.00  0.00    +0.000 A 
ATOM     26  C   UNL     1       7.852  11.728  25.307  0.00  0.00    +0.000 A 
ATOM     27  C   UNL     1       6.521  11.424  25.030  0.00  0.00    +0.000 A 
ATOM     28  C   UNL     1       5.946  11.760  23.808  0.00  0.00    +0.000 A 
ATOM     29  C   UNL     1       6.714  12.402  22.840  0.00  0.00    +0.000 A 
BRANCH  27  30
ATOM     30  O   UNL     1       5.735  10.783  25.940  0.00  0.00    +0.000 OA
ATOM     31  H   UNL     1       5.193  10.124  25.478  0.00  0.00    +0.000 HD
ENDBRANCH  27  30
ENDBRANCH  23  24
ENDBRANCH   2  22
TORSDOF 6
ENDMDL
MODEL 4
REMARK VINA RESULT:      -6.0      4.197      6.815
REMARK  Name = 
REMARK  6 active torsions:
REMARK  status: ('A' for Active; 'I' for Inactive)
REMARK    1  A    between atoms: C_2  and  C_3
REMARK    2  A    between atoms: C_4  and  N_5
REMARK    3  A    between atoms: C_6  and  C_7
REMARK    4  A    between atoms: C_10  and  O_11
REMARK    5  A    between atoms: C_14  and  C_15
REMARK    6  A    between atoms: N_17  and  C_18
REMARK                            x       y       z     vdW  Elec       q    Type
REMARK                         _______ _______ _______ _____ _____    ______ ____
ROOT
ATOM      1  C   UNL     1      -3.806  14.350  23.820  0.00  0.00    +0.000 A 
ATOM      2  C   UNL     1      -3.647  13.265  22.888  0.00  0.00    +0.000 A 
ATOM      3  C   UNL     1      -4.472  13.497  21.784  0.00  0.00    +0.000 A 
ATOM      4  N   UNL     1      -5.127  14.660  22.072  0.00  0.00    +0.000 N 
ATOM      5  C   UNL     1      -4.740  15.187  23.263  0.00  0.00    +0.000 A 
ATOM      6  C   UNL     1      -5.423  16.471  23.527  0.00  0.00    +0.000 C 
ATOM      7  C   UNL     1      -6.563  16.448  22.485  0.00  0.00    +0.000 C 
ATOM      8  C   UNL     1      -6.099  15.490  21.374  0.00  0.00    +0.000 C 
ENDROOT
BRANCH   3   9
ATOM      9  C   UNL     1      -4.687  12.779  20.545  0.00  0.00    +0.000 C 
ATOM     10  O   UNL     1      -5.724  12.140  20.376  0.00  0.00    +0.000 OA
ATOM     11  N   UNL     1      -3.654  12.824  19.622  0.00  0.00    +0.000 N 
ATOM     12  H   UNL     1      -2.803  13.280  19.940  0.00  0.00    +0.000 HD
BRANCH  11  13
ATOM     13  C   UNL     1      -3.652  12.164  18.373  0.00  0.00    +0.000 A 
ATOM     14  C   UNL     1      -4.805  12.045  17.587  0.00  0.00    +0.000 A 
ATOM     15  C   UNL     1      -4.793  11.347  16.380  0.00  0.00    +0.000 A 
ATOM     16  C   UNL     1      -3.616  10.748  15.949  0.00  0.00    +0.000 A 
ATOM     17 BR   UNL     1      -3.608   9.765  14.337  0.00  0.00    +0.000 Br
ATOM     18  C   UNL     1      -2.450  10.869  16.704  0.00  0.00    +0.000 A 
ATOM     19  C   UNL     1      -2.462  11.594  17.905  0.00  0.00    +0.000 A 
ENDBRANCH  11  13
ENDBRANCH   3   9
BRANCH   1  21
ATOM     20  N   UNL     1      -2.702  14.865  26.104  0.00  0.00    +0.000 NA
ATOM     21  C   UNL     1      -3.179  14.623  25.069  0.00  0.00    +0.000 C 
ENDBRANCH   1  21
BRANCH   2  22
ATOM     22  N   UNL     1      -2.772  12.161  22.908  0.00  0.00    +0.000 NA
ATOM     23  C   UNL     1      -1.836  12.129  22.016  0.00  0.00    +0.000 C 
BRANCH  23  24
ATOM     24  C   UNL     1      -0.864  11.016  21.962  0.00  0.00    +0.000 A 
ATOM     25  C   UNL     1      -0.580  10.243  23.093  0.00  0.00    +0.000 A 
ATOM     26  C   UNL     1       0.366   9.219  23.012  0.00  0.00    +0.000 A 
ATOM     27  C   UNL     1       1.019   8.984  21.804  0.00  0.00    +0.000 A 
ATOM     28  C   UNL     1       0.732   9.742  20.673  0.00  0.00    +0.000 A 
ATOM     29  C   UNL     1      -0.216  10.760  20.749  0.00  0.00    +0.000 A 
BRANCH  27  30
ATOM     30  O   UNL     1       1.964   8.010  21.685  0.00  0.00    +0.000 OA
ATOM     31  H   UNL     1       2.482   8.172  20.881  0.00  0.00    +0.000 HD
ENDBRANCH  27  30
ENDBRANCH  23  24
ENDBRANCH   2  22
TORSDOF 6
ENDMDL
MODEL 5
REMARK VINA RESULT:      -6.0      3.449      6.289
REMARK  Name = 
REMARK  6 active torsions:
REMARK  status: ('A' for Active; 'I' for Inactive)
REMARK    1  A    between atoms: C_2  and  C_3
REMARK    2  A    between atoms: C_4  and  N_5
REMARK    3  A    between atoms: C_6  and  C_7
REMARK    4  A    between atoms: C_10  and  O_11
REMARK    5  A    between atoms: C_14  and  C_15
REMARK    6  A    between atoms: N_17  and  C_18
REMARK                            x       y       z     vdW  Elec       q    Type
REMARK                         _______ _______ _______ _____ _____    ______ ____
ROOT
ATOM      1  C   UNL     1      -0.999  12.574  19.467  0.00  0.00    +0.000 A 
ATOM      2  C   UNL     1       0.340  12.046  19.473  0.00  0.00    +0.000 A 
ATOM      3  C   UNL     1       0.361  10.869  18.720  0.00  0.00    +0.000 A 
ATOM      4  N   UNL     1      -0.930  10.685  18.317  0.00  0.00    +0.000 N 
ATOM      5  C   UNL     1      -1.747  11.686  18.735  0.00  0.00    +0.000 A 
ATOM      6  C   UNL     1      -3.127  11.494  18.241  0.00  0.00    +0.000 C 
ATOM      7  C   UNL     1      -3.097  10.021  17.773  0.00  0.00    +0.000 C 
ATOM      8  C   UNL     1      -1.618   9.698  17.497  0.00  0.00    +0.000 C 
ENDROOT
BRANCH   3   9
ATOM      9  C   UNL     1       1.421   9.952  18.352  0.00  0.00    +0.000 C 
ATOM     10  O   UNL     1       2.204  10.246  17.451  0.00  0.00    +0.000 OA
ATOM     11  N   UNL     1       1.452   8.745  19.033  0.00  0.00    +0.000 N 
ATOM     12  H   UNL     1       0.671   8.578  19.662  0.00  0.00    +0.000 HD
BRANCH  11  13
ATOM     13  C   UNL     1       2.380   7.706  18.800  0.00  0.00    +0.000 A 
ATOM     14  C   UNL     1       3.235   7.700  17.691  0.00  0.00    +0.000 A 
ATOM     15  C   UNL     1       4.110   6.640  17.453  0.00  0.00    +0.000 A 
ATOM     16  C   UNL     1       4.129   5.562  18.329  0.00  0.00    +0.000 A 
ATOM     17 BR   UNL     1       5.281   4.105  17.985  0.00  0.00    +0.000 Br
ATOM     18  C   UNL     1       3.302   5.554  19.451  0.00  0.00    +0.000 A 
ATOM     19  C   UNL     1       2.442   6.634  19.699  0.00  0.00    +0.000 A 
ENDBRANCH  11  13
ENDBRANCH   3   9
BRANCH   1  21
ATOM     20  N   UNL     1      -1.975  14.744  20.487  0.00  0.00    +0.000 NA
ATOM     21  C   UNL     1      -1.552  13.755  20.038  0.00  0.00    +0.000 C 
ENDBRANCH   1  21
BRANCH   2  22
ATOM     22  N   UNL     1       1.531  12.575  20.008  0.00  0.00    +0.000 NA
ATOM     23  C   UNL     1       2.088  13.551  19.368  0.00  0.00    +0.000 C 
BRANCH  23  24
ATOM     24  C   UNL     1       3.336  14.177  19.856  0.00  0.00    +0.000 A 
ATOM     25  C   UNL     1       3.692  14.130  21.208  0.00  0.00    +0.000 A 
ATOM     26  C   UNL     1       4.863  14.759  21.638  0.00  0.00    +0.000 A 
ATOM     27  C   UNL     1       5.659  15.430  20.712  0.00  0.00    +0.000 A 
ATOM     28  C   UNL     1       5.315  15.470  19.364  0.00  0.00    +0.000 A 
ATOM     29  C   UNL     1       4.151  14.837  18.931  0.00  0.00    +0.000 A 
BRANCH  27  30
ATOM     30  O   UNL     1       6.798  16.075  21.090  0.00  0.00    +0.000 OA
ATOM     31  H   UNL     1       7.000  16.764  20.437  0.00  0.00    +0.000 HD
ENDBRANCH  27  30
ENDBRANCH  23  24
ENDBRANCH   2  22
TORSDOF 6
ENDMDL
MODEL 6
REMARK VINA RESULT:      -6.0      3.711      6.297
REMARK  Name = 
REMARK  6 active torsions:
REMARK  status: ('A' for Active; 'I' for Inactive)
REMARK    1  A    between atoms: C_2  and  C_3
REMARK    2  A    between atoms: C_4  and  N_5
REMARK    3  A    between atoms: C_6  and  C_7
REMARK    4  A    between atoms: C_10  and  O_11
REMARK    5  A    between atoms: C_14  and  C_15
REMARK    6  A    between atoms: N_17  and  C_18
REMARK                            x       y       z     vdW  Elec       q    Type
REMARK                         _______ _______ _______ _____ _____    ______ ____
ROOT
ATOM      1  C   UNL     1      -3.687  13.671  22.650  0.00  0.00    +0.000 A 
ATOM      2  C   UNL     1      -2.812  13.819  21.518  0.00  0.00    +0.000 A 
ATOM      3  C   UNL     1      -1.672  14.519  21.920  0.00  0.00    +0.000 A 
ATOM      4  N   UNL     1      -1.884  14.811  23.237  0.00  0.00    +0.000 N 
ATOM      5  C   UNL     1      -3.061  14.308  23.691  0.00  0.00    +0.000 A 
ATOM      6  C   UNL     1      -3.243  14.590  25.131  0.00  0.00    +0.000 C 
ATOM      7  C   UNL     1      -2.165  15.668  25.386  0.00  0.00    +0.000 C 
ATOM      8  C   UNL     1      -1.116  15.484  24.276  0.00  0.00    +0.000 C 
ENDROOT
BRANCH   3   9
ATOM      9  C   UNL     1      -0.460  14.913  21.230  0.00  0.00    +0.000 C 
ATOM     10  O   UNL     1      -0.316  16.074  20.852  0.00  0.00    +0.000 OA
ATOM     11  N   UNL     1       0.465  13.908  20.994  0.00  0.00    +0.000 N 
ATOM     12  H   UNL     1       0.165  12.969  21.245  0.00  0.00    +0.000 HD
BRANCH  11  13
ATOM     13  C   UNL     1       1.689  14.077  20.308  0.00  0.00    +0.000 A 
ATOM     14  C   UNL     1       2.862  14.483  20.958  0.00  0.00    +0.000 A 
ATOM     15  C   UNL     1       4.047  14.691  20.253  0.00  0.00    +0.000 A 
ATOM     16  C   UNL     1       4.066  14.501  18.878  0.00  0.00    +0.000 A 
ATOM     17 BR   UNL     1       5.660  14.825  17.916  0.00  0.00    +0.000 Br
ATOM     18  C   UNL     1       2.917  14.077  18.212  0.00  0.00    +0.000 A 
ATOM     19  C   UNL     1       1.734  13.845  18.929  0.00  0.00    +0.000 A 
ENDBRANCH  11  13
ENDBRANCH   3   9
BRANCH   1  21
ATOM     20  N   UNL     1      -5.960  12.469  22.954  0.00  0.00    +0.000 NA
ATOM     21  C   UNL     1      -4.943  13.015  22.796  0.00  0.00    +0.000 C 
ENDBRANCH   1  21
BRANCH   2  22
ATOM     22  N   UNL     1      -2.911  13.307  20.209  0.00  0.00    +0.000 NA
ATOM     23  C   UNL     1      -2.637  12.055  20.039  0.00  0.00    +0.000 C 
BRANCH  23  24
ATOM     24  C   UNL     1      -2.722  11.424  18.704  0.00  0.00    +0.000 A 
ATOM     25  C   UNL     1      -1.706  10.587  18.229  0.00  0.00    +0.000 A 
ATOM     26  C   UNL     1      -1.807  10.033  16.951  0.00  0.00    +0.000 A 
ATOM     27  C   UNL     1      -2.917  10.329  16.162  0.00  0.00    +0.000 A 
ATOM     28  C   UNL     1      -3.935  11.152  16.633  0.00  0.00    +0.000 A 
ATOM     29  C   UNL     1      -3.841  11.700  17.911  0.00  0.00    +0.000 A 
BRANCH  27  30
ATOM     30  O   UNL     1      -3.046   9.828  14.902  0.00  0.00    +0.000 OA
ATOM     31  H   UNL     1      -2.643  10.450  14.274  0.00  0.00    +0.000 HD
ENDBRANCH  27  30
ENDBRANCH  23  24
ENDBRANCH   2  22
TORSDOF 6
ENDMDL
MODEL 7
REMARK VINA RESULT:      -6.0      5.739     10.886
REMARK  Name = 
REMARK  6 active torsions:
REMARK  status: ('A' for Active; 'I' for Inactive)
REMARK    1  A    between atoms: C_2  and  C_3
REMARK    2  A    between atoms: C_4  and  N_5
REMARK    3  A    between atoms: C_6  and  C_7
REMARK    4  A    between atoms: C_10  and  O_11
REMARK    5  A    between atoms: C_14  and  C_15
REMARK    6  A    between atoms: N_17  and  C_18
REMARK                            x       y       z     vdW  Elec       q    Type
REMARK                         _______ _______ _______ _____ _____    ______ ____
ROOT
ATOM      1  C   UNL     1       5.562   5.350  17.060  0.00  0.00    +0.000 A 
ATOM      2  C   UNL     1       5.129   6.690  17.351  0.00  0.00    +0.000 A 
ATOM      3  C   UNL     1       3.779   6.657  17.710  0.00  0.00    +0.000 A 
ATOM      4  N   UNL     1       3.416   5.347  17.597  0.00  0.00    +0.000 N 
ATOM      5  C   UNL     1       4.456   4.556  17.227  0.00  0.00    +0.000 A 
ATOM      6  C   UNL     1       4.052   3.135  17.163  0.00  0.00    +0.000 C 
ATOM      7  C   UNL     1       2.510   3.239  17.187  0.00  0.00    +0.000 C 
ATOM      8  C   UNL     1       2.190   4.597  17.835  0.00  0.00    +0.000 C 
ENDROOT
BRANCH   3   9
ATOM      9  C   UNL     1       2.846   7.681  18.139  0.00  0.00    +0.000 C 
ATOM     10  O   UNL     1       2.516   8.575  17.363  0.00  0.00    +0.000 OA
ATOM     11  N   UNL     1       2.413   7.604  19.453  0.00  0.00    +0.000 N 
ATOM     12  H   UNL     1       2.863   6.891  20.021  0.00  0.00    +0.000 HD
BRANCH  11  13
ATOM     13  C   UNL     1       1.534   8.522  20.072  0.00  0.00    +0.000 A 
ATOM     14  C   UNL     1       0.963   9.596  19.379  0.00  0.00    +0.000 A 
ATOM     15  C   UNL     1       0.137  10.519  20.021  0.00  0.00    +0.000 A 
ATOM     16  C   UNL     1      -0.119  10.376  21.378  0.00  0.00    +0.000 A 
ATOM     17 BR   UNL     1      -1.202  11.648  22.259  0.00  0.00    +0.000 Br
ATOM     18  C   UNL     1       0.421   9.302  22.086  0.00  0.00    +0.000 A 
ATOM     19  C   UNL     1       1.231   8.364  21.429  0.00  0.00    +0.000 A 
ENDBRANCH  11  13
ENDBRANCH   3   9
BRANCH   1  21
ATOM     20  N   UNL     1       7.869   4.413  16.348  0.00  0.00    +0.000 NA
ATOM     21  C   UNL     1       6.834   4.826  16.689  0.00  0.00    +0.000 C 
ENDBRANCH   1  21
BRANCH   2  22
ATOM     22  N   UNL     1       5.855   7.896  17.409  0.00  0.00    +0.000 NA
ATOM     23  C   UNL     1       7.021   7.862  17.968  0.00  0.00    +0.000 C 
BRANCH  23  24
ATOM     24  C   UNL     1       7.861   9.075  18.068  0.00  0.00    +0.000 A 
ATOM     25  C   UNL     1       8.983   9.116  18.903  0.00  0.00    +0.000 A 
ATOM     26  C   UNL     1       9.735  10.289  18.994  0.00  0.00    +0.000 A 
ATOM     27  C   UNL     1       9.353  11.407  18.255  0.00  0.00    +0.000 A 
ATOM     28  C   UNL     1       8.244  11.368  17.414  0.00  0.00    +0.000 A 
ATOM     29  C   UNL     1       7.496  10.197  17.315  0.00  0.00    +0.000 A 
BRANCH  27  30
ATOM     30  O   UNL     1      10.044  12.578  18.330  0.00  0.00    +0.000 OA
ATOM     31  H   UNL     1       9.473  13.255  18.725  0.00  0.00    +0.000 HD
ENDBRANCH  27  30
ENDBRANCH  23  24
ENDBRANCH   2  22
TORSDOF 6
ENDMDL
MODEL 8
REMARK VINA RESULT:      -5.9      0.795      1.504
REMARK  Name = 
REMARK  6 active torsions:
REMARK  status: ('A' for Active; 'I' for Inactive)
REMARK    1  A    between atoms: C_2  and  C_3
REMARK    2  A    between atoms: C_4  and  N_5
REMARK    3  A    between atoms: C_6  and  C_7
REMARK    4  A    between atoms: C_10  and  O_11
REMARK    5  A    between atoms: C_14  and  C_15
REMARK    6  A    between atoms: N_17  and  C_18
REMARK                            x       y       z     vdW  Elec       q    Type
REMARK                         _______ _______ _______ _____ _____    ______ ____
ROOT
ATOM      1  C   UNL     1       0.426  16.216  19.210  0.00  0.00    +0.000 A 
ATOM      2  C   UNL     1       0.124  14.965  19.852  0.00  0.00    +0.000 A 
ATOM      3  C   UNL     1       1.167  14.069  19.603  0.00  0.00    +0.000 A 
ATOM      4  N   UNL     1       2.037  14.754  18.806  0.00  0.00    +0.000 N 
ATOM      5  C   UNL     1       1.627  16.028  18.572  0.00  0.00    +0.000 A 
ATOM      6  C   UNL     1       2.610  16.766  17.752  0.00  0.00    +0.000 C 
ATOM      7  C   UNL     1       3.500  15.624  17.213  0.00  0.00    +0.000 C 
ATOM      8  C   UNL     1       3.327  14.455  18.198  0.00  0.00    +0.000 C 
ENDROOT
BRANCH   3   9
ATOM      9  C   UNL     1       1.420  12.706  20.025  0.00  0.00    +0.000 C 
ATOM     10  O   UNL     1       1.918  12.486  21.127  0.00  0.00    +0.000 OA
ATOM     11  N   UNL     1       1.115  11.713  19.107  0.00  0.00    +0.000 N 
ATOM     12  H   UNL     1       0.830  12.039  18.188  0.00  0.00    +0.000 HD
BRANCH  11  13
ATOM     13  C   UNL     1       1.319  10.330  19.312  0.00  0.00    +0.000 A 
ATOM     14  C   UNL     1       1.012   9.698  20.523  0.00  0.00    +0.000 A 
ATOM     15  C   UNL     1       1.267   8.341  20.720  0.00  0.00    +0.000 A 
ATOM     16  C   UNL     1       1.846   7.600  19.698  0.00  0.00    +0.000 A 
ATOM     17 BR   UNL     1       2.233   5.772  19.978  0.00  0.00    +0.000 Br
ATOM     18  C   UNL     1       2.143   8.202  18.476  0.00  0.00    +0.000 A 
ATOM     19  C   UNL     1       1.861   9.561  18.274  0.00  0.00    +0.000 A 
ENDBRANCH  11  13
ENDBRANCH   3   9
BRANCH   1  21
ATOM     20  N   UNL     1      -0.878  18.452  19.154  0.00  0.00    +0.000 NA
ATOM     21  C   UNL     1      -0.271  17.457  19.181  0.00  0.00    +0.000 C 
ENDBRANCH   1  21
BRANCH   2  22
ATOM     22  N   UNL     1      -0.941  14.604  20.701  0.00  0.00    +0.000 NA
ATOM     23  C   UNL     1      -1.860  13.839  20.208  0.00  0.00    +0.000 C 
BRANCH  23  24
ATOM     24  C   UNL     1      -3.012  13.399  21.024  0.00  0.00    +0.000 A 
ATOM     25  C   UNL     1      -4.236  13.063  20.435  0.00  0.00    +0.000 A 
ATOM     26  C   UNL     1      -5.311  12.681  21.240  0.00  0.00    +0.000 A 
ATOM     27  C   UNL     1      -5.151  12.646  22.624  0.00  0.00    +0.000 A 
ATOM     28  C   UNL     1      -3.934  12.969  23.215  0.00  0.00    +0.000 A 
ATOM     29  C   UNL     1      -2.857  13.343  22.414  0.00  0.00    +0.000 A 
BRANCH  27  30
ATOM     30  O   UNL     1      -6.179  12.301  23.449  0.00  0.00    +0.000 OA
ATOM     31  H   UNL     1      -5.817  11.861  24.234  0.00  0.00    +0.000 HD
ENDBRANCH  27  30
ENDBRANCH  23  24
ENDBRANCH   2  22
TORSDOF 6
ENDMDL
MODEL 9
REMARK VINA RESULT:      -5.9      6.970      9.972
REMARK  Name = 
REMARK  6 active torsions:
REMARK  status: ('A' for Active; 'I' for Inactive)
REMARK    1  A    between atoms: C_2  and  C_3
REMARK    2  A    between atoms: C_4  and  N_5
REMARK    3  A    between atoms: C_6  and  C_7
REMARK    4  A    between atoms: C_10  and  O_11
REMARK    5  A    between atoms: C_14  and  C_15
REMARK    6  A    between atoms: N_17  and  C_18
REMARK                            x       y       z     vdW  Elec       q    Type
REMARK                         _______ _______ _______ _____ _____    ______ ____
ROOT
ATOM      1  C   UNL     1      10.774  13.578  19.280  0.00  0.00    +0.000 A 
ATOM      2  C   UNL     1       9.443  13.953  19.676  0.00  0.00    +0.000 A 
ATOM      3  C   UNL     1       9.018  15.013  18.870  0.00  0.00    +0.000 A 
ATOM      4  N   UNL     1      10.078  15.282  18.053  0.00  0.00    +0.000 N 
ATOM      5  C   UNL     1      11.120  14.438  18.269  0.00  0.00    +0.000 A 
ATOM      6  C   UNL     1      12.234  14.714  17.337  0.00  0.00    +0.000 C 
ATOM      7  C   UNL     1      11.847  16.101  16.777  0.00  0.00    +0.000 C 
ATOM      8  C   UNL     1      10.326  16.224  16.970  0.00  0.00    +0.000 C 
ENDROOT
BRANCH   3   9
ATOM      9  C   UNL     1       7.775  15.754  18.789  0.00  0.00    +0.000 C 
ATOM     10  O   UNL     1       7.791  16.983  18.775  0.00  0.00    +0.000 OA
ATOM     11  N   UNL     1       6.612  15.000  18.779  0.00  0.00    +0.000 N 
ATOM     12  H   UNL     1       6.736  14.002  18.923  0.00  0.00    +0.000 HD
BRANCH  11  13
ATOM     13  C   UNL     1       5.303  15.531  18.739  0.00  0.00    +0.000 A 
ATOM     14  C   UNL     1       4.551  15.582  17.558  0.00  0.00    +0.000 A 
ATOM     15  C   UNL     1       3.279  16.155  17.531  0.00  0.00    +0.000 A 
ATOM     16  C   UNL     1       2.748  16.693  18.695  0.00  0.00    +0.000 A 
ATOM     17 BR   UNL     1       1.045  17.508  18.651  0.00  0.00    +0.000 Br
ATOM     18  C   UNL     1       3.469  16.636  19.888  0.00  0.00    +0.000 A 
ATOM     19  C   UNL     1       4.737  16.036  19.915  0.00  0.00    +0.000 A 
ENDBRANCH  11  13
ENDBRANCH   3   9
BRANCH   1  21
ATOM     20  N   UNL     1      12.328  11.677  20.103  0.00  0.00    +0.000 NA
ATOM     21  C   UNL     1      11.643  12.548  19.741  0.00  0.00    +0.000 C 
ENDBRANCH   1  21
BRANCH   2  22
ATOM     22  N   UNL     1       8.568  13.373  20.614  0.00  0.00    +0.000 NA
ATOM     23  C   UNL     1       8.627  13.808  21.831  0.00  0.00    +0.000 C 
BRANCH  23  24
ATOM     24  C   UNL     1       7.742  13.266  22.884  0.00  0.00    +0.000 A 
ATOM     25  C   UNL     1       7.835  11.933  23.299  0.00  0.00    +0.000 A 
ATOM     26  C   UNL     1       6.962  11.448  24.275  0.00  0.00    +0.000 A 
ATOM     27  C   UNL     1       6.003  12.300  24.819  0.00  0.00    +0.000 A 
ATOM     28  C   UNL     1       5.913  13.630  24.419  0.00  0.00    +0.000 A 
ATOM     29  C   UNL     1       6.788  14.118  23.450  0.00  0.00    +0.000 A 
BRANCH  27  30
ATOM     30  O   UNL     1       5.118  11.865  25.758  0.00  0.00    +0.000 OA
ATOM     31  H   UNL     1       4.781  12.630  26.251  0.00  0.00    +0.000 HD
ENDBRANCH  27  30
ENDBRANCH  23  24
ENDBRANCH   2  22
TORSDOF 6
ENDMDL
