MODEL 1
REMARK VINA RESULT:      -8.6      0.000      0.000
REMARK  Name = 
REMARK  7 active torsions:
REMARK  status: ('A' for Active; 'I' for Inactive)
REMARK    1  A    between atoms: C_1  and  C_2
REMARK    2  A    between atoms: C_5  and  S_6
REMARK    3  A    between atoms: S_6  and  N_9
REMARK    4  A    between atoms: C_13  and  C_14
REMARK    5  A    between atoms: C_18  and  N_19
REMARK    6  A    between atoms: N_19  and  C_20
REMARK    7  A    between atoms: N_19  and  C_21
REMARK                            x       y       z     vdW  Elec       q    Type
REMARK                         _______ _______ _______ _____ _____    ______ ____
ROOT
ATOM      1  N   UNL     1       4.084   5.620  19.679  0.00  0.00    +0.000 N 
ATOM      2  C   UNL     1       4.528   5.483  18.349  0.00  0.00    +0.000 A 
ATOM      3  C   UNL     1       4.623   6.563  17.501  0.00  0.00    +0.000 A 
ATOM      4  C   UNL     1       5.127   6.343  16.220  0.00  0.00    +0.000 A 
ATOM      5  C   UNL     1       5.509   5.060  15.842  0.00  0.00    +0.000 A 
ATOM      6  N   UNL     1       5.366   4.029  16.712  0.00  0.00    +0.000 NA
ATOM      7  N   UNL     1       4.874   4.240  17.980  0.00  0.00    +0.000 NA
ATOM      8  H   UNL     1       4.580   5.014  20.326  0.00  0.00    +0.000 HD
ENDROOT
BRANCH   5   9
ATOM      9  C   UNL     1       6.107   4.756  14.528  0.00  0.00    +0.000 A 
ATOM     10  C   UNL     1       7.329   5.316  14.128  0.00  0.00    +0.000 A 
ATOM     11  C   UNL     1       7.876   5.001  12.890  0.00  0.00    +0.000 A 
ATOM     12  C   UNL     1       7.211   4.120  12.028  0.00  0.00    +0.000 A 
ATOM     13  C   UNL     1       5.988   3.518  12.366  0.00  0.00    +0.000 A 
ATOM     14  C   UNL     1       5.472   3.862  13.631  0.00  0.00    +0.000 A 
BRANCH  13  15
ATOM     15  N   UNL     1       5.353   2.617  11.522  0.00  0.00    +0.000 N 
ATOM     16  C   UNL     1       3.986   2.823  11.046  0.00  0.00    +0.000 C 
ATOM     17  C   UNL     1       5.881   1.283  11.240  0.00  0.00    +0.000 C 
ENDBRANCH  13  15
ENDBRANCH   5   9
BRANCH   1  18
ATOM     18  S   UNL     1       2.419   5.556  19.922  0.00  0.00    +0.000 S 
ATOM     19  O   UNL     1       2.165   5.014  21.247  0.00  0.00    +0.000 OA
ATOM     20  O   UNL     1       1.866   4.916  18.748  0.00  0.00    +0.000 OA
BRANCH  18  25
ATOM     21  C   UNL     1       0.505  11.322  19.748  0.00  0.00    +0.000 C 
ATOM     22  C   UNL     1       0.979   9.899  19.794  0.00  0.00    +0.000 A 
ATOM     23  C   UNL     1       1.487   9.276  18.648  0.00  0.00    +0.000 A 
ATOM     24  C   UNL     1       1.928   7.953  18.701  0.00  0.00    +0.000 A 
ATOM     25  C   UNL     1       1.881   7.250  19.908  0.00  0.00    +0.000 A 
ATOM     26  C   UNL     1       1.351   7.849  21.054  0.00  0.00    +0.000 A 
ATOM     27  C   UNL     1       0.911   9.176  20.994  0.00  0.00    +0.000 A 
ENDBRANCH  18  25
ENDBRANCH   1  18
TORSDOF 4
ENDMDL
MODEL 2
REMARK VINA RESULT:      -8.5      2.618      9.238
REMARK  Name = 
REMARK  7 active torsions:
REMARK  status: ('A' for Active; 'I' for Inactive)
REMARK    1  A    between atoms: C_1  and  C_2
REMARK    2  A    between atoms: C_5  and  S_6
REMARK    3  A    between atoms: S_6  and  N_9
REMARK    4  A    between atoms: C_13  and  C_14
REMARK    5  A    between atoms: C_18  and  N_19
REMARK    6  A    between atoms: N_19  and  C_20
REMARK    7  A    between atoms: N_19  and  C_21
REMARK                            x       y       z     vdW  Elec       q    Type
REMARK                         _______ _______ _______ _____ _____    ______ ____
ROOT
ATOM      1  N   UNL     1       3.212   4.555  18.701  0.00  0.00    +0.000 N 
ATOM      2  C   UNL     1       2.650   5.733  19.232  0.00  0.00    +0.000 A 
ATOM      3  C   UNL     1       2.662   6.921  18.537  0.00  0.00    +0.000 A 
ATOM      4  C   UNL     1       2.032   8.021  19.116  0.00  0.00    +0.000 A 
ATOM      5  C   UNL     1       1.423   7.889  20.360  0.00  0.00    +0.000 A 
ATOM      6  N   UNL     1       1.468   6.700  21.011  0.00  0.00    +0.000 NA
ATOM      7  N   UNL     1       2.084   5.608  20.442  0.00  0.00    +0.000 NA
ATOM      8  H   UNL     1       2.677   3.723  18.931  0.00  0.00    +0.000 HD
ENDROOT
BRANCH   5   9
ATOM      9  C   UNL     1       0.684   8.987  21.012  0.00  0.00    +0.000 A 
ATOM     10  C   UNL     1       0.414   8.979  22.388  0.00  0.00    +0.000 A 
ATOM     11  C   UNL     1      -0.271  10.034  22.978  0.00  0.00    +0.000 A 
ATOM     12  C   UNL     1      -0.702  11.118  22.202  0.00  0.00    +0.000 A 
ATOM     13  C   UNL     1      -0.461  11.195  20.820  0.00  0.00    +0.000 A 
ATOM     14  C   UNL     1       0.241  10.106  20.265  0.00  0.00    +0.000 A 
BRANCH  13  15
ATOM     15  N   UNL     1      -0.858  12.289  20.065  0.00  0.00    +0.000 N 
ATOM     16  C   UNL     1      -0.475  13.657  20.410  0.00  0.00    +0.000 C 
ATOM     17  C   UNL     1      -1.883  12.208  19.025  0.00  0.00    +0.000 C 
ENDBRANCH  13  15
ENDBRANCH   5   9
BRANCH   1  18
ATOM     18  S   UNL     1       4.859   4.328  18.963  0.00  0.00    +0.000 S 
ATOM     19  O   UNL     1       5.066   2.981  19.468  0.00  0.00    +0.000 OA
ATOM     20  O   UNL     1       5.306   5.475  19.725  0.00  0.00    +0.000 OA
BRANCH  18  25
ATOM     21  C   UNL     1       7.300   4.771  13.415  0.00  0.00    +0.000 C 
ATOM     22  C   UNL     1       6.700   4.660  14.786  0.00  0.00    +0.000 A 
ATOM     23  C   UNL     1       5.339   4.377  14.951  0.00  0.00    +0.000 A 
ATOM     24  C   UNL     1       4.791   4.273  16.230  0.00  0.00    +0.000 A 
ATOM     25  C   UNL     1       5.607   4.433  17.354  0.00  0.00    +0.000 A 
ATOM     26  C   UNL     1       6.961   4.743  17.205  0.00  0.00    +0.000 A 
ATOM     27  C   UNL     1       7.505   4.845  15.920  0.00  0.00    +0.000 A 
ENDBRANCH  18  25
ENDBRANCH   1  18
TORSDOF 4
ENDMDL
MODEL 3
REMARK VINA RESULT:      -8.4      2.633      9.099
REMARK  Name = 
REMARK  7 active torsions:
REMARK  status: ('A' for Active; 'I' for Inactive)
REMARK    1  A    between atoms: C_1  and  C_2
REMARK    2  A    between atoms: C_5  and  S_6
REMARK    3  A    between atoms: S_6  and  N_9
REMARK    4  A    between atoms: C_13  and  C_14
REMARK    5  A    between atoms: C_18  and  N_19
REMARK    6  A    between atoms: N_19  and  C_20
REMARK    7  A    between atoms: N_19  and  C_21
REMARK                            x       y       z     vdW  Elec       q    Type
REMARK                         _______ _______ _______ _____ _____    ______ ____
ROOT
ATOM      1  N   UNL     1       3.219   4.645  18.742  0.00  0.00    +0.000 N 
ATOM      2  C   UNL     1       2.779   5.979  18.856  0.00  0.00    +0.000 A 
ATOM      3  C   UNL     1       2.815   6.849  17.789  0.00  0.00    +0.000 A 
ATOM      4  C   UNL     1       2.306   8.132  17.979  0.00  0.00    +0.000 A 
ATOM      5  C   UNL     1       1.789   8.492  19.220  0.00  0.00    +0.000 A 
ATOM      6  N   UNL     1       1.806   7.600  20.241  0.00  0.00    +0.000 NA
ATOM      7  N   UNL     1       2.302   6.330  20.060  0.00  0.00    +0.000 NA
ATOM      8  H   UNL     1       2.650   3.994  19.275  0.00  0.00    +0.000 HD
ENDROOT
BRANCH   5   9
ATOM      9  C   UNL     1       1.178   9.808  19.483  0.00  0.00    +0.000 A 
ATOM     10  C   UNL     1       1.354  10.891  18.608  0.00  0.00    +0.000 A 
ATOM     11  C   UNL     1       0.754  12.115  18.873  0.00  0.00    +0.000 A 
ATOM     12  C   UNL     1      -0.033  12.283  20.020  0.00  0.00    +0.000 A 
ATOM     13  C   UNL     1      -0.257  11.241  20.935  0.00  0.00    +0.000 A 
ATOM     14  C   UNL     1       0.367  10.016  20.625  0.00  0.00    +0.000 A 
BRANCH  13  15
ATOM     15  N   UNL     1      -1.068  11.403  22.050  0.00  0.00    +0.000 N 
ATOM     16  C   UNL     1      -1.012  10.496  23.195  0.00  0.00    +0.000 C 
ATOM     17  C   UNL     1      -2.206  12.319  22.079  0.00  0.00    +0.000 C 
ENDBRANCH  13  15
ENDBRANCH   5   9
BRANCH   1  18
ATOM     18  S   UNL     1       4.863   4.377  18.983  0.00  0.00    +0.000 S 
ATOM     19  O   UNL     1       5.040   3.036  19.518  0.00  0.00    +0.000 OA
ATOM     20  O   UNL     1       5.355   5.528  19.709  0.00  0.00    +0.000 OA
BRANCH  18  25
ATOM     21  C   UNL     1       7.218   4.602  13.385  0.00  0.00    +0.000 C 
ATOM     22  C   UNL     1       6.638   4.545  14.768  0.00  0.00    +0.000 A 
ATOM     23  C   UNL     1       5.293   4.215  14.969  0.00  0.00    +0.000 A 
ATOM     24  C   UNL     1       4.765   4.162  16.259  0.00  0.00    +0.000 A 
ATOM     25  C   UNL     1       5.586   4.421  17.360  0.00  0.00    +0.000 A 
ATOM     26  C   UNL     1       6.924   4.778  17.175  0.00  0.00    +0.000 A 
ATOM     27  C   UNL     1       7.448   4.829  15.879  0.00  0.00    +0.000 A 
ENDBRANCH  18  25
ENDBRANCH   1  18
TORSDOF 4
ENDMDL
MODEL 4
REMARK VINA RESULT:      -8.3      3.868      6.033
REMARK  Name = 
REMARK  7 active torsions:
REMARK  status: ('A' for Active; 'I' for Inactive)
REMARK    1  A    between atoms: C_1  and  C_2
REMARK    2  A    between atoms: C_5  and  S_6
REMARK    3  A    between atoms: S_6  and  N_9
REMARK    4  A    between atoms: C_13  and  C_14
REMARK    5  A    between atoms: C_18  and  N_19
REMARK    6  A    between atoms: N_19  and  C_20
REMARK    7  A    between atoms: N_19  and  C_21
REMARK                            x       y       z     vdW  Elec       q    Type
REMARK                         _______ _______ _______ _____ _____    ______ ____
ROOT
ATOM      1  N   UNL     1       0.805  11.157  19.596  0.00  0.00    +0.000 N 
ATOM      2  C   UNL     1       1.327   9.926  19.153  0.00  0.00    +0.000 A 
ATOM      3  C   UNL     1       1.905   9.786  17.911  0.00  0.00    +0.000 A 
ATOM      4  C   UNL     1       2.447   8.546  17.580  0.00  0.00    +0.000 A 
ATOM      5  C   UNL     1       2.384   7.501  18.497  0.00  0.00    +0.000 A 
ATOM      6  N   UNL     1       1.777   7.690  19.695  0.00  0.00    +0.000 NA
ATOM      7  N   UNL     1       1.246   8.914  20.030  0.00  0.00    +0.000 NA
ATOM      8  H   UNL     1       0.970  11.324  20.584  0.00  0.00    +0.000 HD
ENDROOT
BRANCH   5   9
ATOM      9  C   UNL     1       2.987   6.178  18.246  0.00  0.00    +0.000 A 
ATOM     10  C   UNL     1       2.265   4.991  18.443  0.00  0.00    +0.000 A 
ATOM     11  C   UNL     1       2.853   3.758  18.185  0.00  0.00    +0.000 A 
ATOM     12  C   UNL     1       4.176   3.689  17.728  0.00  0.00    +0.000 A 
ATOM     13  C   UNL     1       4.954   4.836  17.504  0.00  0.00    +0.000 A 
ATOM     14  C   UNL     1       4.317   6.064  17.773  0.00  0.00    +0.000 A 
BRANCH  13  15
ATOM     15  N   UNL     1       6.251   4.761  17.015  0.00  0.00    +0.000 N 
ATOM     16  C   UNL     1       6.544   4.400  15.629  0.00  0.00    +0.000 C 
ATOM     17  C   UNL     1       7.429   4.784  17.880  0.00  0.00    +0.000 C 
ENDBRANCH  13  15
ENDBRANCH   5   9
BRANCH   1  18
ATOM     18  S   UNL     1      -0.786  11.492  19.165  0.00  0.00    +0.000 S 
ATOM     19  O   UNL     1      -1.377  10.289  18.602  0.00  0.00    +0.000 OA
ATOM     20  O   UNL     1      -0.745  12.719  18.398  0.00  0.00    +0.000 OA
BRANCH  18  25
ATOM     21  C   UNL     1      -3.762  12.672  24.332  0.00  0.00    +0.000 C 
ATOM     22  C   UNL     1      -3.025  12.381  23.057  0.00  0.00    +0.000 A 
ATOM     23  C   UNL     1      -3.518  12.828  21.826  0.00  0.00    +0.000 A 
ATOM     24  C   UNL     1      -2.823  12.556  20.647  0.00  0.00    +0.000 A 
ATOM     25  C   UNL     1      -1.619  11.849  20.695  0.00  0.00    +0.000 A 
ATOM     26  C   UNL     1      -1.127  11.372  21.913  0.00  0.00    +0.000 A 
ATOM     27  C   UNL     1      -1.828  11.650  23.092  0.00  0.00    +0.000 A 
ENDBRANCH  18  25
ENDBRANCH   1  18
TORSDOF 4
ENDMDL
MODEL 5
REMARK VINA RESULT:      -8.3      2.626      9.002
REMARK  Name = 
REMARK  7 active torsions:
REMARK  status: ('A' for Active; 'I' for Inactive)
REMARK    1  A    between atoms: C_1  and  C_2
REMARK    2  A    between atoms: C_5  and  S_6
REMARK    3  A    between atoms: S_6  and  N_9
REMARK    4  A    between atoms: C_13  and  C_14
REMARK    5  A    between atoms: C_18  and  N_19
REMARK    6  A    between atoms: N_19  and  C_20
REMARK    7  A    between atoms: N_19  and  C_21
REMARK                            x       y       z     vdW  Elec       q    Type
REMARK                         _______ _______ _______ _____ _____    ______ ____
ROOT
ATOM      1  N   UNL     1       3.147   4.503  18.799  0.00  0.00    +0.000 N 
ATOM      2  C   UNL     1       2.654   5.776  19.149  0.00  0.00    +0.000 A 
ATOM      3  C   UNL     1       2.657   6.826  18.258  0.00  0.00    +0.000 A 
ATOM      4  C   UNL     1       2.096   8.032  18.672  0.00  0.00    +0.000 A 
ATOM      5  C   UNL     1       1.563   8.141  19.952  0.00  0.00    +0.000 A 
ATOM      6  N   UNL     1       1.614   7.081  20.796  0.00  0.00    +0.000 NA
ATOM      7  N   UNL     1       2.161   5.884  20.392  0.00  0.00    +0.000 NA
ATOM      8  H   UNL     1       2.604   3.745  19.201  0.00  0.00    +0.000 HD
ENDROOT
BRANCH   5   9
ATOM      9  C   UNL     1       0.899   9.363  20.443  0.00  0.00    +0.000 A 
ATOM     10  C   UNL     1       0.128   9.362  21.616  0.00  0.00    +0.000 A 
ATOM     11  C   UNL     1      -0.474  10.532  22.063  0.00  0.00    +0.000 A 
ATOM     12  C   UNL     1      -0.320  11.725  21.345  0.00  0.00    +0.000 A 
ATOM     13  C   UNL     1       0.442  11.800  20.167  0.00  0.00    +0.000 A 
ATOM     14  C   UNL     1       1.039  10.592  19.753  0.00  0.00    +0.000 A 
BRANCH  13  15
ATOM     15  N   UNL     1       0.622  12.993  19.482  0.00  0.00    +0.000 N 
ATOM     16  C   UNL     1      -0.450  13.617  18.707  0.00  0.00    +0.000 C 
ATOM     17  C   UNL     1       1.936  13.594  19.262  0.00  0.00    +0.000 C 
ENDBRANCH  13  15
ENDBRANCH   5   9
BRANCH   1  18
ATOM     18  S   UNL     1       4.800   4.260  19.003  0.00  0.00    +0.000 S 
ATOM     19  O   UNL     1       5.016   2.891  19.441  0.00  0.00    +0.000 OA
ATOM     20  O   UNL     1       5.274   5.370  19.802  0.00  0.00    +0.000 OA
BRANCH  18  25
ATOM     21  C   UNL     1       7.315   4.773  13.494  0.00  0.00    +0.000 C 
ATOM     22  C   UNL     1       6.692   4.648  14.854  0.00  0.00    +0.000 A 
ATOM     23  C   UNL     1       7.461   4.810  16.012  0.00  0.00    +0.000 A 
ATOM     24  C   UNL     1       6.871   4.695  17.272  0.00  0.00    +0.000 A 
ATOM     25  C   UNL     1       5.502   4.435  17.380  0.00  0.00    +0.000 A 
ATOM     26  C   UNL     1       4.726   4.244  16.233  0.00  0.00    +0.000 A 
ATOM     27  C   UNL     1       5.323   4.362  14.973  0.00  0.00    +0.000 A 
ENDBRANCH  18  25
ENDBRANCH   1  18
TORSDOF 4
ENDMDL
MODEL 6
REMARK VINA RESULT:      -8.2      3.869      6.305
REMARK  Name = 
REMARK  7 active torsions:
REMARK  status: ('A' for Active; 'I' for Inactive)
REMARK    1  A    between atoms: C_1  and  C_2
REMARK    2  A    between atoms: C_5  and  S_6
REMARK    3  A    between atoms: S_6  and  N_9
REMARK    4  A    between atoms: C_13  and  C_14
REMARK    5  A    between atoms: C_18  and  N_19
REMARK    6  A    between atoms: N_19  and  C_20
REMARK    7  A    between atoms: N_19  and  C_21
REMARK                            x       y       z     vdW  Elec       q    Type
REMARK                         _______ _______ _______ _____ _____    ______ ____
ROOT
ATOM      1  N   UNL     1       0.641  11.268  19.365  0.00  0.00    +0.000 N 
ATOM      2  C   UNL     1       1.205   9.991  19.179  0.00  0.00    +0.000 A 
ATOM      3  C   UNL     1       1.758   9.610  17.976  0.00  0.00    +0.000 A 
ATOM      4  C   UNL     1       2.345   8.348  17.900  0.00  0.00    +0.000 A 
ATOM      5  C   UNL     1       2.351   7.523  19.020  0.00  0.00    +0.000 A 
ATOM      6  N   UNL     1       1.766   7.942  20.170  0.00  0.00    +0.000 NA
ATOM      7  N   UNL     1       1.190   9.188  20.254  0.00  0.00    +0.000 NA
ATOM      8  H   UNL     1       0.822  11.649  20.289  0.00  0.00    +0.000 HD
ENDROOT
BRANCH   5   9
ATOM      9  C   UNL     1       3.005   6.200  19.038  0.00  0.00    +0.000 A 
ATOM     10  C   UNL     1       2.568   5.175  19.889  0.00  0.00    +0.000 A 
ATOM     11  C   UNL     1       3.193   3.934  19.875  0.00  0.00    +0.000 A 
ATOM     12  C   UNL     1       4.269   3.695  19.009  0.00  0.00    +0.000 A 
ATOM     13  C   UNL     1       4.754   4.674  18.126  0.00  0.00    +0.000 A 
ATOM     14  C   UNL     1       4.088   5.915  18.171  0.00  0.00    +0.000 A 
BRANCH  13  15
ATOM     15  N   UNL     1       5.795   4.418  17.245  0.00  0.00    +0.000 N 
ATOM     16  C   UNL     1       7.194   4.657  17.599  0.00  0.00    +0.000 C 
ATOM     17  C   UNL     1       5.586   4.137  15.826  0.00  0.00    +0.000 C 
ENDBRANCH  13  15
ENDBRANCH   5   9
BRANCH   1  18
ATOM     18  S   UNL     1      -0.974  11.443  18.927  0.00  0.00    +0.000 S 
ATOM     19  O   UNL     1      -1.470  10.158  18.462  0.00  0.00    +0.000 OA
ATOM     20  O   UNL     1      -1.034  12.607  18.068  0.00  0.00    +0.000 OA
BRANCH  18  25
ATOM     21  C   UNL     1      -3.757  12.875  24.136  0.00  0.00    +0.000 C 
ATOM     22  C   UNL     1      -3.072  12.521  22.849  0.00  0.00    +0.000 A 
ATOM     23  C   UNL     1      -1.851  11.836  22.852  0.00  0.00    +0.000 A 
ATOM     24  C   UNL     1      -1.224  11.508  21.648  0.00  0.00    +0.000 A 
ATOM     25  C   UNL     1      -1.826  11.848  20.433  0.00  0.00    +0.000 A 
ATOM     26  C   UNL     1      -3.031  12.556  20.415  0.00  0.00    +0.000 A 
ATOM     27  C   UNL     1      -3.654  12.881  21.624  0.00  0.00    +0.000 A 
ENDBRANCH  18  25
ENDBRANCH   1  18
TORSDOF 4
ENDMDL
MODEL 7
REMARK VINA RESULT:      -8.2      4.602      6.775
REMARK  Name = 
REMARK  7 active torsions:
REMARK  status: ('A' for Active; 'I' for Inactive)
REMARK    1  A    between atoms: C_1  and  C_2
REMARK    2  A    between atoms: C_5  and  S_6
REMARK    3  A    between atoms: S_6  and  N_9
REMARK    4  A    between atoms: C_13  and  C_14
REMARK    5  A    between atoms: C_18  and  N_19
REMARK    6  A    between atoms: N_19  and  C_20
REMARK    7  A    between atoms: N_19  and  C_21
REMARK                            x       y       z     vdW  Elec       q    Type
REMARK                         _______ _______ _______ _____ _____    ______ ____
ROOT
ATOM      1  N   UNL     1       0.623  11.625  19.758  0.00  0.00    +0.000 N 
ATOM      2  C   UNL     1       1.140  10.380  19.347  0.00  0.00    +0.000 A 
ATOM      3  C   UNL     1       1.718  10.207  18.109  0.00  0.00    +0.000 A 
ATOM      4  C   UNL     1       2.254   8.955  17.810  0.00  0.00    +0.000 A 
ATOM      5  C   UNL     1       2.187   7.935  18.753  0.00  0.00    +0.000 A 
ATOM      6  N   UNL     1       1.580   8.156  19.945  0.00  0.00    +0.000 NA
ATOM      7  N   UNL     1       1.054   9.391  20.250  0.00  0.00    +0.000 NA
ATOM      8  H   UNL     1       0.788  11.815  20.742  0.00  0.00    +0.000 HD
ENDROOT
BRANCH   5   9
ATOM      9  C   UNL     1       2.783   6.603  18.537  0.00  0.00    +0.000 A 
ATOM     10  C   UNL     1       3.869   6.414  17.668  0.00  0.00    +0.000 A 
ATOM     11  C   UNL     1       4.420   5.150  17.495  0.00  0.00    +0.000 A 
ATOM     12  C   UNL     1       3.896   4.050  18.185  0.00  0.00    +0.000 A 
ATOM     13  C   UNL     1       2.814   4.167  19.074  0.00  0.00    +0.000 A 
ATOM     14  C   UNL     1       2.289   5.467  19.223  0.00  0.00    +0.000 A 
BRANCH  13  15
ATOM     15  N   UNL     1       2.324   3.080  19.783  0.00  0.00    +0.000 N 
ATOM     16  C   UNL     1       2.556   2.912  21.216  0.00  0.00    +0.000 C 
ATOM     17  C   UNL     1       1.760   1.896  19.134  0.00  0.00    +0.000 C 
ENDBRANCH  13  15
ENDBRANCH   5   9
BRANCH   1  18
ATOM     18  S   UNL     1      -0.967  11.956  19.319  0.00  0.00    +0.000 S 
ATOM     19  O   UNL     1      -1.508  10.796  18.628  0.00  0.00    +0.000 OA
ATOM     20  O   UNL     1      -0.944  13.250  18.673  0.00  0.00    +0.000 OA
BRANCH  18  25
ATOM     21  C   UNL     1      -4.099  12.544  24.494  0.00  0.00    +0.000 C 
ATOM     22  C   UNL     1      -3.323  12.399  23.217  0.00  0.00    +0.000 A 
ATOM     23  C   UNL     1      -3.834  12.887  22.009  0.00  0.00    +0.000 A 
ATOM     24  C   UNL     1      -3.104  12.751  20.828  0.00  0.00    +0.000 A 
ATOM     25  C   UNL     1      -1.846  12.141  20.852  0.00  0.00    +0.000 A 
ATOM     26  C   UNL     1      -1.335  11.624  22.046  0.00  0.00    +0.000 A 
ATOM     27  C   UNL     1      -2.072  11.765  23.226  0.00  0.00    +0.000 A 
ENDBRANCH  18  25
ENDBRANCH   1  18
TORSDOF 4
ENDMDL
MODEL 8
REMARK VINA RESULT:      -8.1      4.633      6.703
REMARK  Name = 
REMARK  7 active torsions:
REMARK  status: ('A' for Active; 'I' for Inactive)
REMARK    1  A    between atoms: C_1  and  C_2
REMARK    2  A    between atoms: C_5  and  S_6
REMARK    3  A    between atoms: S_6  and  N_9
REMARK    4  A    between atoms: C_13  and  C_14
REMARK    5  A    between atoms: C_18  and  N_19
REMARK    6  A    between atoms: N_19  and  C_20
REMARK    7  A    between atoms: N_19  and  C_21
REMARK                            x       y       z     vdW  Elec       q    Type
REMARK                         _______ _______ _______ _____ _____    ______ ____
ROOT
ATOM      1  N   UNL     1       0.596  11.441  19.443  0.00  0.00    +0.000 N 
ATOM      2  C   UNL     1       1.168  10.191  19.135  0.00  0.00    +0.000 A 
ATOM      3  C   UNL     1       1.754   9.942  17.914  0.00  0.00    +0.000 A 
ATOM      4  C   UNL     1       2.346   8.695  17.718  0.00  0.00    +0.000 A 
ATOM      5  C   UNL     1       2.324   7.754  18.743  0.00  0.00    +0.000 A 
ATOM      6  N   UNL     1       1.708   8.047  19.914  0.00  0.00    +0.000 NA
ATOM      7  N   UNL     1       1.126   9.277  20.117  0.00  0.00    +0.000 NA
ATOM      8  H   UNL     1       0.752  11.720  20.407  0.00  0.00    +0.000 HD
ENDROOT
BRANCH   5   9
ATOM      9  C   UNL     1       2.981   6.437  18.635  0.00  0.00    +0.000 A 
ATOM     10  C   UNL     1       4.158   6.259  17.894  0.00  0.00    +0.000 A 
ATOM     11  C   UNL     1       4.763   5.010  17.822  0.00  0.00    +0.000 A 
ATOM     12  C   UNL     1       4.200   3.914  18.489  0.00  0.00    +0.000 A 
ATOM     13  C   UNL     1       3.027   4.022  19.254  0.00  0.00    +0.000 A 
ATOM     14  C   UNL     1       2.450   5.307  19.303  0.00  0.00    +0.000 A 
BRANCH  13  15
ATOM     15  N   UNL     1       2.496   2.940  19.943  0.00  0.00    +0.000 N 
ATOM     16  C   UNL     1       1.661   1.933  19.290  0.00  0.00    +0.000 C 
ATOM     17  C   UNL     1       2.507   2.842  21.401  0.00  0.00    +0.000 C 
ENDBRANCH  13  15
ENDBRANCH   5   9
BRANCH   1  18
ATOM     18  S   UNL     1      -1.008  11.663  18.983  0.00  0.00    +0.000 S 
ATOM     19  O   UNL     1      -1.505  10.417  18.422  0.00  0.00    +0.000 OA
ATOM     20  O   UNL     1      -1.037  12.882  18.205  0.00  0.00    +0.000 OA
BRANCH  18  25
ATOM     21  C   UNL     1      -3.891  12.773  24.217  0.00  0.00    +0.000 C 
ATOM     22  C   UNL     1      -3.181  12.498  22.923  0.00  0.00    +0.000 A 
ATOM     23  C   UNL     1      -1.952  11.828  22.909  0.00  0.00    +0.000 A 
ATOM     24  C   UNL     1      -1.302  11.574  21.700  0.00  0.00    +0.000 A 
ATOM     25  C   UNL     1      -1.888  11.974  20.496  0.00  0.00    +0.000 A 
ATOM     26  C   UNL     1      -3.101  12.668  20.496  0.00  0.00    +0.000 A 
ATOM     27  C   UNL     1      -3.748  12.918  21.711  0.00  0.00    +0.000 A 
ENDBRANCH  18  25
ENDBRANCH   1  18
TORSDOF 4
ENDMDL
MODEL 9
REMARK VINA RESULT:      -8.0      2.641      8.915
REMARK  Name = 
REMARK  7 active torsions:
REMARK  status: ('A' for Active; 'I' for Inactive)
REMARK    1  A    between atoms: C_1  and  C_2
REMARK    2  A    between atoms: C_5  and  S_6
REMARK    3  A    between atoms: S_6  and  N_9
REMARK    4  A    between atoms: C_13  and  C_14
REMARK    5  A    between atoms: C_18  and  N_19
REMARK    6  A    between atoms: N_19  and  C_20
REMARK    7  A    between atoms: N_19  and  C_21
REMARK                            x       y       z     vdW  Elec       q    Type
REMARK                         _______ _______ _______ _____ _____    ______ ____
ROOT
ATOM      1  N   UNL     1       3.188   4.665  18.761  0.00  0.00    +0.000 N 
ATOM      2  C   UNL     1       2.714   5.974  18.979  0.00  0.00    +0.000 A 
ATOM      3  C   UNL     1       2.756   6.935  17.993  0.00  0.00    +0.000 A 
ATOM      4  C   UNL     1       2.211   8.185  18.280  0.00  0.00    +0.000 A 
ATOM      5  C   UNL     1       1.655   8.423  19.533  0.00  0.00    +0.000 A 
ATOM      6  N   UNL     1       1.668   7.446  20.473  0.00  0.00    +0.000 NA
ATOM      7  N   UNL     1       2.198   6.207  20.195  0.00  0.00    +0.000 NA
ATOM      8  H   UNL     1       2.622   3.958  19.219  0.00  0.00    +0.000 HD
ENDROOT
BRANCH   5   9
ATOM      9  C   UNL     1       1.006   9.698  19.893  0.00  0.00    +0.000 A 
ATOM     10  C   UNL     1      -0.101   9.744  20.754  0.00  0.00    +0.000 A 
ATOM     11  C   UNL     1      -0.684  10.961  21.087  0.00  0.00    +0.000 A 
ATOM     12  C   UNL     1      -0.172  12.155  20.565  0.00  0.00    +0.000 A 
ATOM     13  C   UNL     1       0.937  12.184  19.703  0.00  0.00    +0.000 A 
ATOM     14  C   UNL     1       1.499  10.929  19.395  0.00  0.00    +0.000 A 
BRANCH  13  15
ATOM     15  N   UNL     1       1.462  13.374  19.219  0.00  0.00    +0.000 N 
ATOM     16  C   UNL     1       2.434  13.413  18.128  0.00  0.00    +0.000 C 
ATOM     17  C   UNL     1       1.294  14.655  19.905  0.00  0.00    +0.000 C 
ENDBRANCH  13  15
ENDBRANCH   5   9
BRANCH   1  18
ATOM     18  S   UNL     1       4.831   4.412  19.023  0.00  0.00    +0.000 S 
ATOM     19  O   UNL     1       5.017   3.063  19.532  0.00  0.00    +0.000 OA
ATOM     20  O   UNL     1       5.298   5.554  19.780  0.00  0.00    +0.000 OA
BRANCH  18  25
ATOM     21  C   UNL     1       7.270   4.785  13.468  0.00  0.00    +0.000 C 
ATOM     22  C   UNL     1       6.670   4.691  14.841  0.00  0.00    +0.000 A 
ATOM     23  C   UNL     1       5.324   4.347  15.012  0.00  0.00    +0.000 A 
ATOM     24  C   UNL     1       4.777   4.260  16.293  0.00  0.00    +0.000 A 
ATOM     25  C   UNL     1       5.579   4.499  17.412  0.00  0.00    +0.000 A 
ATOM     26  C   UNL     1       6.917   4.870  17.256  0.00  0.00    +0.000 A 
ATOM     27  C   UNL     1       7.460   4.955  15.970  0.00  0.00    +0.000 A 
ENDBRANCH  18  25
ENDBRANCH   1  18
TORSDOF 4
ENDMDL
