MODEL 1
REMARK VINA RESULT:      -8.7      0.000      0.000
REMARK  Name = 
REMARK  10 active torsions:
REMARK  status: ('A' for Active; 'I' for Inactive)
REMARK    1  A    between atoms: C_1  and  O_2
REMARK    2  A    between atoms: O_2  and  C_3
REMARK    3  A    between atoms: C_6  and  C_7
REMARK    4  A    between atoms: C_7  and  N_8
REMARK    5  A    between atoms: C_11  and  N_12
REMARK    6  A    between atoms: C_13  and  C_15
REMARK    7  A    between atoms: C_25  and  O_26
REMARK    8  A    between atoms: O_26  and  C_27
REMARK    9  A    between atoms: C_31  and  C_32
REMARK   10  A    between atoms: N_33  and  C_34
REMARK                            x       y       z     vdW  Elec       q    Type
REMARK                         _______ _______ _______ _____ _____    ______ ____
ROOT
ATOM      1  N   UNL     1       2.080   7.034  19.951  0.00  0.00    +0.000 N 
ATOM      2  C   UNL     1       1.926   7.961  18.929  0.00  0.00    +0.000 C 
ATOM      3  O   UNL     1       2.247   7.726  17.768  0.00  0.00    +0.000 OA
ATOM      4  H   UNL     1       2.055   7.399  20.902  0.00  0.00    +0.000 HD
ENDROOT
BRANCH   2   5
ATOM      5  C   UNL     1       1.424   9.315  19.279  0.00  0.00    +0.000 A 
ATOM      6  N   UNL     1       1.407  10.353  18.432  0.00  0.00    +0.000 NA
ATOM      7  O   UNL     1       0.639  11.330  19.063  0.00  0.00    +0.000 OA
ATOM      8  C   UNL     1       0.214  10.903  20.297  0.00  0.00    +0.000 A 
ATOM      9  C   UNL     1       0.801   9.683  20.528  0.00  0.00    +0.000 A 
ATOM     10  C   UNL     1       0.772   8.825  21.716  0.00  0.00    +0.000 C 
ATOM     11  C   UNL     1       0.140   9.307  22.996  0.00  0.00    +0.000 C 
ATOM     12  C   UNL     1      -0.887  10.395  23.225  0.00  0.00    +0.000 C 
ATOM     13  C   UNL     1      -1.303  11.463  22.264  0.00  0.00    +0.000 A 
ATOM     14  C   UNL     1      -2.370  12.254  22.777  0.00  0.00    +0.000 A 
ATOM     15  C   UNL     1      -2.942  13.304  22.065  0.00  0.00    +0.000 A 
ATOM     16  C   UNL     1      -2.381  13.624  20.843  0.00  0.00    +0.000 A 
ATOM     17  C   UNL     1      -1.320  12.858  20.322  0.00  0.00    +0.000 A 
ATOM     18  C   UNL     1      -0.772  11.745  20.995  0.00  0.00    +0.000 A 
BRANCH  15  19
ATOM     19  O   UNL     1      -3.999  13.895  22.683  0.00  0.00    +0.000 OA
ATOM     20  C   UNL     1      -4.511  13.249  23.840  0.00  0.00    +0.000 C 
ENDBRANCH  15  19
ENDBRANCH   2   5
BRANCH   1  24
ATOM     21  N   UNL     1       4.185   4.122  19.384  0.00  0.00    +0.000 N 
ATOM     22  C   UNL     1       4.025   5.489  19.529  0.00  0.00    +0.000 A 
ATOM     23  O   UNL     1       4.873   6.372  19.440  0.00  0.00    +0.000 OA
ATOM     24  C   UNL     1       2.571   5.746  19.804  0.00  0.00    +0.000 A 
ATOM     25  C   UNL     1       2.009   4.510  19.847  0.00  0.00    +0.000 A 
ATOM     26  C   UNL     1       0.626   4.111  20.244  0.00  0.00    +0.000 C 
ATOM     27  N   UNL     1       2.920   3.516  19.484  0.00  0.00    +0.000 N 
ATOM     28  C   UNL     1       2.822   2.084  19.721  0.00  0.00    +0.000 C 
BRANCH  21  29
ATOM     29  C   UNL     1       5.364   3.433  18.873  0.00  0.00    +0.000 C 
BRANCH  29  33
ATOM     30  C   UNL     1       6.652   4.897  15.005  0.00  0.00    +0.000 A 
ATOM     31  C   UNL     1       7.487   5.038  16.116  0.00  0.00    +0.000 A 
ATOM     32  C   UNL     1       7.088   4.558  17.371  0.00  0.00    +0.000 A 
ATOM     33  C   UNL     1       5.825   3.963  17.535  0.00  0.00    +0.000 A 
ATOM     34  C   UNL     1       4.997   3.838  16.415  0.00  0.00    +0.000 A 
ATOM     35  C   UNL     1       5.402   4.301  15.160  0.00  0.00    +0.000 A 
BRANCH  30  37
ATOM     36  C   UNL     1       7.094   4.523  12.711  0.00  0.00    +0.000 C 
ATOM     37  O   UNL     1       7.132   5.407  13.829  0.00  0.00    +0.000 OA
ENDBRANCH  30  37
ENDBRANCH  29  33
ENDBRANCH  21  29
ENDBRANCH   1  24
TORSDOF 6
ENDMDL
MODEL 2
REMARK VINA RESULT:      -8.4      2.785     11.097
REMARK  Name = 
REMARK  10 active torsions:
REMARK  status: ('A' for Active; 'I' for Inactive)
REMARK    1  A    between atoms: C_1  and  O_2
REMARK    2  A    between atoms: O_2  and  C_3
REMARK    3  A    between atoms: C_6  and  C_7
REMARK    4  A    between atoms: C_7  and  N_8
REMARK    5  A    between atoms: C_11  and  N_12
REMARK    6  A    between atoms: C_13  and  C_15
REMARK    7  A    between atoms: C_25  and  O_26
REMARK    8  A    between atoms: O_26  and  C_27
REMARK    9  A    between atoms: C_31  and  C_32
REMARK   10  A    between atoms: N_33  and  C_34
REMARK                            x       y       z     vdW  Elec       q    Type
REMARK                         _______ _______ _______ _____ _____    ______ ____
ROOT
ATOM      1  N   UNL     1       0.947  11.991  20.134  0.00  0.00    +0.000 N 
ATOM      2  C   UNL     1       0.211  11.007  19.488  0.00  0.00    +0.000 C 
ATOM      3  O   UNL     1      -1.012  10.934  19.567  0.00  0.00    +0.000 OA
ATOM      4  H   UNL     1       1.945  11.812  20.242  0.00  0.00    +0.000 HD
ENDROOT
BRANCH   2   5
ATOM      5  C   UNL     1       0.948   9.960  18.734  0.00  0.00    +0.000 A 
ATOM      6  N   UNL     1       1.411  10.116  17.486  0.00  0.00    +0.000 NA
ATOM      7  O   UNL     1       2.242   9.020  17.262  0.00  0.00    +0.000 OA
ATOM      8  C   UNL     1       2.264   8.187  18.353  0.00  0.00    +0.000 A 
ATOM      9  C   UNL     1       1.354   8.677  19.256  0.00  0.00    +0.000 A 
ATOM     10  C   UNL     1       0.905   8.134  20.542  0.00  0.00    +0.000 C 
ATOM     11  C   UNL     1       1.341   6.764  20.991  0.00  0.00    +0.000 C 
ATOM     12  C   UNL     1       2.532   5.933  20.565  0.00  0.00    +0.000 C 
ATOM     13  C   UNL     1       3.404   6.148  19.368  0.00  0.00    +0.000 A 
ATOM     14  C   UNL     1       4.495   5.235  19.334  0.00  0.00    +0.000 A 
ATOM     15  C   UNL     1       5.454   5.241  18.326  0.00  0.00    +0.000 A 
ATOM     16  C   UNL     1       5.274   6.129  17.281  0.00  0.00    +0.000 A 
ATOM     17  C   UNL     1       4.195   7.035  17.294  0.00  0.00    +0.000 A 
ATOM     18  C   UNL     1       3.252   7.094  18.342  0.00  0.00    +0.000 A 
BRANCH  15  19
ATOM     19  O   UNL     1       6.464   4.347  18.501  0.00  0.00    +0.000 OA
ATOM     20  C   UNL     1       7.624   4.521  17.701  0.00  0.00    +0.000 C 
ENDBRANCH  15  19
ENDBRANCH   2   5
BRANCH   1  24
ATOM     21  N   UNL     1      -0.695  13.942  22.728  0.00  0.00    +0.000 N 
ATOM     22  C   UNL     1      -0.231  12.735  22.233  0.00  0.00    +0.000 A 
ATOM     23  O   UNL     1      -0.325  11.617  22.731  0.00  0.00    +0.000 OA
ATOM     24  C   UNL     1       0.422  13.013  20.909  0.00  0.00    +0.000 A 
ATOM     25  C   UNL     1       0.332  14.359  20.761  0.00  0.00    +0.000 A 
ATOM     26  C   UNL     1       0.945  15.242  19.724  0.00  0.00    +0.000 C 
ATOM     27  N   UNL     1      -0.435  14.941  21.773  0.00  0.00    +0.000 N 
ATOM     28  C   UNL     1      -0.490  16.341  22.160  0.00  0.00    +0.000 C 
BRANCH  21  29
ATOM     29  C   UNL     1      -1.599  14.130  23.857  0.00  0.00    +0.000 C 
BRANCH  29  33
ATOM     30  C   UNL     1      -5.629  12.780  23.021  0.00  0.00    +0.000 A 
ATOM     31  C   UNL     1      -5.055  12.526  24.268  0.00  0.00    +0.000 A 
ATOM     32  C   UNL     1      -3.755  12.967  24.556  0.00  0.00    +0.000 A 
ATOM     33  C   UNL     1      -3.000  13.639  23.579  0.00  0.00    +0.000 A 
ATOM     34  C   UNL     1      -3.587  13.877  22.331  0.00  0.00    +0.000 A 
ATOM     35  C   UNL     1      -4.888  13.452  22.050  0.00  0.00    +0.000 A 
BRANCH  30  37
ATOM     36  C   UNL     1      -7.477  12.554  21.561  0.00  0.00    +0.000 C 
ATOM     37  O   UNL     1      -6.898  12.300  22.839  0.00  0.00    +0.000 OA
ENDBRANCH  30  37
ENDBRANCH  29  33
ENDBRANCH  21  29
ENDBRANCH   1  24
TORSDOF 6
ENDMDL
MODEL 3
REMARK VINA RESULT:      -8.2      4.305     10.324
REMARK  Name = 
REMARK  10 active torsions:
REMARK  status: ('A' for Active; 'I' for Inactive)
REMARK    1  A    between atoms: C_1  and  O_2
REMARK    2  A    between atoms: O_2  and  C_3
REMARK    3  A    between atoms: C_6  and  C_7
REMARK    4  A    between atoms: C_7  and  N_8
REMARK    5  A    between atoms: C_11  and  N_12
REMARK    6  A    between atoms: C_13  and  C_15
REMARK    7  A    between atoms: C_25  and  O_26
REMARK    8  A    between atoms: O_26  and  C_27
REMARK    9  A    between atoms: C_31  and  C_32
REMARK   10  A    between atoms: N_33  and  C_34
REMARK                            x       y       z     vdW  Elec       q    Type
REMARK                         _______ _______ _______ _____ _____    ______ ____
ROOT
ATOM      1  N   UNL     1       1.120  11.782  20.241  0.00  0.00    +0.000 N 
ATOM      2  C   UNL     1       0.578  10.635  19.678  0.00  0.00    +0.000 C 
ATOM      3  O   UNL     1      -0.296  10.669  18.816  0.00  0.00    +0.000 OA
ATOM      4  H   UNL     1       1.618  11.662  21.122  0.00  0.00    +0.000 HD
ENDROOT
BRANCH   2   5
ATOM      5  C   UNL     1       1.025   9.317  20.199  0.00  0.00    +0.000 A 
ATOM      6  N   UNL     1       0.654   8.811  21.383  0.00  0.00    +0.000 NA
ATOM      7  O   UNL     1       1.077   7.484  21.365  0.00  0.00    +0.000 OA
ATOM      8  C   UNL     1       1.728   7.189  20.192  0.00  0.00    +0.000 A 
ATOM      9  C   UNL     1       1.834   8.360  19.483  0.00  0.00    +0.000 A 
ATOM     10  C   UNL     1       2.513   8.645  18.215  0.00  0.00    +0.000 C 
ATOM     11  C   UNL     1       3.377   7.601  17.556  0.00  0.00    +0.000 C 
ATOM     12  C   UNL     1       3.381   6.096  17.718  0.00  0.00    +0.000 C 
ATOM     13  C   UNL     1       2.725   5.302  18.804  0.00  0.00    +0.000 A 
ATOM     14  C   UNL     1       2.846   3.901  18.584  0.00  0.00    +0.000 A 
ATOM     15  C   UNL     1       2.307   2.951  19.447  0.00  0.00    +0.000 A 
ATOM     16  C   UNL     1       1.702   3.412  20.602  0.00  0.00    +0.000 A 
ATOM     17  C   UNL     1       1.580   4.795  20.840  0.00  0.00    +0.000 A 
ATOM     18  C   UNL     1       2.055   5.775  19.943  0.00  0.00    +0.000 A 
BRANCH  15  19
ATOM     19  O   UNL     1       2.457   1.664  19.035  0.00  0.00    +0.000 OA
ATOM     20  C   UNL     1       3.594   1.373  18.235  0.00  0.00    +0.000 C 
ENDBRANCH  15  19
ENDBRANCH   2   5
BRANCH   1  24
ATOM     21  N   UNL     1       1.068  15.150  18.867  0.00  0.00    +0.000 N 
ATOM     22  C   UNL     1       1.634  13.890  18.961  0.00  0.00    +0.000 A 
ATOM     23  O   UNL     1       2.647  13.464  18.414  0.00  0.00    +0.000 OA
ATOM     24  C   UNL     1       0.785  13.083  19.901  0.00  0.00    +0.000 A 
ATOM     25  C   UNL     1      -0.231  13.916  20.242  0.00  0.00    +0.000 A 
ATOM     26  C   UNL     1      -1.474  13.627  21.019  0.00  0.00    +0.000 C 
ATOM     27  N   UNL     1      -0.036  15.203  19.737  0.00  0.00    +0.000 N 
ATOM     28  C   UNL     1      -1.019  16.265  19.591  0.00  0.00    +0.000 C 
BRANCH  21  29
ATOM     29  C   UNL     1       1.672  16.333  18.268  0.00  0.00    +0.000 C 
BRANCH  29  33
ATOM     30  C   UNL     1       5.286  17.580  20.305  0.00  0.00    +0.000 A 
ATOM     31  C   UNL     1       4.041  17.818  20.889  0.00  0.00    +0.000 A 
ATOM     32  C   UNL     1       2.864  17.410  20.246  0.00  0.00    +0.000 A 
ATOM     33  C   UNL     1       2.921  16.788  18.987  0.00  0.00    +0.000 A 
ATOM     34  C   UNL     1       4.176  16.565  18.410  0.00  0.00    +0.000 A 
ATOM     35  C   UNL     1       5.350  16.957  19.060  0.00  0.00    +0.000 A 
BRANCH  30  37
ATOM     36  C   UNL     1       6.903  17.114  21.968  0.00  0.00    +0.000 C 
ATOM     37  O   UNL     1       6.372  18.025  21.009  0.00  0.00    +0.000 OA
ENDBRANCH  30  37
ENDBRANCH  29  33
ENDBRANCH  21  29
ENDBRANCH   1  24
TORSDOF 6
ENDMDL
MODEL 4
REMARK VINA RESULT:      -8.0      2.327      3.209
REMARK  Name = 
REMARK  10 active torsions:
REMARK  status: ('A' for Active; 'I' for Inactive)
REMARK    1  A    between atoms: C_1  and  O_2
REMARK    2  A    between atoms: O_2  and  C_3
REMARK    3  A    between atoms: C_6  and  C_7
REMARK    4  A    between atoms: C_7  and  N_8
REMARK    5  A    between atoms: C_11  and  N_12
REMARK    6  A    between atoms: C_13  and  C_15
REMARK    7  A    between atoms: C_25  and  O_26
REMARK    8  A    between atoms: O_26  and  C_27
REMARK    9  A    between atoms: C_31  and  C_32
REMARK   10  A    between atoms: N_33  and  C_34
REMARK                            x       y       z     vdW  Elec       q    Type
REMARK                         _______ _______ _______ _____ _____    ______ ____
ROOT
ATOM      1  N   UNL     1       2.350   7.269  20.186  0.00  0.00    +0.000 N 
ATOM      2  C   UNL     1       1.135   7.647  20.740  0.00  0.00    +0.000 C 
ATOM      3  O   UNL     1       0.209   6.859  20.908  0.00  0.00    +0.000 OA
ATOM      4  H   UNL     1       2.940   8.021  19.832  0.00  0.00    +0.000 HD
ENDROOT
BRANCH   2   5
ATOM      5  C   UNL     1       0.930   9.081  21.070  0.00  0.00    +0.000 A 
ATOM      6  N   UNL     1       1.411   9.678  22.168  0.00  0.00    +0.000 NA
ATOM      7  O   UNL     1       1.216  11.042  21.963  0.00  0.00    +0.000 OA
ATOM      8  C   UNL     1       0.594  11.276  20.761  0.00  0.00    +0.000 A 
ATOM      9  C   UNL     1       0.275  10.052  20.225  0.00  0.00    +0.000 A 
ATOM     10  C   UNL     1      -0.475   9.713  19.012  0.00  0.00    +0.000 C 
ATOM     11  C   UNL     1      -1.168  10.786  18.213  0.00  0.00    +0.000 C 
ATOM     12  C   UNL     1      -0.914  12.277  18.160  0.00  0.00    +0.000 C 
ATOM     13  C   UNL     1      -0.106  13.092  19.120  0.00  0.00    +0.000 A 
ATOM     14  C   UNL     1       0.004  14.449  18.704  0.00  0.00    +0.000 A 
ATOM     15  C   UNL     1       0.716  15.404  19.423  0.00  0.00    +0.000 A 
ATOM     16  C   UNL     1       1.265  15.014  20.630  0.00  0.00    +0.000 A 
ATOM     17  C   UNL     1       1.159  13.677  21.062  0.00  0.00    +0.000 A 
ATOM     18  C   UNL     1       0.504  12.676  20.314  0.00  0.00    +0.000 A 
BRANCH  15  19
ATOM     19  O   UNL     1       0.775  16.628  18.831  0.00  0.00    +0.000 OA
ATOM     20  C   UNL     1       1.241  17.706  19.630  0.00  0.00    +0.000 C 
ENDBRANCH  15  19
ENDBRANCH   2   5
BRANCH   1  24
ATOM     21  N   UNL     1       3.413   4.343  18.304  0.00  0.00    +0.000 N 
ATOM     22  C   UNL     1       3.223   5.711  18.410  0.00  0.00    +0.000 A 
ATOM     23  O   UNL     1       3.419   6.578  17.563  0.00  0.00    +0.000 OA
ATOM     24  C   UNL     1       2.690   5.986  19.786  0.00  0.00    +0.000 A 
ATOM     25  C   UNL     1       2.658   4.770  20.389  0.00  0.00    +0.000 A 
ATOM     26  C   UNL     1       2.375   4.425  21.815  0.00  0.00    +0.000 C 
ATOM     27  N   UNL     1       2.972   3.743  19.496  0.00  0.00    +0.000 N 
ATOM     28  C   UNL     1       3.368   2.378  19.807  0.00  0.00    +0.000 C 
BRANCH  21  29
ATOM     29  C   UNL     1       3.683   3.594  17.083  0.00  0.00    +0.000 C 
BRANCH  29  33
ATOM     30  C   UNL     1       7.122   5.136  14.947  0.00  0.00    +0.000 A 
ATOM     31  C   UNL     1       5.879   5.075  14.313  0.00  0.00    +0.000 A 
ATOM     32  C   UNL     1       4.755   4.589  14.997  0.00  0.00    +0.000 A 
ATOM     33  C   UNL     1       4.874   4.122  16.317  0.00  0.00    +0.000 A 
ATOM     34  C   UNL     1       6.128   4.180  16.934  0.00  0.00    +0.000 A 
ATOM     35  C   UNL     1       7.244   4.680  16.258  0.00  0.00    +0.000 A 
BRANCH  30  37
ATOM     36  C   UNL     1       8.137   5.250  12.813  0.00  0.00    +0.000 C 
ATOM     37  O   UNL     1       8.155   5.618  14.190  0.00  0.00    +0.000 OA
ENDBRANCH  30  37
ENDBRANCH  29  33
ENDBRANCH  21  29
ENDBRANCH   1  24
TORSDOF 6
ENDMDL
MODEL 5
REMARK VINA RESULT:      -8.0      1.701      2.072
REMARK  Name = 
REMARK  10 active torsions:
REMARK  status: ('A' for Active; 'I' for Inactive)
REMARK    1  A    between atoms: C_1  and  O_2
REMARK    2  A    between atoms: O_2  and  C_3
REMARK    3  A    between atoms: C_6  and  C_7
REMARK    4  A    between atoms: C_7  and  N_8
REMARK    5  A    between atoms: C_11  and  N_12
REMARK    6  A    between atoms: C_13  and  C_15
REMARK    7  A    between atoms: C_25  and  O_26
REMARK    8  A    between atoms: O_26  and  C_27
REMARK    9  A    between atoms: C_31  and  C_32
REMARK   10  A    between atoms: N_33  and  C_34
REMARK                            x       y       z     vdW  Elec       q    Type
REMARK                         _______ _______ _______ _____ _____    ______ ____
ROOT
ATOM      1  N   UNL     1       2.165   7.424  18.456  0.00  0.00    +0.000 N 
ATOM      2  C   UNL     1       1.672   8.243  19.461  0.00  0.00    +0.000 C 
ATOM      3  O   UNL     1       1.938   8.071  20.648  0.00  0.00    +0.000 OA
ATOM      4  H   UNL     1       1.681   7.464  17.560  0.00  0.00    +0.000 HD
ENDROOT
BRANCH   2   5
ATOM      5  C   UNL     1       0.724   9.324  19.085  0.00  0.00    +0.000 A 
ATOM      6  N   UNL     1       0.288   9.541  17.837  0.00  0.00    +0.000 NA
ATOM      7  O   UNL     1      -0.755  10.456  17.965  0.00  0.00    +0.000 OA
ATOM      8  C   UNL     1      -0.937  10.816  19.278  0.00  0.00    +0.000 A 
ATOM      9  C   UNL     1       0.067  10.222  20.003  0.00  0.00    +0.000 A 
ATOM     10  C   UNL     1       0.409  10.340  21.424  0.00  0.00    +0.000 C 
ATOM     11  C   UNL     1      -0.297  11.339  22.303  0.00  0.00    +0.000 C 
ATOM     12  C   UNL     1      -1.640  12.014  22.127  0.00  0.00    +0.000 C 
ATOM     13  C   UNL     1      -2.463  12.079  20.879  0.00  0.00    +0.000 A 
ATOM     14  C   UNL     1      -3.721  12.706  21.103  0.00  0.00    +0.000 A 
ATOM     15  C   UNL     1      -4.670  12.875  20.100  0.00  0.00    +0.000 A 
ATOM     16  C   UNL     1      -4.322  12.480  18.821  0.00  0.00    +0.000 A 
ATOM     17  C   UNL     1      -3.079  11.865  18.579  0.00  0.00    +0.000 A 
ATOM     18  C   UNL     1      -2.131  11.618  19.595  0.00  0.00    +0.000 A 
BRANCH  15  19
ATOM     19  O   UNL     1      -5.841  13.425  20.518  0.00  0.00    +0.000 OA
ATOM     20  C   UNL     1      -5.758  14.653  21.227  0.00  0.00    +0.000 C 
ENDBRANCH  15  19
ENDBRANCH   2   5
BRANCH   1  24
ATOM     21  N   UNL     1       5.019   5.168  18.449  0.00  0.00    +0.000 N 
ATOM     22  C   UNL     1       4.448   6.398  18.171  0.00  0.00    +0.000 A 
ATOM     23  O   UNL     1       4.960   7.373  17.629  0.00  0.00    +0.000 OA
ATOM     24  C   UNL     1       3.022   6.350  18.638  0.00  0.00    +0.000 A 
ATOM     25  C   UNL     1       2.888   5.118  19.195  0.00  0.00    +0.000 A 
ATOM     26  C   UNL     1       1.748   4.549  19.974  0.00  0.00    +0.000 C 
ATOM     27  N   UNL     1       4.027   4.335  18.997  0.00  0.00    +0.000 N 
ATOM     28  C   UNL     1       4.411   3.122  19.701  0.00  0.00    +0.000 C 
BRANCH  21  29
ATOM     29  C   UNL     1       6.300   4.671  17.960  0.00  0.00    +0.000 C 
BRANCH  29  33
ATOM     30  C   UNL     1       6.393   4.159  13.660  0.00  0.00    +0.000 A 
ATOM     31  C   UNL     1       5.375   3.567  14.410  0.00  0.00    +0.000 A 
ATOM     32  C   UNL     1       5.326   3.734  15.801  0.00  0.00    +0.000 A 
ATOM     33  C   UNL     1       6.324   4.470  16.463  0.00  0.00    +0.000 A 
ATOM     34  C   UNL     1       7.342   5.049  15.699  0.00  0.00    +0.000 A 
ATOM     35  C   UNL     1       7.381   4.896  14.310  0.00  0.00    +0.000 A 
BRANCH  30  37
ATOM     36  C   UNL     1       5.589   2.798  11.900  0.00  0.00    +0.000 C 
ATOM     37  O   UNL     1       6.354   3.928  12.312  0.00  0.00    +0.000 OA
ENDBRANCH  30  37
ENDBRANCH  29  33
ENDBRANCH  21  29
ENDBRANCH   1  24
TORSDOF 6
ENDMDL
MODEL 6
REMARK VINA RESULT:      -8.0      3.413     11.549
REMARK  Name = 
REMARK  10 active torsions:
REMARK  status: ('A' for Active; 'I' for Inactive)
REMARK    1  A    between atoms: C_1  and  O_2
REMARK    2  A    between atoms: O_2  and  C_3
REMARK    3  A    between atoms: C_6  and  C_7
REMARK    4  A    between atoms: C_7  and  N_8
REMARK    5  A    between atoms: C_11  and  N_12
REMARK    6  A    between atoms: C_13  and  C_15
REMARK    7  A    between atoms: C_25  and  O_26
REMARK    8  A    between atoms: O_26  and  C_27
REMARK    9  A    between atoms: C_31  and  C_32
REMARK   10  A    between atoms: N_33  and  C_34
REMARK                            x       y       z     vdW  Elec       q    Type
REMARK                         _______ _______ _______ _____ _____    ______ ____
ROOT
ATOM      1  N   UNL     1       0.490  12.078  21.096  0.00  0.00    +0.000 N 
ATOM      2  C   UNL     1      -0.024  10.904  20.565  0.00  0.00    +0.000 C 
ATOM      3  O   UNL     1      -1.064  10.870  19.913  0.00  0.00    +0.000 OA
ATOM      4  H   UNL     1       1.180  11.976  21.838  0.00  0.00    +0.000 HD
ENDROOT
BRANCH   2   5
ATOM      5  C   UNL     1       0.679   9.630  20.866  0.00  0.00    +0.000 A 
ATOM      6  N   UNL     1       0.671   9.032  22.065  0.00  0.00    +0.000 NA
ATOM      7  O   UNL     1       1.219   7.768  21.850  0.00  0.00    +0.000 OA
ATOM      8  C   UNL     1       1.584   7.606  20.536  0.00  0.00    +0.000 A 
ATOM      9  C   UNL     1       1.382   8.811  19.908  0.00  0.00    +0.000 A 
ATOM     10  C   UNL     1       1.688   9.230  18.537  0.00  0.00    +0.000 C 
ATOM     11  C   UNL     1       2.468   8.329  17.615  0.00  0.00    +0.000 C 
ATOM     12  C   UNL     1       2.676   6.830  17.663  0.00  0.00    +0.000 C 
ATOM     13  C   UNL     1       2.401   5.916  18.816  0.00  0.00    +0.000 A 
ATOM     14  C   UNL     1       2.615   4.551  18.474  0.00  0.00    +0.000 A 
ATOM     15  C   UNL     1       2.415   3.507  19.372  0.00  0.00    +0.000 A 
ATOM     16  C   UNL     1       2.071   3.840  20.668  0.00  0.00    +0.000 A 
ATOM     17  C   UNL     1       1.863   5.186  21.027  0.00  0.00    +0.000 A 
ATOM     18  C   UNL     1       1.989   6.255  20.115  0.00  0.00    +0.000 A 
BRANCH  15  19
ATOM     19  O   UNL     1       2.595   2.266  18.844  0.00  0.00    +0.000 OA
ATOM     20  C   UNL     1       3.605   2.129  17.854  0.00  0.00    +0.000 C 
ENDBRANCH  15  19
ENDBRANCH   2   5
BRANCH   1  24
ATOM     21  N   UNL     1      -1.286  15.216  21.585  0.00  0.00    +0.000 N 
ATOM     22  C   UNL     1      -0.821  14.001  22.061  0.00  0.00    +0.000 A 
ATOM     23  O   UNL     1      -0.983  13.502  23.170  0.00  0.00    +0.000 OA
ATOM     24  C   UNL     1      -0.063  13.341  20.945  0.00  0.00    +0.000 A 
ATOM     25  C   UNL     1      -0.103  14.239  19.928  0.00  0.00    +0.000 A 
ATOM     26  C   UNL     1       0.611  14.218  18.616  0.00  0.00    +0.000 C 
ATOM     27  N   UNL     1      -0.926  15.325  20.230  0.00  0.00    +0.000 N 
ATOM     28  C   UNL     1      -0.970  16.623  19.574  0.00  0.00    +0.000 C 
BRANCH  21  29
ATOM     29  C   UNL     1      -2.266  16.084  22.226  0.00  0.00    +0.000 C 
BRANCH  29  33
ATOM     30  C   UNL     1      -6.174  14.250  22.582  0.00  0.00    +0.000 A 
ATOM     31  C   UNL     1      -5.565  14.815  23.705  0.00  0.00    +0.000 A 
ATOM     32  C   UNL     1      -4.306  15.422  23.601  0.00  0.00    +0.000 A 
ATOM     33  C   UNL     1      -3.623  15.436  22.373  0.00  0.00    +0.000 A 
ATOM     34  C   UNL     1      -4.242  14.858  21.259  0.00  0.00    +0.000 A 
ATOM     35  C   UNL     1      -5.505  14.268  21.359  0.00  0.00    +0.000 A 
BRANCH  30  37
ATOM     36  C   UNL     1      -7.398  12.495  23.592  0.00  0.00    +0.000 C 
ATOM     37  O   UNL     1      -7.398  13.675  22.792  0.00  0.00    +0.000 OA
ENDBRANCH  30  37
ENDBRANCH  29  33
ENDBRANCH  21  29
ENDBRANCH   1  24
TORSDOF 6
ENDMDL
MODEL 7
REMARK VINA RESULT:      -8.0      1.311      1.692
REMARK  Name = 
REMARK  10 active torsions:
REMARK  status: ('A' for Active; 'I' for Inactive)
REMARK    1  A    between atoms: C_1  and  O_2
REMARK    2  A    between atoms: O_2  and  C_3
REMARK    3  A    between atoms: C_6  and  C_7
REMARK    4  A    between atoms: C_7  and  N_8
REMARK    5  A    between atoms: C_11  and  N_12
REMARK    6  A    between atoms: C_13  and  C_15
REMARK    7  A    between atoms: C_25  and  O_26
REMARK    8  A    between atoms: O_26  and  C_27
REMARK    9  A    between atoms: C_31  and  C_32
REMARK   10  A    between atoms: N_33  and  C_34
REMARK                            x       y       z     vdW  Elec       q    Type
REMARK                         _______ _______ _______ _____ _____    ______ ____
ROOT
ATOM      1  N   UNL     1       2.539   7.186  18.320  0.00  0.00    +0.000 N 
ATOM      2  C   UNL     1       1.974   7.606  19.516  0.00  0.00    +0.000 C 
ATOM      3  O   UNL     1       1.917   6.889  20.511  0.00  0.00    +0.000 OA
ATOM      4  H   UNL     1       2.295   7.725  17.490  0.00  0.00    +0.000 HD
ENDROOT
BRANCH   2   5
ATOM      5  C   UNL     1       1.348   8.953  19.562  0.00  0.00    +0.000 A 
ATOM      6  N   UNL     1       1.235   9.767  18.504  0.00  0.00    +0.000 NA
ATOM      7  O   UNL     1       0.379  10.787  18.913  0.00  0.00    +0.000 OA
ATOM      8  C   UNL     1      -0.005  10.614  20.221  0.00  0.00    +0.000 A 
ATOM      9  C   UNL     1       0.693   9.537  20.708  0.00  0.00    +0.000 A 
ATOM     10  C   UNL     1       0.743   8.970  22.060  0.00  0.00    +0.000 C 
ATOM     11  C   UNL     1       0.068   9.671  23.211  0.00  0.00    +0.000 C 
ATOM     12  C   UNL     1      -1.055  10.685  23.210  0.00  0.00    +0.000 C 
ATOM     13  C   UNL     1      -1.568  11.465  22.041  0.00  0.00    +0.000 A 
ATOM     14  C   UNL     1      -2.704  12.252  22.385  0.00  0.00    +0.000 A 
ATOM     15  C   UNL     1      -3.371  13.057  21.466  0.00  0.00    +0.000 A 
ATOM     16  C   UNL     1      -2.842  13.142  20.192  0.00  0.00    +0.000 A 
ATOM     17  C   UNL     1      -1.714  12.377  19.836  0.00  0.00    +0.000 A 
ATOM     18  C   UNL     1      -1.065  11.499  20.731  0.00  0.00    +0.000 A 
BRANCH  15  19
ATOM     19  O   UNL     1      -4.479  13.675  21.957  0.00  0.00    +0.000 OA
ATOM     20  C   UNL     1      -4.848  13.366  23.294  0.00  0.00    +0.000 C 
ENDBRANCH  15  19
ENDBRANCH   2   5
BRANCH   1  24
ATOM     21  N   UNL     1       4.879   4.467  17.715  0.00  0.00    +0.000 N 
ATOM     22  C   UNL     1       4.615   5.798  17.991  0.00  0.00    +0.000 A 
ATOM     23  O   UNL     1       5.410   6.725  18.118  0.00  0.00    +0.000 OA
ATOM     24  C   UNL     1       3.125   5.950  18.096  0.00  0.00    +0.000 A 
ATOM     25  C   UNL     1       2.642   4.693  17.924  0.00  0.00    +0.000 A 
ATOM     26  C   UNL     1       1.247   4.183  18.084  0.00  0.00    +0.000 C 
ATOM     27  N   UNL     1       3.652   3.794  17.576  0.00  0.00    +0.000 N 
ATOM     28  C   UNL     1       3.615   2.341  17.634  0.00  0.00    +0.000 C 
BRANCH  21  29
ATOM     29  C   UNL     1       6.155   3.902  17.293  0.00  0.00    +0.000 C 
BRANCH  29  33
ATOM     30  C   UNL     1       7.033   4.688  13.125  0.00  0.00    +0.000 A 
ATOM     31  C   UNL     1       6.084   3.722  13.466  0.00  0.00    +0.000 A 
ATOM     32  C   UNL     1       5.781   3.466  14.811  0.00  0.00    +0.000 A 
ATOM     33  C   UNL     1       6.458   4.152  15.834  0.00  0.00    +0.000 A 
ATOM     34  C   UNL     1       7.413   5.110  15.476  0.00  0.00    +0.000 A 
ATOM     35  C   UNL     1       7.701   5.377  14.135  0.00  0.00    +0.000 A 
BRANCH  30  37
ATOM     36  C   UNL     1       7.840   6.101  11.408  0.00  0.00    +0.000 C 
ATOM     37  O   UNL     1       7.260   4.855  11.785  0.00  0.00    +0.000 OA
ENDBRANCH  30  37
ENDBRANCH  29  33
ENDBRANCH  21  29
ENDBRANCH   1  24
TORSDOF 6
ENDMDL
MODEL 8
REMARK VINA RESULT:      -8.0      1.034      1.133
REMARK  Name = 
REMARK  10 active torsions:
REMARK  status: ('A' for Active; 'I' for Inactive)
REMARK    1  A    between atoms: C_1  and  O_2
REMARK    2  A    between atoms: O_2  and  C_3
REMARK    3  A    between atoms: C_6  and  C_7
REMARK    4  A    between atoms: C_7  and  N_8
REMARK    5  A    between atoms: C_11  and  N_12
REMARK    6  A    between atoms: C_13  and  C_15
REMARK    7  A    between atoms: C_25  and  O_26
REMARK    8  A    between atoms: O_26  and  C_27
REMARK    9  A    between atoms: C_31  and  C_32
REMARK   10  A    between atoms: N_33  and  C_34
REMARK                            x       y       z     vdW  Elec       q    Type
REMARK                         _______ _______ _______ _____ _____    ______ ____
ROOT
ATOM      1  N   UNL     1       2.526   7.266  19.564  0.00  0.00    +0.000 N 
ATOM      2  C   UNL     1       1.654   8.034  18.807  0.00  0.00    +0.000 C 
ATOM      3  O   UNL     1       1.116   7.615  17.786  0.00  0.00    +0.000 OA
ATOM      4  H   UNL     1       3.128   7.771  20.214  0.00  0.00    +0.000 HD
ENDROOT
BRANCH   2   5
ATOM      5  C   UNL     1       1.426   9.445  19.214  0.00  0.00    +0.000 A 
ATOM      6  N   UNL     1       1.731  10.506  18.455  0.00  0.00    +0.000 NA
ATOM      7  O   UNL     1       1.132  11.595  19.086  0.00  0.00    +0.000 OA
ATOM      8  C   UNL     1       0.490  11.206  20.236  0.00  0.00    +0.000 A 
ATOM      9  C   UNL     1       0.765   9.874  20.423  0.00  0.00    +0.000 A 
ATOM     10  C   UNL     1       0.415   8.979  21.531  0.00  0.00    +0.000 C 
ATOM     11  C   UNL     1      -0.233   9.520  22.779  0.00  0.00    +0.000 C 
ATOM     12  C   UNL     1      -1.014  10.798  22.996  0.00  0.00    +0.000 C 
ATOM     13  C   UNL     1      -1.076  11.985  22.087  0.00  0.00    +0.000 A 
ATOM     14  C   UNL     1      -1.992  12.967  22.557  0.00  0.00    +0.000 A 
ATOM     15  C   UNL     1      -2.237  14.158  21.880  0.00  0.00    +0.000 A 
ATOM     16  C   UNL     1      -1.487  14.411  20.747  0.00  0.00    +0.000 A 
ATOM     17  C   UNL     1      -0.569  13.454  20.271  0.00  0.00    +0.000 A 
ATOM     18  C   UNL     1      -0.358  12.210  20.901  0.00  0.00    +0.000 A 
BRANCH  15  19
ATOM     19  O   UNL     1      -3.200  14.938  22.440  0.00  0.00    +0.000 OA
ATOM     20  C   UNL     1      -4.113  14.300  23.321  0.00  0.00    +0.000 C 
ENDBRANCH  15  19
ENDBRANCH   2   5
BRANCH   1  24
ATOM     21  N   UNL     1       3.760   4.196  18.050  0.00  0.00    +0.000 N 
ATOM     22  C   UNL     1       3.601   5.572  18.040  0.00  0.00    +0.000 A 
ATOM     23  O   UNL     1       3.948   6.375  17.180  0.00  0.00    +0.000 OA
ATOM     24  C   UNL     1       2.879   5.951  19.301  0.00  0.00    +0.000 A 
ATOM     25  C   UNL     1       2.719   4.779  19.968  0.00  0.00    +0.000 A 
ATOM     26  C   UNL     1       2.217   4.537  21.354  0.00  0.00    +0.000 C 
ATOM     27  N   UNL     1       3.128   3.687  19.199  0.00  0.00    +0.000 N 
ATOM     28  C   UNL     1       3.430   2.338  19.651  0.00  0.00    +0.000 C 
BRANCH  21  29
ATOM     29  C   UNL     1       4.183   3.360  16.933  0.00  0.00    +0.000 C 
BRANCH  29  33
ATOM     30  C   UNL     1       7.359   5.091  14.550  0.00  0.00    +0.000 A 
ATOM     31  C   UNL     1       7.501   4.998  15.937  0.00  0.00    +0.000 A 
ATOM     32  C   UNL     1       6.485   4.430  16.719  0.00  0.00    +0.000 A 
ATOM     33  C   UNL     1       5.296   3.980  16.120  0.00  0.00    +0.000 A 
ATOM     34  C   UNL     1       5.166   4.089  14.732  0.00  0.00    +0.000 A 
ATOM     35  C   UNL     1       6.185   4.640  13.951  0.00  0.00    +0.000 A 
BRANCH  30  37
ATOM     36  C   UNL     1       8.242   5.792  12.470  0.00  0.00    +0.000 C 
ATOM     37  O   UNL     1       8.404   5.669  13.881  0.00  0.00    +0.000 OA
ENDBRANCH  30  37
ENDBRANCH  29  33
ENDBRANCH  21  29
ENDBRANCH   1  24
TORSDOF 6
ENDMDL
MODEL 9
REMARK VINA RESULT:      -7.8      2.711     11.138
REMARK  Name = 
REMARK  10 active torsions:
REMARK  status: ('A' for Active; 'I' for Inactive)
REMARK    1  A    between atoms: C_1  and  O_2
REMARK    2  A    between atoms: O_2  and  C_3
REMARK    3  A    between atoms: C_6  and  C_7
REMARK    4  A    between atoms: C_7  and  N_8
REMARK    5  A    between atoms: C_11  and  N_12
REMARK    6  A    between atoms: C_13  and  C_15
REMARK    7  A    between atoms: C_25  and  O_26
REMARK    8  A    between atoms: O_26  and  C_27
REMARK    9  A    between atoms: C_31  and  C_32
REMARK   10  A    between atoms: N_33  and  C_34
REMARK                            x       y       z     vdW  Elec       q    Type
REMARK                         _______ _______ _______ _____ _____    ______ ____
ROOT
ATOM      1  N   UNL     1       0.859  11.285  20.557  0.00  0.00    +0.000 N 
ATOM      2  C   UNL     1       0.230  10.591  19.533  0.00  0.00    +0.000 C 
ATOM      3  O   UNL     1      -0.972  10.693  19.303  0.00  0.00    +0.000 OA
ATOM      4  H   UNL     1       1.771  10.936  20.847  0.00  0.00    +0.000 HD
ENDROOT
BRANCH   2   5
ATOM      5  C   UNL     1       1.037   9.631  18.736  0.00  0.00    +0.000 A 
ATOM      6  N   UNL     1       1.516   9.886  17.511  0.00  0.00    +0.000 NA
ATOM      7  O   UNL     1       2.408   8.850  17.241  0.00  0.00    +0.000 OA
ATOM      8  C   UNL     1       2.454   7.955  18.282  0.00  0.00    +0.000 A 
ATOM      9  C   UNL     1       1.500   8.342  19.191  0.00  0.00    +0.000 A 
ATOM     10  C   UNL     1       1.056   7.701  20.432  0.00  0.00    +0.000 C 
ATOM     11  C   UNL     1       1.556   6.330  20.809  0.00  0.00    +0.000 C 
ATOM     12  C   UNL     1       2.798   5.590  20.363  0.00  0.00    +0.000 C 
ATOM     13  C   UNL     1       3.680   5.922  19.201  0.00  0.00    +0.000 A 
ATOM     14  C   UNL     1       4.820   5.071  19.139  0.00  0.00    +0.000 A 
ATOM     15  C   UNL     1       5.797   5.188  18.156  0.00  0.00    +0.000 A 
ATOM     16  C   UNL     1       5.591   6.127  17.162  0.00  0.00    +0.000 A 
ATOM     17  C   UNL     1       4.465   6.972  17.202  0.00  0.00    +0.000 A 
ATOM     18  C   UNL     1       3.499   6.919  18.230  0.00  0.00    +0.000 A 
BRANCH  15  19
ATOM     19  O   UNL     1       6.850   4.339  18.302  0.00  0.00    +0.000 OA
ATOM     20  C   UNL     1       8.083   4.909  18.717  0.00  0.00    +0.000 C 
ENDBRANCH  15  19
ENDBRANCH   2   5
BRANCH   1  24
ATOM     21  N   UNL     1      -1.190  12.852  23.122  0.00  0.00    +0.000 N 
ATOM     22  C   UNL     1      -0.718  11.724  22.472  0.00  0.00    +0.000 A 
ATOM     23  O   UNL     1      -1.011  10.549  22.669  0.00  0.00    +0.000 OA
ATOM     24  C   UNL     1       0.246  12.184  21.417  0.00  0.00    +0.000 A 
ATOM     25  C   UNL     1       0.298  13.532  21.565  0.00  0.00    +0.000 A 
ATOM     26  C   UNL     1       1.203  14.525  20.913  0.00  0.00    +0.000 C 
ATOM     27  N   UNL     1      -0.638  13.985  22.499  0.00  0.00    +0.000 N 
ATOM     28  C   UNL     1      -0.674  15.271  23.176  0.00  0.00    +0.000 C 
BRANCH  21  29
ATOM     29  C   UNL     1      -2.316  12.916  24.046  0.00  0.00    +0.000 C 
BRANCH  29  33
ATOM     30  C   UNL     1      -5.985  14.091  22.066  0.00  0.00    +0.000 A 
ATOM     31  C   UNL     1      -5.594  14.731  23.245  0.00  0.00    +0.000 A 
ATOM     32  C   UNL     1      -4.403  14.369  23.889  0.00  0.00    +0.000 A 
ATOM     33  C   UNL     1      -3.606  13.330  23.378  0.00  0.00    +0.000 A 
ATOM     34  C   UNL     1      -4.017  12.692  22.202  0.00  0.00    +0.000 A 
ATOM     35  C   UNL     1      -5.195  13.066  21.550  0.00  0.00    +0.000 A 
BRANCH  30  37
ATOM     36  C   UNL     1      -7.078  15.092  20.222  0.00  0.00    +0.000 C 
ATOM     37  O   UNL     1      -7.168  14.513  21.521  0.00  0.00    +0.000 OA
ENDBRANCH  30  37
ENDBRANCH  29  33
ENDBRANCH  21  29
ENDBRANCH   1  24
TORSDOF 6
ENDMDL
