MODEL 1
REMARK VINA RESULT:      -7.9      0.000      0.000
REMARK  Name = 
REMARK  7 active torsions:
REMARK  status: ('A' for Active; 'I' for Inactive)
REMARK    1  A    between atoms: C_5  and  N_6
REMARK    2  A    between atoms: N_6  and  C_7
REMARK    3  A    between atoms: C_7  and  C_8
REMARK    4  A    between atoms: C_8  and  C_9
REMARK    5  A    between atoms: C_9  and  O_10
REMARK    6  A    between atoms: O_10  and  C_11
REMARK    7  A    between atoms: C_14  and  C_15
REMARK                            x       y       z     vdW  Elec       q    Type
REMARK                         _______ _______ _______ _____ _____    ______ ____
ROOT
ATOM      1  C   UNL     1       3.486   6.994  17.846  0.00  0.00    +0.000 A 
ATOM      2  C   UNL     1       3.062   8.251  17.422  0.00  0.00    +0.000 A 
ATOM      3  C   UNL     1       2.197   9.021  18.218  0.00  0.00    +0.000 A 
ATOM      4  C   UNL     1       1.720   8.548  19.450  0.00  0.00    +0.000 A 
ATOM      5  C   UNL     1       2.124   7.267  19.848  0.00  0.00    +0.000 A 
ATOM      6  C   UNL     1       2.995   6.500  19.055  0.00  0.00    +0.000 A 
ENDROOT
BRANCH   4   7
ATOM      7  C   UNL     1       0.851   9.388  20.297  0.00  0.00    +0.000 A 
ATOM      8  C   UNL     1       0.523   9.276  21.641  0.00  0.00    +0.000 A 
ATOM      9  C   UNL     1      -0.419  10.283  21.979  0.00  0.00    +0.000 A 
ATOM     10  C   UNL     1      -1.102  10.627  23.162  0.00  0.00    +0.000 A 
ATOM     11  C   UNL     1      -2.034  11.671  23.134  0.00  0.00    +0.000 A 
ATOM     12  C   UNL     1      -2.283  12.368  21.954  0.00  0.00    +0.000 A 
ATOM     13  C   UNL     1      -1.595  12.060  20.775  0.00  0.00    +0.000 A 
ATOM     14  C   UNL     1      -0.666  11.012  20.823  0.00  0.00    +0.000 A 
ATOM     15  N   UNL     1       0.151  10.492  19.843  0.00  0.00    +0.000 N 
ATOM     16  H   UNL     1       0.192  10.860  18.906  0.00  0.00    +0.000 HD
ENDBRANCH   4   7
BRANCH   1  17
ATOM     17  O   UNL     1       4.345   6.326  17.008  0.00  0.00    +0.000 OA
BRANCH  17  18
ATOM     18  C   UNL     1       5.622   6.944  16.832  0.00  0.00    +0.000 C 
BRANCH  18  19
ATOM     19  C   UNL     1       6.739   6.052  17.380  0.00  0.00    +0.000 C 
BRANCH  19  20
ATOM     20  C   UNL     1       6.394   4.588  17.098  0.00  0.00    +0.000 C 
BRANCH  20  21
ATOM     21  N   UNL     1       6.097   3.856  18.330  0.00  0.00    +0.000 N 
ATOM     22  H   UNL     1       6.416   4.353  19.161  0.00  0.00    +0.000 HD
BRANCH  21  27
ATOM     23 CL   UNL     1       0.442   2.098  18.879  0.00  0.00    +0.000 Cl
ATOM     24  C   UNL     1       2.078   2.610  18.730  0.00  0.00    +0.000 A 
ATOM     25  C   UNL     1       2.869   2.733  19.866  0.00  0.00    +0.000 A 
ATOM     26  C   UNL     1       4.201   3.141  19.742  0.00  0.00    +0.000 A 
ATOM     27  C   UNL     1       4.771   3.404  18.487  0.00  0.00    +0.000 A 
ATOM     28  C   UNL     1       3.935   3.323  17.363  0.00  0.00    +0.000 A 
ATOM     29  C   UNL     1       2.602   2.911  17.478  0.00  0.00    +0.000 A 
ENDBRANCH  21  27
ENDBRANCH  20  21
ENDBRANCH  19  20
ENDBRANCH  18  19
ENDBRANCH  17  18
ENDBRANCH   1  17
TORSDOF 7
ENDMDL
MODEL 2
REMARK VINA RESULT:      -7.9      0.968      1.733
REMARK  Name = 
REMARK  7 active torsions:
REMARK  status: ('A' for Active; 'I' for Inactive)
REMARK    1  A    between atoms: C_5  and  N_6
REMARK    2  A    between atoms: N_6  and  C_7
REMARK    3  A    between atoms: C_7  and  C_8
REMARK    4  A    between atoms: C_8  and  C_9
REMARK    5  A    between atoms: C_9  and  O_10
REMARK    6  A    between atoms: O_10  and  C_11
REMARK    7  A    between atoms: C_14  and  C_15
REMARK                            x       y       z     vdW  Elec       q    Type
REMARK                         _______ _______ _______ _____ _____    ______ ____
ROOT
ATOM      1  C   UNL     1       3.377   7.056  18.083  0.00  0.00    +0.000 A 
ATOM      2  C   UNL     1       2.885   6.734  19.345  0.00  0.00    +0.000 A 
ATOM      3  C   UNL     1       1.969   7.581  19.994  0.00  0.00    +0.000 A 
ATOM      4  C   UNL     1       1.536   8.779  19.406  0.00  0.00    +0.000 A 
ATOM      5  C   UNL     1       2.067   9.109  18.152  0.00  0.00    +0.000 A 
ATOM      6  C   UNL     1       2.977   8.259  17.501  0.00  0.00    +0.000 A 
ENDROOT
BRANCH   4   7
ATOM      7  C   UNL     1       0.538   9.633  20.077  0.00  0.00    +0.000 A 
ATOM      8  C   UNL     1      -0.247  10.664  19.580  0.00  0.00    +0.000 A 
ATOM      9  C   UNL     1      -0.996  11.237  20.641  0.00  0.00    +0.000 A 
ATOM     10  C   UNL     1      -1.918  12.298  20.727  0.00  0.00    +0.000 A 
ATOM     11  C   UNL     1      -2.442  12.650  21.976  0.00  0.00    +0.000 A 
ATOM     12  C   UNL     1      -2.064  11.957  23.124  0.00  0.00    +0.000 A 
ATOM     13  C   UNL     1      -1.171  10.881  23.057  0.00  0.00    +0.000 A 
ATOM     14  C   UNL     1      -0.658  10.545  21.796  0.00  0.00    +0.000 A 
ATOM     15  N   UNL     1       0.220   9.551  21.422  0.00  0.00    +0.000 N 
ATOM     16  H   UNL     1       0.602   8.879  22.069  0.00  0.00    +0.000 HD
ENDBRANCH   4   7
BRANCH   1  17
ATOM     17  O   UNL     1       4.253   6.157  17.523  0.00  0.00    +0.000 OA
BRANCH  17  18
ATOM     18  C   UNL     1       4.850   6.580  16.295  0.00  0.00    +0.000 C 
BRANCH  18  19
ATOM     19  C   UNL     1       5.664   5.445  15.667  0.00  0.00    +0.000 C 
BRANCH  19  20
ATOM     20  C   UNL     1       5.932   4.375  16.727  0.00  0.00    +0.000 C 
BRANCH  20  21
ATOM     21  N   UNL     1       4.976   3.270  16.634  0.00  0.00    +0.000 N 
ATOM     22  H   UNL     1       5.433   2.380  16.439  0.00  0.00    +0.000 HD
BRANCH  21  27
ATOM     23 CL   UNL     1       0.987   2.897  21.030  0.00  0.00    +0.000 Cl
ATOM     24  C   UNL     1       2.148   3.009  19.765  0.00  0.00    +0.000 A 
ATOM     25  C   UNL     1       3.503   3.044  20.072  0.00  0.00    +0.000 A 
ATOM     26  C   UNL     1       4.446   3.127  19.042  0.00  0.00    +0.000 A 
ATOM     27  C   UNL     1       4.055   3.146  17.694  0.00  0.00    +0.000 A 
ATOM     28  C   UNL     1       2.681   3.164  17.415  0.00  0.00    +0.000 A 
ATOM     29  C   UNL     1       1.731   3.077  18.440  0.00  0.00    +0.000 A 
ENDBRANCH  21  27
ENDBRANCH  20  21
ENDBRANCH  19  20
ENDBRANCH  18  19
ENDBRANCH  17  18
ENDBRANCH   1  17
TORSDOF 7
ENDMDL
MODEL 3
REMARK VINA RESULT:      -7.8      4.820      7.145
REMARK  Name = 
REMARK  7 active torsions:
REMARK  status: ('A' for Active; 'I' for Inactive)
REMARK    1  A    between atoms: C_5  and  N_6
REMARK    2  A    between atoms: N_6  and  C_7
REMARK    3  A    between atoms: C_7  and  C_8
REMARK    4  A    between atoms: C_8  and  C_9
REMARK    5  A    between atoms: C_9  and  O_10
REMARK    6  A    between atoms: O_10  and  C_11
REMARK    7  A    between atoms: C_14  and  C_15
REMARK                            x       y       z     vdW  Elec       q    Type
REMARK                         _______ _______ _______ _____ _____    ______ ____
ROOT
ATOM      1  C   UNL     1       7.310   5.681  17.734  0.00  0.00    +0.000 A 
ATOM      2  C   UNL     1       7.019   6.761  16.905  0.00  0.00    +0.000 A 
ATOM      3  C   UNL     1       7.487   8.050  17.216  0.00  0.00    +0.000 A 
ATOM      4  C   UNL     1       8.245   8.294  18.371  0.00  0.00    +0.000 A 
ATOM      5  C   UNL     1       8.500   7.206  19.216  0.00  0.00    +0.000 A 
ATOM      6  C   UNL     1       8.037   5.917  18.901  0.00  0.00    +0.000 A 
ENDROOT
BRANCH   4   7
ATOM      7  C   UNL     1       8.771   9.642  18.658  0.00  0.00    +0.000 A 
ATOM      8  C   UNL     1       8.809  10.783  17.868  0.00  0.00    +0.000 A 
ATOM      9  C   UNL     1       9.493  11.813  18.564  0.00  0.00    +0.000 A 
ATOM     10  C   UNL     1       9.841  13.142  18.251  0.00  0.00    +0.000 A 
ATOM     11  C   UNL     1      10.591  13.887  19.168  0.00  0.00    +0.000 A 
ATOM     12  C   UNL     1      10.988  13.327  20.381  0.00  0.00    +0.000 A 
ATOM     13  C   UNL     1      10.630  12.018  20.722  0.00  0.00    +0.000 A 
ATOM     14  C   UNL     1       9.878  11.288  19.791  0.00  0.00    +0.000 A 
ATOM     15  N   UNL     1       9.383  10.004  19.846  0.00  0.00    +0.000 N 
ATOM     16  H   UNL     1       9.495   9.403  20.647  0.00  0.00    +0.000 HD
ENDBRANCH   4   7
BRANCH   1  17
ATOM     17  O   UNL     1       6.823   4.460  17.337  0.00  0.00    +0.000 OA
BRANCH  17  18
ATOM     18  C   UNL     1       6.889   4.211  15.931  0.00  0.00    +0.000 C 
BRANCH  18  19
ATOM     19  C   UNL     1       5.486   4.040  15.342  0.00  0.00    +0.000 C 
BRANCH  19  20
ATOM     20  C   UNL     1       4.564   3.446  16.409  0.00  0.00    +0.000 C 
BRANCH  20  21
ATOM     21  N   UNL     1       3.866   4.489  17.162  0.00  0.00    +0.000 N 
ATOM     22  H   UNL     1       3.243   5.038  16.572  0.00  0.00    +0.000 HD
BRANCH  21  27
ATOM     23 CL   UNL     1       1.157   2.580  22.101  0.00  0.00    +0.000 Cl
ATOM     24  C   UNL     1       1.932   3.135  20.668  0.00  0.00    +0.000 A 
ATOM     25  C   UNL     1       1.314   4.096  19.877  0.00  0.00    +0.000 A 
ATOM     26  C   UNL     1       1.949   4.552  18.717  0.00  0.00    +0.000 A 
ATOM     27  C   UNL     1       3.217   4.081  18.345  0.00  0.00    +0.000 A 
ATOM     28  C   UNL     1       3.793   3.073  19.132  0.00  0.00    +0.000 A 
ATOM     29  C   UNL     1       3.166   2.614  20.296  0.00  0.00    +0.000 A 
ENDBRANCH  21  27
ENDBRANCH  20  21
ENDBRANCH  19  20
ENDBRANCH  18  19
ENDBRANCH  17  18
ENDBRANCH   1  17
TORSDOF 7
ENDMDL
MODEL 4
REMARK VINA RESULT:      -7.8      0.922      1.026
REMARK  Name = 
REMARK  7 active torsions:
REMARK  status: ('A' for Active; 'I' for Inactive)
REMARK    1  A    between atoms: C_5  and  N_6
REMARK    2  A    between atoms: N_6  and  C_7
REMARK    3  A    between atoms: C_7  and  C_8
REMARK    4  A    between atoms: C_8  and  C_9
REMARK    5  A    between atoms: C_9  and  O_10
REMARK    6  A    between atoms: O_10  and  C_11
REMARK    7  A    between atoms: C_14  and  C_15
REMARK                            x       y       z     vdW  Elec       q    Type
REMARK                         _______ _______ _______ _____ _____    ______ ____
ROOT
ATOM      1  C   UNL     1       2.938   6.963  18.292  0.00  0.00    +0.000 A 
ATOM      2  C   UNL     1       2.508   8.138  17.679  0.00  0.00    +0.000 A 
ATOM      3  C   UNL     1       1.702   9.055  18.375  0.00  0.00    +0.000 A 
ATOM      4  C   UNL     1       1.291   8.815  19.695  0.00  0.00    +0.000 A 
ATOM      5  C   UNL     1       1.699   7.612  20.287  0.00  0.00    +0.000 A 
ATOM      6  C   UNL     1       2.510   6.699  19.594  0.00  0.00    +0.000 A 
ENDROOT
BRANCH   4   7
ATOM      7  C   UNL     1       0.486   9.810  20.428  0.00  0.00    +0.000 A 
ATOM      8  C   UNL     1       0.190   9.909  21.781  0.00  0.00    +0.000 A 
ATOM      9  C   UNL     1      -0.695  11.000  21.988  0.00  0.00    +0.000 A 
ATOM     10  C   UNL     1      -1.328  11.545  23.122  0.00  0.00    +0.000 A 
ATOM     11  C   UNL     1      -2.212  12.619  22.962  0.00  0.00    +0.000 A 
ATOM     12  C   UNL     1      -2.461  13.150  21.699  0.00  0.00    +0.000 A 
ATOM     13  C   UNL     1      -1.821  12.641  20.563  0.00  0.00    +0.000 A 
ATOM     14  C   UNL     1      -0.940  11.566  20.744  0.00  0.00    +0.000 A 
ATOM     15  N   UNL     1      -0.175  10.870  19.833  0.00  0.00    +0.000 N 
ATOM     16  H   UNL     1      -0.143  11.096  18.852  0.00  0.00    +0.000 HD
ENDBRANCH   4   7
BRANCH   1  17
ATOM     17  O   UNL     1       3.736   6.139  17.537  0.00  0.00    +0.000 OA
BRANCH  17  18
ATOM     18  C   UNL     1       4.825   6.789  16.878  0.00  0.00    +0.000 C 
BRANCH  18  19
ATOM     19  C   UNL     1       5.601   5.801  16.003  0.00  0.00    +0.000 C 
BRANCH  19  20
ATOM     20  C   UNL     1       6.001   4.591  16.850  0.00  0.00    +0.000 C 
BRANCH  20  21
ATOM     21  N   UNL     1       5.062   3.481  16.683  0.00  0.00    +0.000 N 
ATOM     22  H   UNL     1       5.531   2.616  16.416  0.00  0.00    +0.000 HD
BRANCH  21  27
ATOM     23 CL   UNL     1       1.119   2.685  21.064  0.00  0.00    +0.000 Cl
ATOM     24  C   UNL     1       2.266   2.921  19.803  0.00  0.00    +0.000 A 
ATOM     25  C   UNL     1       3.600   3.151  20.117  0.00  0.00    +0.000 A 
ATOM     26  C   UNL     1       4.532   3.333  19.090  0.00  0.00    +0.000 A 
ATOM     27  C   UNL     1       4.157   3.261  17.741  0.00  0.00    +0.000 A 
ATOM     28  C   UNL     1       2.796   3.081  17.453  0.00  0.00    +0.000 A 
ATOM     29  C   UNL     1       1.857   2.893  18.474  0.00  0.00    +0.000 A 
ENDBRANCH  21  27
ENDBRANCH  20  21
ENDBRANCH  19  20
ENDBRANCH  18  19
ENDBRANCH  17  18
ENDBRANCH   1  17
TORSDOF 7
ENDMDL
MODEL 5
REMARK VINA RESULT:      -7.7      4.383      7.747
REMARK  Name = 
REMARK  7 active torsions:
REMARK  status: ('A' for Active; 'I' for Inactive)
REMARK    1  A    between atoms: C_5  and  N_6
REMARK    2  A    between atoms: N_6  and  C_7
REMARK    3  A    between atoms: C_7  and  C_8
REMARK    4  A    between atoms: C_8  and  C_9
REMARK    5  A    between atoms: C_9  and  O_10
REMARK    6  A    between atoms: O_10  and  C_11
REMARK    7  A    between atoms: C_14  and  C_15
REMARK                            x       y       z     vdW  Elec       q    Type
REMARK                         _______ _______ _______ _____ _____    ______ ____
ROOT
ATOM      1  C   UNL     1       6.689   5.413  17.519  0.00  0.00    +0.000 A 
ATOM      2  C   UNL     1       7.556   5.569  18.597  0.00  0.00    +0.000 A 
ATOM      3  C   UNL     1       8.143   6.817  18.870  0.00  0.00    +0.000 A 
ATOM      4  C   UNL     1       7.890   7.937  18.062  0.00  0.00    +0.000 A 
ATOM      5  C   UNL     1       7.045   7.757  16.960  0.00  0.00    +0.000 A 
ATOM      6  C   UNL     1       6.453   6.511  16.692  0.00  0.00    +0.000 A 
ENDROOT
BRANCH   4   7
ATOM      7  C   UNL     1       8.473   9.252  18.390  0.00  0.00    +0.000 A 
ATOM      8  C   UNL     1       8.483  10.438  17.669  0.00  0.00    +0.000 A 
ATOM      9  C   UNL     1       9.246  11.408  18.372  0.00  0.00    +0.000 A 
ATOM     10  C   UNL     1       9.605  12.744  18.115  0.00  0.00    +0.000 A 
ATOM     11  C   UNL     1      10.442  13.414  19.016  0.00  0.00    +0.000 A 
ATOM     12  C   UNL     1      10.912  12.770  20.158  0.00  0.00    +0.000 A 
ATOM     13  C   UNL     1      10.544  11.451  20.447  0.00  0.00    +0.000 A 
ATOM     14  C   UNL     1       9.706  10.798  19.532  0.00  0.00    +0.000 A 
ATOM     15  N   UNL     1       9.181   9.525  19.547  0.00  0.00    +0.000 N 
ATOM     16  H   UNL     1       9.336   8.872  20.300  0.00  0.00    +0.000 HD
ENDBRANCH   4   7
BRANCH   1  17
ATOM     17  O   UNL     1       6.153   4.160  17.345  0.00  0.00    +0.000 OA
BRANCH  17  18
ATOM     18  C   UNL     1       4.762   4.137  17.019  0.00  0.00    +0.000 C 
BRANCH  18  19
ATOM     19  C   UNL     1       3.907   4.026  18.285  0.00  0.00    +0.000 C 
BRANCH  19  20
ATOM     20  C   UNL     1       2.791   5.072  18.228  0.00  0.00    +0.000 C 
BRANCH  20  21
ATOM     21  N   UNL     1       3.328   6.430  18.131  0.00  0.00    +0.000 N 
ATOM     22  H   UNL     1       3.631   6.658  17.185  0.00  0.00    +0.000 HD
BRANCH  21  27
ATOM     23 CL   UNL     1      -0.149  10.637  20.493  0.00  0.00    +0.000 Cl
ATOM     24  C   UNL     1       0.854   9.422  19.800  0.00  0.00    +0.000 A 
ATOM     25  C   UNL     1       1.203   9.498  18.457  0.00  0.00    +0.000 A 
ATOM     26  C   UNL     1       2.024   8.514  17.898  0.00  0.00    +0.000 A 
ATOM     27  C   UNL     1       2.532   7.459  18.672  0.00  0.00    +0.000 A 
ATOM     28  C   UNL     1       2.121   7.378  20.010  0.00  0.00    +0.000 A 
ATOM     29  C   UNL     1       1.303   8.362  20.579  0.00  0.00    +0.000 A 
ENDBRANCH  21  27
ENDBRANCH  20  21
ENDBRANCH  19  20
ENDBRANCH  18  19
ENDBRANCH  17  18
ENDBRANCH   1  17
TORSDOF 7
ENDMDL
MODEL 6
REMARK VINA RESULT:      -7.7      3.498      8.646
REMARK  Name = 
REMARK  7 active torsions:
REMARK  status: ('A' for Active; 'I' for Inactive)
REMARK    1  A    between atoms: C_5  and  N_6
REMARK    2  A    between atoms: N_6  and  C_7
REMARK    3  A    between atoms: C_7  and  C_8
REMARK    4  A    between atoms: C_8  and  C_9
REMARK    5  A    between atoms: C_9  and  O_10
REMARK    6  A    between atoms: O_10  and  C_11
REMARK    7  A    between atoms: C_14  and  C_15
REMARK                            x       y       z     vdW  Elec       q    Type
REMARK                         _______ _______ _______ _____ _____    ______ ____
ROOT
ATOM      1  C   UNL     1       0.985  10.284  20.065  0.00  0.00    +0.000 A 
ATOM      2  C   UNL     1       1.440   9.971  18.787  0.00  0.00    +0.000 A 
ATOM      3  C   UNL     1       1.907   8.678  18.489  0.00  0.00    +0.000 A 
ATOM      4  C   UNL     1       1.947   7.672  19.466  0.00  0.00    +0.000 A 
ATOM      5  C   UNL     1       1.522   8.011  20.758  0.00  0.00    +0.000 A 
ATOM      6  C   UNL     1       1.048   9.301  21.053  0.00  0.00    +0.000 A 
ENDROOT
BRANCH   4   7
ATOM      7  C   UNL     1       2.394   6.307  19.127  0.00  0.00    +0.000 A 
ATOM      8  C   UNL     1       2.183   5.548  17.984  0.00  0.00    +0.000 A 
ATOM      9  C   UNL     1       2.747   4.258  18.168  0.00  0.00    +0.000 A 
ATOM     10  C   UNL     1       2.816   3.098  17.373  0.00  0.00    +0.000 A 
ATOM     11  C   UNL     1       3.411   1.944  17.896  0.00  0.00    +0.000 A 
ATOM     12  C   UNL     1       3.936   1.940  19.187  0.00  0.00    +0.000 A 
ATOM     13  C   UNL     1       3.903   3.091  19.983  0.00  0.00    +0.000 A 
ATOM     14  C   UNL     1       3.303   4.236  19.440  0.00  0.00    +0.000 A 
ATOM     15  N   UNL     1       3.128   5.494  19.973  0.00  0.00    +0.000 N 
ATOM     16  H   UNL     1       3.468   5.761  20.883  0.00  0.00    +0.000 HD
ENDBRANCH   4   7
BRANCH   1  17
ATOM     17  O   UNL     1       0.532  11.567  20.253  0.00  0.00    +0.000 OA
BRANCH  17  18
ATOM     18  C   UNL     1       0.806  12.469  19.178  0.00  0.00    +0.000 C 
BRANCH  18  19
ATOM     19  C   UNL     1      -0.490  13.069  18.626  0.00  0.00    +0.000 C 
BRANCH  19  20
ATOM     20  C   UNL     1      -1.593  12.927  19.677  0.00  0.00    +0.000 C 
BRANCH  20  21
ATOM     21  N   UNL     1      -2.293  11.648  19.556  0.00  0.00    +0.000 N 
ATOM     22  H   UNL     1      -3.085  11.579  20.194  0.00  0.00    +0.000 HD
BRANCH  21  27
ATOM     23 CL   UNL     1      -4.003   9.936  14.123  0.00  0.00    +0.000 Cl
ATOM     24  C   UNL     1      -3.503  10.423  15.696  0.00  0.00    +0.000 A 
ATOM     25  C   UNL     1      -2.329   9.911  16.236  0.00  0.00    +0.000 A 
ATOM     26  C   UNL     1      -1.920  10.314  17.512  0.00  0.00    +0.000 A 
ATOM     27  C   UNL     1      -2.655  11.251  18.253  0.00  0.00    +0.000 A 
ATOM     28  C   UNL     1      -3.862  11.711  17.706  0.00  0.00    +0.000 A 
ATOM     29  C   UNL     1      -4.277  11.316  16.428  0.00  0.00    +0.000 A 
ENDBRANCH  21  27
ENDBRANCH  20  21
ENDBRANCH  19  20
ENDBRANCH  18  19
ENDBRANCH  17  18
ENDBRANCH   1  17
TORSDOF 7
ENDMDL
MODEL 7
REMARK VINA RESULT:      -7.7      4.492      7.755
REMARK  Name = 
REMARK  7 active torsions:
REMARK  status: ('A' for Active; 'I' for Inactive)
REMARK    1  A    between atoms: C_5  and  N_6
REMARK    2  A    between atoms: N_6  and  C_7
REMARK    3  A    between atoms: C_7  and  C_8
REMARK    4  A    between atoms: C_8  and  C_9
REMARK    5  A    between atoms: C_9  and  O_10
REMARK    6  A    between atoms: O_10  and  C_11
REMARK    7  A    between atoms: C_14  and  C_15
REMARK                            x       y       z     vdW  Elec       q    Type
REMARK                         _______ _______ _______ _____ _____    ______ ____
ROOT
ATOM      1  C   UNL     1       6.930   5.465  17.707  0.00  0.00    +0.000 A 
ATOM      2  C   UNL     1       6.604   6.554  16.903  0.00  0.00    +0.000 A 
ATOM      3  C   UNL     1       7.142   7.825  17.165  0.00  0.00    +0.000 A 
ATOM      4  C   UNL     1       8.007   8.044  18.248  0.00  0.00    +0.000 A 
ATOM      5  C   UNL     1       8.299   6.949  19.071  0.00  0.00    +0.000 A 
ATOM      6  C   UNL     1       7.766   5.676  18.804  0.00  0.00    +0.000 A 
ENDROOT
BRANCH   4   7
ATOM      7  C   UNL     1       8.604   9.374  18.482  0.00  0.00    +0.000 A 
ATOM      8  C   UNL     1       8.589  10.519  17.698  0.00  0.00    +0.000 A 
ATOM      9  C   UNL     1       9.377  11.523  18.319  0.00  0.00    +0.000 A 
ATOM     10  C   UNL     1       9.729  12.843  17.977  0.00  0.00    +0.000 A 
ATOM     11  C   UNL     1      10.598  13.557  18.809  0.00  0.00    +0.000 A 
ATOM     12  C   UNL     1      11.108  12.976  19.968  0.00  0.00    +0.000 A 
ATOM     13  C   UNL     1      10.749  11.675  20.340  0.00  0.00    +0.000 A 
ATOM     14  C   UNL     1       9.878  10.977  19.494  0.00  0.00    +0.000 A 
ATOM     15  N   UNL     1       9.353   9.707  19.597  0.00  0.00    +0.000 N 
ATOM     16  H   UNL     1       9.534   9.096  20.378  0.00  0.00    +0.000 HD
ENDBRANCH   4   7
BRANCH   1  17
ATOM     17  O   UNL     1       6.368   4.260  17.359  0.00  0.00    +0.000 OA
BRANCH  17  18
ATOM     18  C   UNL     1       5.180   3.918  18.077  0.00  0.00    +0.000 C 
BRANCH  18  19
ATOM     19  C   UNL     1       3.932   4.236  17.249  0.00  0.00    +0.000 C 
BRANCH  19  20
ATOM     20  C   UNL     1       3.007   5.140  18.066  0.00  0.00    +0.000 C 
BRANCH  20  21
ATOM     21  N   UNL     1       3.248   6.556  17.783  0.00  0.00    +0.000 N 
ATOM     22  H   UNL     1       3.254   6.754  16.783  0.00  0.00    +0.000 HD
BRANCH  21  27
ATOM     23 CL   UNL     1      -0.038  10.604  20.645  0.00  0.00    +0.000 Cl
ATOM     24  C   UNL     1       0.918   9.430  19.826  0.00  0.00    +0.000 A 
ATOM     25  C   UNL     1       1.429   8.345  20.527  0.00  0.00    +0.000 A 
ATOM     26  C   UNL     1       2.198   7.387  19.857  0.00  0.00    +0.000 A 
ATOM     27  C   UNL     1       2.444   7.481  18.479  0.00  0.00    +0.000 A 
ATOM     28  C   UNL     1       1.961   8.613  17.808  0.00  0.00    +0.000 A 
ATOM     29  C   UNL     1       1.187   9.574  18.469  0.00  0.00    +0.000 A 
ENDBRANCH  21  27
ENDBRANCH  20  21
ENDBRANCH  19  20
ENDBRANCH  18  19
ENDBRANCH  17  18
ENDBRANCH   1  17
TORSDOF 7
ENDMDL
MODEL 8
REMARK VINA RESULT:      -7.7      1.193      1.775
REMARK  Name = 
REMARK  7 active torsions:
REMARK  status: ('A' for Active; 'I' for Inactive)
REMARK    1  A    between atoms: C_5  and  N_6
REMARK    2  A    between atoms: N_6  and  C_7
REMARK    3  A    between atoms: C_7  and  C_8
REMARK    4  A    between atoms: C_8  and  C_9
REMARK    5  A    between atoms: C_9  and  O_10
REMARK    6  A    between atoms: O_10  and  C_11
REMARK    7  A    between atoms: C_14  and  C_15
REMARK                            x       y       z     vdW  Elec       q    Type
REMARK                         _______ _______ _______ _____ _____    ______ ____
ROOT
ATOM      1  C   UNL     1       2.863   7.043  18.166  0.00  0.00    +0.000 A 
ATOM      2  C   UNL     1       2.551   8.248  17.542  0.00  0.00    +0.000 A 
ATOM      3  C   UNL     1       1.849   9.251  18.233  0.00  0.00    +0.000 A 
ATOM      4  C   UNL     1       1.426   9.068  19.558  0.00  0.00    +0.000 A 
ATOM      5  C   UNL     1       1.714   7.837  20.162  0.00  0.00    +0.000 A 
ATOM      6  C   UNL     1       2.422   6.838  19.473  0.00  0.00    +0.000 A 
ENDROOT
BRANCH   4   7
ATOM      7  C   UNL     1       0.733  10.149  20.286  0.00  0.00    +0.000 A 
ATOM      8  C   UNL     1       0.812  11.527  20.143  0.00  0.00    +0.000 A 
ATOM      9  C   UNL     1       0.010  12.149  21.136  0.00  0.00    +0.000 A 
ATOM     10  C   UNL     1      -0.266  13.487  21.474  0.00  0.00    +0.000 A 
ATOM     11  C   UNL     1      -1.078  13.760  22.581  0.00  0.00    +0.000 A 
ATOM     12  C   UNL     1      -1.615  12.721  23.339  0.00  0.00    +0.000 A 
ATOM     13  C   UNL     1      -1.375  11.384  23.003  0.00  0.00    +0.000 A 
ATOM     14  C   UNL     1      -0.560  11.132  21.891  0.00  0.00    +0.000 A 
ATOM     15  N   UNL     1      -0.157   9.943  21.326  0.00  0.00    +0.000 N 
ATOM     16  H   UNL     1      -0.454   9.041  21.665  0.00  0.00    +0.000 HD
ENDBRANCH   4   7
BRANCH   1  17
ATOM     17  O   UNL     1       3.567   6.133  17.415  0.00  0.00    +0.000 OA
BRANCH  17  18
ATOM     18  C   UNL     1       4.808   6.612  16.892  0.00  0.00    +0.000 C 
BRANCH  18  19
ATOM     19  C   UNL     1       5.430   5.586  15.939  0.00  0.00    +0.000 C 
BRANCH  19  20
ATOM     20  C   UNL     1       5.890   4.370  16.746  0.00  0.00    +0.000 C 
BRANCH  20  21
ATOM     21  N   UNL     1       4.923   3.274  16.671  0.00  0.00    +0.000 N 
ATOM     22  H   UNL     1       5.370   2.378  16.481  0.00  0.00    +0.000 HD
BRANCH  21  27
ATOM     23 CL   UNL     1       1.197   2.721  21.273  0.00  0.00    +0.000 Cl
ATOM     24  C   UNL     1       2.269   2.875  19.936  0.00  0.00    +0.000 A 
ATOM     25  C   UNL     1       1.805   2.638  18.648  0.00  0.00    +0.000 A 
ATOM     26  C   UNL     1       2.676   2.771  17.561  0.00  0.00    +0.000 A 
ATOM     27  C   UNL     1       4.009   3.170  17.739  0.00  0.00    +0.000 A 
ATOM     28  C   UNL     1       4.465   3.350  19.053  0.00  0.00    +0.000 A 
ATOM     29  C   UNL     1       3.598   3.223  20.145  0.00  0.00    +0.000 A 
ENDBRANCH  21  27
ENDBRANCH  20  21
ENDBRANCH  19  20
ENDBRANCH  18  19
ENDBRANCH  17  18
ENDBRANCH   1  17
TORSDOF 7
ENDMDL
MODEL 9
REMARK VINA RESULT:      -7.6      4.516      7.360
REMARK  Name = 
REMARK  7 active torsions:
REMARK  status: ('A' for Active; 'I' for Inactive)
REMARK    1  A    between atoms: C_5  and  N_6
REMARK    2  A    between atoms: N_6  and  C_7
REMARK    3  A    between atoms: C_7  and  C_8
REMARK    4  A    between atoms: C_8  and  C_9
REMARK    5  A    between atoms: C_9  and  O_10
REMARK    6  A    between atoms: O_10  and  C_11
REMARK    7  A    between atoms: C_14  and  C_15
REMARK                            x       y       z     vdW  Elec       q    Type
REMARK                         _______ _______ _______ _____ _____    ______ ____
ROOT
ATOM      1  C   UNL     1       7.117   5.636  17.730  0.00  0.00    +0.000 A 
ATOM      2  C   UNL     1       7.956   5.848  18.821  0.00  0.00    +0.000 A 
ATOM      3  C   UNL     1       8.477   7.127  19.085  0.00  0.00    +0.000 A 
ATOM      4  C   UNL     1       8.187   8.221  18.256  0.00  0.00    +0.000 A 
ATOM      5  C   UNL     1       7.371   7.986  17.141  0.00  0.00    +0.000 A 
ATOM      6  C   UNL     1       6.845   6.709  16.882  0.00  0.00    +0.000 A 
ENDROOT
BRANCH   4   7
ATOM      7  C   UNL     1       8.701   9.567  18.574  0.00  0.00    +0.000 A 
ATOM      8  C   UNL     1       8.714  10.729  17.815  0.00  0.00    +0.000 A 
ATOM      9  C   UNL     1       9.396  11.749  18.530  0.00  0.00    +0.000 A 
ATOM     10  C   UNL     1       9.723  13.090  18.250  0.00  0.00    +0.000 A 
ATOM     11  C   UNL     1      10.477  13.818  19.178  0.00  0.00    +0.000 A 
ATOM     12  C   UNL     1      10.897  13.229  20.369  0.00  0.00    +0.000 A 
ATOM     13  C   UNL     1      10.559  11.907  20.678  0.00  0.00    +0.000 A 
ATOM     14  C   UNL     1       9.803  11.195  19.737  0.00  0.00    +0.000 A 
ATOM     15  N   UNL     1       9.325   9.903  19.763  0.00  0.00    +0.000 N 
ATOM     16  H   UNL     1       9.455   9.281  20.545  0.00  0.00    +0.000 HD
ENDBRANCH   4   7
BRANCH   1  17
ATOM     17  O   UNL     1       6.644   4.356  17.565  0.00  0.00    +0.000 OA
BRANCH  17  18
ATOM     18  C   UNL     1       6.152   4.057  16.257  0.00  0.00    +0.000 C 
BRANCH  18  19
ATOM     19  C   UNL     1       4.635   3.851  16.279  0.00  0.00    +0.000 C 
BRANCH  19  20
ATOM     20  C   UNL     1       4.216   3.370  17.670  0.00  0.00    +0.000 C 
BRANCH  20  21
ATOM     21  N   UNL     1       2.787   3.580  17.907  0.00  0.00    +0.000 N 
ATOM     22  H   UNL     1       2.330   2.747  18.275  0.00  0.00    +0.000 HD
BRANCH  21  27
ATOM     23 CL   UNL     1       1.487   8.473  21.028  0.00  0.00    +0.000 Cl
ATOM     24  C   UNL     1       1.863   7.052  20.133  0.00  0.00    +0.000 A 
ATOM     25  C   UNL     1       1.543   5.804  20.654  0.00  0.00    +0.000 A 
ATOM     26  C   UNL     1       1.842   4.650  19.922  0.00  0.00    +0.000 A 
ATOM     27  C   UNL     1       2.435   4.724  18.652  0.00  0.00    +0.000 A 
ATOM     28  C   UNL     1       2.796   5.992  18.175  0.00  0.00    +0.000 A 
ATOM     29  C   UNL     1       2.496   7.152  18.900  0.00  0.00    +0.000 A 
ENDBRANCH  21  27
ENDBRANCH  20  21
ENDBRANCH  19  20
ENDBRANCH  18  19
ENDBRANCH  17  18
ENDBRANCH   1  17
TORSDOF 7
ENDMDL
