MODEL 1
REMARK VINA RESULT:      -7.7      0.000      0.000
REMARK  Name = 
REMARK  5 active torsions:
REMARK  status: ('A' for Active; 'I' for Inactive)
REMARK    1  A    between atoms: C_2  and  C_24
REMARK    2  A    between atoms: N_3  and  S_4
REMARK    3  A    between atoms: S_4  and  C_7
REMARK    4  A    between atoms: C_8  and  C_9
REMARK    5  A    between atoms: C_17  and  C_18
REMARK                            x       y       z     vdW  Elec       q    Type
REMARK                         _______ _______ _______ _____ _____    ______ ____
ROOT
ATOM      1  C   UNL     1       1.301   8.853  19.716  0.00  0.00    +0.000 A 
ATOM      2  C   UNL     1       1.348   9.856  18.681  0.00  0.00    +0.000 A 
ATOM      3  N   UNL     1       2.078   9.390  17.651  0.00  0.00    +0.000 NA
ATOM      4  O   UNL     1       2.497   8.133  17.983  0.00  0.00    +0.000 OA
ATOM      5  C   UNL     1       2.041   7.789  19.219  0.00  0.00    +0.000 A 
ENDROOT
BRANCH   2   6
ATOM      6  C   UNL     1       0.839  11.238  18.587  0.00  0.00    +0.000 A 
ATOM      7  C   UNL     1       1.730  12.326  18.670  0.00  0.00    +0.000 A 
ATOM      8  C   UNL     1       1.266  13.648  18.655  0.00  0.00    +0.000 A 
ATOM      9  C   UNL     1      -0.099  13.906  18.594  0.00  0.00    +0.000 A 
ATOM     10  C   UNL     1      -0.990  12.847  18.478  0.00  0.00    +0.000 A 
ATOM     11  C   UNL     1      -0.514  11.533  18.416  0.00  0.00    +0.000 A 
ENDBRANCH   2   6
BRANCH   5  12
ATOM     12  C   UNL     1       2.454   6.447  19.643  0.00  0.00    +0.000 A 
ATOM     13  C   UNL     1       1.702   5.675  20.538  0.00  0.00    +0.000 A 
ATOM     14  C   UNL     1       2.038   4.344  20.809  0.00  0.00    +0.000 A 
ATOM     15  C   UNL     1       3.176   3.783  20.243  0.00  0.00    +0.000 A 
ATOM     16  C   UNL     1       3.987   4.557  19.420  0.00  0.00    +0.000 A 
ATOM     17  C   UNL     1       3.626   5.875  19.119  0.00  0.00    +0.000 A 
ENDBRANCH   5  12
BRANCH   1  18
ATOM     18  S   UNL     1       0.614   8.925  21.289  0.00  0.00    +0.000 S 
ATOM     19  O   UNL     1       1.724   8.996  22.212  0.00  0.00    +0.000 OA
ATOM     20  O   UNL     1      -0.333   7.857  21.446  0.00  0.00    +0.000 OA
BRANCH  18  23
ATOM     21  O   UNL     1      -0.590  10.124  23.716  0.00  0.00    +0.000 OA
ATOM     22  C   UNL     1      -0.651  10.812  22.712  0.00  0.00    +0.000 C 
ATOM     23  N   UNL     1      -0.222  10.349  21.463  0.00  0.00    +0.000 N 
ATOM     24  H   UNL     1      -0.081  11.003  20.701  0.00  0.00    +0.000 HD
BRANCH  22  25
ATOM     25  C   UNL     1      -1.219  12.139  22.730  0.00  0.00    +0.000 A 
ATOM     26  C   UNL     1      -0.564  13.293  22.322  0.00  0.00    +0.000 A 
ATOM     27  C   UNL     1      -1.338  14.465  22.542  0.00  0.00    +0.000 A 
ATOM     28  C   UNL     1      -2.552  14.146  23.092  0.00  0.00    +0.000 A 
ATOM     29 CL   UNL     1      -3.783  15.250  23.556  0.00  0.00    +0.000 Cl
ATOM     30  S   UNL     1      -2.786  12.488  23.321  0.00  0.00    +0.000 S 
ENDBRANCH  22  25
ENDBRANCH  18  23
ENDBRANCH   1  18
TORSDOF 5
ENDMDL
MODEL 2
REMARK VINA RESULT:      -7.6      0.384      5.360
REMARK  Name = 
REMARK  5 active torsions:
REMARK  status: ('A' for Active; 'I' for Inactive)
REMARK    1  A    between atoms: C_2  and  C_24
REMARK    2  A    between atoms: N_3  and  S_4
REMARK    3  A    between atoms: S_4  and  C_7
REMARK    4  A    between atoms: C_8  and  C_9
REMARK    5  A    between atoms: C_17  and  C_18
REMARK                            x       y       z     vdW  Elec       q    Type
REMARK                         _______ _______ _______ _____ _____    ______ ____
ROOT
ATOM      1  C   UNL     1       1.422   8.800  19.734  0.00  0.00    +0.000 A 
ATOM      2  C   UNL     1       2.144   7.716  19.117  0.00  0.00    +0.000 A 
ATOM      3  N   UNL     1       2.460   8.061  17.855  0.00  0.00    +0.000 NA
ATOM      4  O   UNL     1       1.972   9.319  17.642  0.00  0.00    +0.000 OA
ATOM      5  C   UNL     1       1.345   9.783  18.758  0.00  0.00    +0.000 A 
ENDROOT
BRANCH   2   6
ATOM      6  C   UNL     1       2.507   6.357  19.563  0.00  0.00    +0.000 A 
ATOM      7  C   UNL     1       3.674   5.739  19.073  0.00  0.00    +0.000 A 
ATOM      8  C   UNL     1       4.004   4.424  19.426  0.00  0.00    +0.000 A 
ATOM      9  C   UNL     1       3.154   3.689  20.245  0.00  0.00    +0.000 A 
ATOM     10  C   UNL     1       2.016   4.292  20.765  0.00  0.00    +0.000 A 
ATOM     11  C   UNL     1       1.734   5.630  20.470  0.00  0.00    +0.000 A 
ENDBRANCH   2   6
BRANCH   5  12
ATOM     12  C   UNL     1       0.794  11.134  18.601  0.00  0.00    +0.000 A 
ATOM     13  C   UNL     1      -0.562  11.370  18.342  0.00  0.00    +0.000 A 
ATOM     14  C   UNL     1      -1.088  12.666  18.347  0.00  0.00    +0.000 A 
ATOM     15  C   UNL     1      -0.250  13.758  18.541  0.00  0.00    +0.000 A 
ATOM     16  C   UNL     1       1.115  13.554  18.713  0.00  0.00    +0.000 A 
ATOM     17  C   UNL     1       1.631  12.254  18.748  0.00  0.00    +0.000 A 
ENDBRANCH   5  12
BRANCH   1  18
ATOM     18  S   UNL     1       0.678   8.889  21.280  0.00  0.00    +0.000 S 
ATOM     19  O   UNL     1       1.755   8.946  22.244  0.00  0.00    +0.000 OA
ATOM     20  O   UNL     1      -0.292   7.837  21.405  0.00  0.00    +0.000 OA
BRANCH  18  23
ATOM     21  O   UNL     1      -0.577  10.125  23.663  0.00  0.00    +0.000 OA
ATOM     22  C   UNL     1      -0.599  10.806  22.653  0.00  0.00    +0.000 C 
ATOM     23  N   UNL     1      -0.140  10.326  21.420  0.00  0.00    +0.000 N 
ATOM     24  H   UNL     1       0.032  10.972  20.657  0.00  0.00    +0.000 HD
BRANCH  22  25
ATOM     25  C   UNL     1      -1.146  12.142  22.644  0.00  0.00    +0.000 A 
ATOM     26  C   UNL     1      -0.463  13.282  22.245  0.00  0.00    +0.000 A 
ATOM     27  C   UNL     1      -1.224  14.467  22.435  0.00  0.00    +0.000 A 
ATOM     28  C   UNL     1      -2.458  14.172  22.953  0.00  0.00    +0.000 A 
ATOM     29 CL   UNL     1      -3.684  15.298  23.374  0.00  0.00    +0.000 Cl
ATOM     30  S   UNL     1      -2.723  12.519  23.189  0.00  0.00    +0.000 S 
ENDBRANCH  22  25
ENDBRANCH  18  23
ENDBRANCH   1  18
TORSDOF 5
ENDMDL
MODEL 3
REMARK VINA RESULT:      -7.4      0.745      1.170
REMARK  Name = 
REMARK  5 active torsions:
REMARK  status: ('A' for Active; 'I' for Inactive)
REMARK    1  A    between atoms: C_2  and  C_24
REMARK    2  A    between atoms: N_3  and  S_4
REMARK    3  A    between atoms: S_4  and  C_7
REMARK    4  A    between atoms: C_8  and  C_9
REMARK    5  A    between atoms: C_17  and  C_18
REMARK                            x       y       z     vdW  Elec       q    Type
REMARK                         _______ _______ _______ _____ _____    ______ ____
ROOT
ATOM      1  C   UNL     1       1.260   9.345  19.669  0.00  0.00    +0.000 A 
ATOM      2  C   UNL     1       1.461  10.461  18.778  0.00  0.00    +0.000 A 
ATOM      3  N   UNL     1       2.139  10.040  17.694  0.00  0.00    +0.000 NA
ATOM      4  O   UNL     1       2.377   8.705  17.854  0.00  0.00    +0.000 OA
ATOM      5  C   UNL     1       1.857   8.265  19.033  0.00  0.00    +0.000 A 
ENDROOT
BRANCH   2   6
ATOM      6  C   UNL     1       1.147  11.899  18.871  0.00  0.00    +0.000 A 
ATOM      7  C   UNL     1      -0.139  12.366  18.533  0.00  0.00    +0.000 A 
ATOM      8  C   UNL     1      -0.442  13.734  18.544  0.00  0.00    +0.000 A 
ATOM      9  C   UNL     1       0.543  14.663  18.858  0.00  0.00    +0.000 A 
ATOM     10  C   UNL     1       1.807  14.220  19.227  0.00  0.00    +0.000 A 
ATOM     11  C   UNL     1       2.080  12.850  19.288  0.00  0.00    +0.000 A 
ENDBRANCH   2   6
BRANCH   5  12
ATOM     12  C   UNL     1       2.076   6.835  19.273  0.00  0.00    +0.000 A 
ATOM     13  C   UNL     1       2.055   6.273  20.556  0.00  0.00    +0.000 A 
ATOM     14  C   UNL     1       2.116   4.888  20.744  0.00  0.00    +0.000 A 
ATOM     15  C   UNL     1       2.273   4.043  19.652  0.00  0.00    +0.000 A 
ATOM     16  C   UNL     1       2.385   4.583  18.375  0.00  0.00    +0.000 A 
ATOM     17  C   UNL     1       2.283   5.965  18.188  0.00  0.00    +0.000 A 
ENDBRANCH   5  12
BRANCH   1  18
ATOM     18  S   UNL     1       0.563   9.300  21.238  0.00  0.00    +0.000 S 
ATOM     19  O   UNL     1       1.664   9.366  22.173  0.00  0.00    +0.000 OA
ATOM     20  O   UNL     1      -0.340   8.187  21.329  0.00  0.00    +0.000 OA
BRANCH  18  23
ATOM     21  O   UNL     1      -0.769  10.272  23.701  0.00  0.00    +0.000 OA
ATOM     22  C   UNL     1      -0.822  11.030  22.749  0.00  0.00    +0.000 C 
ATOM     23  N   UNL     1      -0.333  10.676  21.485  0.00  0.00    +0.000 N 
ATOM     24  H   UNL     1      -0.192  11.390  20.778  0.00  0.00    +0.000 HD
BRANCH  22  25
ATOM     25  C   UNL     1      -1.441  12.331  22.842  0.00  0.00    +0.000 A 
ATOM     26  C   UNL     1      -0.820  13.534  22.537  0.00  0.00    +0.000 A 
ATOM     27  C   UNL     1      -1.644  14.658  22.815  0.00  0.00    +0.000 A 
ATOM     28  C   UNL     1      -2.860  14.257  23.304  0.00  0.00    +0.000 A 
ATOM     29 CL   UNL     1      -4.145  15.279  23.807  0.00  0.00    +0.000 Cl
ATOM     30  S   UNL     1      -3.036  12.579  23.408  0.00  0.00    +0.000 S 
ENDBRANCH  22  25
ENDBRANCH  18  23
ENDBRANCH   1  18
TORSDOF 5
ENDMDL
MODEL 4
REMARK VINA RESULT:      -7.3      0.759      5.429
REMARK  Name = 
REMARK  5 active torsions:
REMARK  status: ('A' for Active; 'I' for Inactive)
REMARK    1  A    between atoms: C_2  and  C_24
REMARK    2  A    between atoms: N_3  and  S_4
REMARK    3  A    between atoms: S_4  and  C_7
REMARK    4  A    between atoms: C_8  and  C_9
REMARK    5  A    between atoms: C_17  and  C_18
REMARK                            x       y       z     vdW  Elec       q    Type
REMARK                         _______ _______ _______ _____ _____    ______ ____
ROOT
ATOM      1  C   UNL     1       1.401   9.097  19.568  0.00  0.00    +0.000 A 
ATOM      2  C   UNL     1       2.006   8.065  18.763  0.00  0.00    +0.000 A 
ATOM      3  N   UNL     1       2.359   8.587  17.574  0.00  0.00    +0.000 NA
ATOM      4  O   UNL     1       2.008   9.906  17.587  0.00  0.00    +0.000 OA
ATOM      5  C   UNL     1       1.431  10.235  18.776  0.00  0.00    +0.000 A 
ENDROOT
BRANCH   2   6
ATOM      6  C   UNL     1       2.222   6.619  18.965  0.00  0.00    +0.000 A 
ATOM      7  C   UNL     1       2.319   6.094  20.269  0.00  0.00    +0.000 A 
ATOM      8  C   UNL     1       2.594   4.738  20.488  0.00  0.00    +0.000 A 
ATOM      9  C   UNL     1       2.814   3.889  19.409  0.00  0.00    +0.000 A 
ATOM     10  C   UNL     1       2.689   4.381  18.116  0.00  0.00    +0.000 A 
ATOM     11  C   UNL     1       2.339   5.719  17.906  0.00  0.00    +0.000 A 
ENDBRANCH   2   6
BRANCH   5  12
ATOM     12  C   UNL     1       1.027  11.643  18.861  0.00  0.00    +0.000 A 
ATOM     13  C   UNL     1       1.923  12.665  19.197  0.00  0.00    +0.000 A 
ATOM     14  C   UNL     1       1.550  14.012  19.125  0.00  0.00    +0.000 A 
ATOM     15  C   UNL     1       0.247  14.356  18.784  0.00  0.00    +0.000 A 
ATOM     16  C   UNL     1      -0.685  13.356  18.531  0.00  0.00    +0.000 A 
ATOM     17  C   UNL     1      -0.297  12.012  18.565  0.00  0.00    +0.000 A 
ENDBRANCH   5  12
BRANCH   1  18
ATOM     18  S   UNL     1       0.668   8.996  21.119  0.00  0.00    +0.000 S 
ATOM     19  O   UNL     1       1.746   9.064  22.081  0.00  0.00    +0.000 OA
ATOM     20  O   UNL     1      -0.210   7.861  21.160  0.00  0.00    +0.000 OA
BRANCH  18  23
ATOM     21  O   UNL     1      -0.287  10.171  23.666  0.00  0.00    +0.000 OA
ATOM     22  C   UNL     1      -0.555  10.813  22.666  0.00  0.00    +0.000 C 
ATOM     23  N   UNL     1      -0.265  10.344  21.379  0.00  0.00    +0.000 N 
ATOM     24  H   UNL     1      -0.298  10.979  20.589  0.00  0.00    +0.000 HD
BRANCH  22  25
ATOM     25  C   UNL     1      -1.238  12.083  22.734  0.00  0.00    +0.000 A 
ATOM     26  C   UNL     1      -0.690  13.304  22.369  0.00  0.00    +0.000 A 
ATOM     27  C   UNL     1      -1.563  14.394  22.634  0.00  0.00    +0.000 A 
ATOM     28  C   UNL     1      -2.742  13.949  23.173  0.00  0.00    +0.000 A 
ATOM     29 CL   UNL     1      -4.064  14.922  23.679  0.00  0.00    +0.000 Cl
ATOM     30  S   UNL     1      -2.827  12.269  23.339  0.00  0.00    +0.000 S 
ENDBRANCH  22  25
ENDBRANCH  18  23
ENDBRANCH   1  18
TORSDOF 5
ENDMDL
MODEL 5
REMARK VINA RESULT:      -7.3      2.991      6.534
REMARK  Name = 
REMARK  5 active torsions:
REMARK  status: ('A' for Active; 'I' for Inactive)
REMARK    1  A    between atoms: C_2  and  C_24
REMARK    2  A    between atoms: N_3  and  S_4
REMARK    3  A    between atoms: S_4  and  C_7
REMARK    4  A    between atoms: C_8  and  C_9
REMARK    5  A    between atoms: C_17  and  C_18
REMARK                            x       y       z     vdW  Elec       q    Type
REMARK                         _______ _______ _______ _____ _____    ______ ____
ROOT
ATOM      1  C   UNL     1       0.182  10.170  20.515  0.00  0.00    +0.000 A 
ATOM      2  C   UNL     1       1.064   9.058  20.768  0.00  0.00    +0.000 A 
ATOM      3  N   UNL     1       1.319   8.992  22.088  0.00  0.00    +0.000 NA
ATOM      4  O   UNL     1       0.635  10.011  22.687  0.00  0.00    +0.000 OA
ATOM      5  C   UNL     1      -0.055  10.731  21.762  0.00  0.00    +0.000 A 
ENDROOT
BRANCH   2   6
ATOM      6  C   UNL     1       1.754   8.093  19.891  0.00  0.00    +0.000 A 
ATOM      7  C   UNL     1       2.298   8.518  18.662  0.00  0.00    +0.000 A 
ATOM      8  C   UNL     1       2.895   7.609  17.778  0.00  0.00    +0.000 A 
ATOM      9  C   UNL     1       2.926   6.254  18.089  0.00  0.00    +0.000 A 
ATOM     10  C   UNL     1       2.426   5.821  19.310  0.00  0.00    +0.000 A 
ATOM     11  C   UNL     1       1.901   6.745  20.220  0.00  0.00    +0.000 A 
ENDBRANCH   2   6
BRANCH   5  12
ATOM     12  C   UNL     1      -0.815  11.847  22.336  0.00  0.00    +0.000 A 
ATOM     13  C   UNL     1      -0.424  13.183  22.184  0.00  0.00    +0.000 A 
ATOM     14  C   UNL     1      -1.244  14.233  22.610  0.00  0.00    +0.000 A 
ATOM     15  C   UNL     1      -2.441  13.962  23.264  0.00  0.00    +0.000 A 
ATOM     16  C   UNL     1      -2.809  12.643  23.504  0.00  0.00    +0.000 A 
ATOM     17  C   UNL     1      -2.005  11.596  23.040  0.00  0.00    +0.000 A 
ENDBRANCH   5  12
BRANCH   1  18
ATOM     18  S   UNL     1      -0.393  10.802  19.025  0.00  0.00    +0.000 S 
ATOM     19  O   UNL     1      -0.363   9.706  18.082  0.00  0.00    +0.000 OA
ATOM     20  O   UNL     1       0.333  11.998  18.701  0.00  0.00    +0.000 OA
BRANCH  18  23
ATOM     21  O   UNL     1      -2.369  11.538  16.942  0.00  0.00    +0.000 OA
ATOM     22  C   UNL     1      -2.812  11.464  18.075  0.00  0.00    +0.000 C 
ATOM     23  N   UNL     1      -1.990  11.228  19.184  0.00  0.00    +0.000 N 
ATOM     24  H   UNL     1      -2.401  10.958  20.071  0.00  0.00    +0.000 HD
BRANCH  22  25
ATOM     25  C   UNL     1      -4.212  11.664  18.361  0.00  0.00    +0.000 A 
ATOM     26  C   UNL     1      -5.260  11.264  17.544  0.00  0.00    +0.000 A 
ATOM     27  C   UNL     1      -6.526  11.680  18.038  0.00  0.00    +0.000 A 
ATOM     28  C   UNL     1      -6.384  12.363  19.218  0.00  0.00    +0.000 A 
ATOM     29 CL   UNL     1      -7.643  13.077  20.142  0.00  0.00    +0.000 Cl
ATOM     30  S   UNL     1      -4.783  12.489  19.747  0.00  0.00    +0.000 S 
ENDBRANCH  22  25
ENDBRANCH  18  23
ENDBRANCH   1  18
TORSDOF 5
ENDMDL
MODEL 6
REMARK VINA RESULT:      -7.3      3.123      4.869
REMARK  Name = 
REMARK  5 active torsions:
REMARK  status: ('A' for Active; 'I' for Inactive)
REMARK    1  A    between atoms: C_2  and  C_24
REMARK    2  A    between atoms: N_3  and  S_4
REMARK    3  A    between atoms: S_4  and  C_7
REMARK    4  A    between atoms: C_8  and  C_9
REMARK    5  A    between atoms: C_17  and  C_18
REMARK                            x       y       z     vdW  Elec       q    Type
REMARK                         _______ _______ _______ _____ _____    ______ ____
ROOT
ATOM      1  C   UNL     1      -0.110  10.684  20.604  0.00  0.00    +0.000 A 
ATOM      2  C   UNL     1      -0.330  11.107  21.965  0.00  0.00    +0.000 A 
ATOM      3  N   UNL     1       0.398  10.330  22.788  0.00  0.00    +0.000 NA
ATOM      4  O   UNL     1       1.074   9.433  22.012  0.00  0.00    +0.000 OA
ATOM      5  C   UNL     1       0.784   9.627  20.696  0.00  0.00    +0.000 A 
ENDROOT
BRANCH   2   6
ATOM      6  C   UNL     1      -1.210  12.118  22.581  0.00  0.00    +0.000 A 
ATOM      7  C   UNL     1      -2.410  11.725  23.206  0.00  0.00    +0.000 A 
ATOM      8  C   UNL     1      -3.297  12.671  23.736  0.00  0.00    +0.000 A 
ATOM      9  C   UNL     1      -3.020  14.028  23.617  0.00  0.00    +0.000 A 
ATOM     10  C   UNL     1      -1.827  14.434  23.035  0.00  0.00    +0.000 A 
ATOM     11  C   UNL     1      -0.910  13.481  22.577  0.00  0.00    +0.000 A 
ENDBRANCH   2   6
BRANCH   5  12
ATOM     12  C   UNL     1       1.477   8.695  19.800  0.00  0.00    +0.000 A 
ATOM     13  C   UNL     1       1.882   9.052  18.507  0.00  0.00    +0.000 A 
ATOM     14  C   UNL     1       2.672   8.197  17.731  0.00  0.00    +0.000 A 
ATOM     15  C   UNL     1       3.010   6.936  18.208  0.00  0.00    +0.000 A 
ATOM     16  C   UNL     1       2.546   6.524  19.452  0.00  0.00    +0.000 A 
ATOM     17  C   UNL     1       1.791   7.398  20.242  0.00  0.00    +0.000 A 
ENDBRANCH   5  12
BRANCH   1  18
ATOM     18  S   UNL     1      -0.845  11.227  19.150  0.00  0.00    +0.000 S 
ATOM     19  O   UNL     1      -0.910  10.078  18.274  0.00  0.00    +0.000 OA
ATOM     20  O   UNL     1      -0.166  12.402  18.680  0.00  0.00    +0.000 OA
BRANCH  18  23
ATOM     21  O   UNL     1      -3.106  11.583  17.266  0.00  0.00    +0.000 OA
ATOM     22  C   UNL     1      -3.390  11.699  18.446  0.00  0.00    +0.000 C 
ATOM     23  N   UNL     1      -2.419  11.662  19.454  0.00  0.00    +0.000 N 
ATOM     24  H   UNL     1      -2.697  11.543  20.422  0.00  0.00    +0.000 HD
BRANCH  22  25
ATOM     25  C   UNL     1      -4.744  11.934  18.885  0.00  0.00    +0.000 A 
ATOM     26  C   UNL     1      -5.885  11.622  18.160  0.00  0.00    +0.000 A 
ATOM     27  C   UNL     1      -7.075  12.055  18.804  0.00  0.00    +0.000 A 
ATOM     28  C   UNL     1      -6.786  12.663  19.998  0.00  0.00    +0.000 A 
ATOM     29 CL   UNL     1      -7.914  13.368  21.084  0.00  0.00    +0.000 Cl
ATOM     30  S   UNL     1      -5.136  12.698  20.365  0.00  0.00    +0.000 S 
ENDBRANCH  22  25
ENDBRANCH  18  23
ENDBRANCH   1  18
TORSDOF 5
ENDMDL
MODEL 7
REMARK VINA RESULT:      -7.2      2.994      4.712
REMARK  Name = 
REMARK  5 active torsions:
REMARK  status: ('A' for Active; 'I' for Inactive)
REMARK    1  A    between atoms: C_2  and  C_24
REMARK    2  A    between atoms: N_3  and  S_4
REMARK    3  A    between atoms: S_4  and  C_7
REMARK    4  A    between atoms: C_8  and  C_9
REMARK    5  A    between atoms: C_17  and  C_18
REMARK                            x       y       z     vdW  Elec       q    Type
REMARK                         _______ _______ _______ _____ _____    ______ ____
ROOT
ATOM      1  C   UNL     1       0.098  10.377  20.733  0.00  0.00    +0.000 A 
ATOM      2  C   UNL     1      -0.198  10.861  22.059  0.00  0.00    +0.000 A 
ATOM      3  N   UNL     1       0.394  10.057  22.961  0.00  0.00    +0.000 NA
ATOM      4  O   UNL     1       1.057   9.084  22.268  0.00  0.00    +0.000 OA
ATOM      5  C   UNL     1       0.893   9.257  20.928  0.00  0.00    +0.000 A 
ENDROOT
BRANCH   2   6
ATOM      6  C   UNL     1      -1.042  11.957  22.572  0.00  0.00    +0.000 A 
ATOM      7  C   UNL     1      -2.278  11.671  23.185  0.00  0.00    +0.000 A 
ATOM      8  C   UNL     1      -3.130  12.697  23.616  0.00  0.00    +0.000 A 
ATOM      9  C   UNL     1      -2.780  14.026  23.409  0.00  0.00    +0.000 A 
ATOM     10  C   UNL     1      -1.551  14.328  22.837  0.00  0.00    +0.000 A 
ATOM     11  C   UNL     1      -0.672  13.300  22.479  0.00  0.00    +0.000 A 
ENDBRANCH   2   6
BRANCH   5  12
ATOM     12  C   UNL     1       1.580   8.245  20.118  0.00  0.00    +0.000 A 
ATOM     13  C   UNL     1       1.718   6.914  20.533  0.00  0.00    +0.000 A 
ATOM     14  C   UNL     1       2.243   5.938  19.679  0.00  0.00    +0.000 A 
ATOM     15  C   UNL     1       2.707   6.292  18.418  0.00  0.00    +0.000 A 
ATOM     16  C   UNL     1       2.662   7.622  18.017  0.00  0.00    +0.000 A 
ATOM     17  C   UNL     1       2.099   8.589  18.858  0.00  0.00    +0.000 A 
ENDBRANCH   5  12
BRANCH   1  18
ATOM     18  S   UNL     1      -0.469  10.929  19.208  0.00  0.00    +0.000 S 
ATOM     19  O   UNL     1      -0.433   9.785  18.325  0.00  0.00    +0.000 OA
ATOM     20  O   UNL     1       0.257  12.107  18.825  0.00  0.00    +0.000 OA
BRANCH  18  23
ATOM     21  O   UNL     1      -2.448  11.497  17.077  0.00  0.00    +0.000 OA
ATOM     22  C   UNL     1      -2.890  11.509  18.212  0.00  0.00    +0.000 C 
ATOM     23  N   UNL     1      -2.067  11.361  19.335  0.00  0.00    +0.000 N 
ATOM     24  H   UNL     1      -2.476  11.158  20.240  0.00  0.00    +0.000 HD
BRANCH  22  25
ATOM     25  C   UNL     1      -4.291  11.726  18.484  0.00  0.00    +0.000 A 
ATOM     26  C   UNL     1      -5.336  11.321  17.665  0.00  0.00    +0.000 A 
ATOM     27  C   UNL     1      -6.602  11.757  18.141  0.00  0.00    +0.000 A 
ATOM     28  C   UNL     1      -6.463  12.458  19.310  0.00  0.00    +0.000 A 
ATOM     29 CL   UNL     1      -7.724  13.198  20.212  0.00  0.00    +0.000 Cl
ATOM     30  S   UNL     1      -4.866  12.579  19.851  0.00  0.00    +0.000 S 
ENDBRANCH  22  25
ENDBRANCH  18  23
ENDBRANCH   1  18
TORSDOF 5
ENDMDL
MODEL 8
REMARK VINA RESULT:      -7.2      3.696      6.057
REMARK  Name = 
REMARK  5 active torsions:
REMARK  status: ('A' for Active; 'I' for Inactive)
REMARK    1  A    between atoms: C_2  and  C_24
REMARK    2  A    between atoms: N_3  and  S_4
REMARK    3  A    between atoms: S_4  and  C_7
REMARK    4  A    between atoms: C_8  and  C_9
REMARK    5  A    between atoms: C_17  and  C_18
REMARK                            x       y       z     vdW  Elec       q    Type
REMARK                         _______ _______ _______ _____ _____    ______ ____
ROOT
ATOM      1  C   UNL     1      -0.609  11.463  21.301  0.00  0.00    +0.000 A 
ATOM      2  C   UNL     1      -1.114  11.588  22.646  0.00  0.00    +0.000 A 
ATOM      3  N   UNL     1      -0.801  10.476  23.337  0.00  0.00    +0.000 NA
ATOM      4  O   UNL     1      -0.117   9.650  22.492  0.00  0.00    +0.000 OA
ATOM      5  C   UNL     1       0.011  10.223  21.263  0.00  0.00    +0.000 A 
ENDROOT
BRANCH   2   6
ATOM      6  C   UNL     1      -1.926  12.612  23.332  0.00  0.00    +0.000 A 
ATOM      7  C   UNL     1      -1.369  13.871  23.632  0.00  0.00    +0.000 A 
ATOM      8  C   UNL     1      -2.094  14.835  24.345  0.00  0.00    +0.000 A 
ATOM      9  C   UNL     1      -3.374  14.546  24.803  0.00  0.00    +0.000 A 
ATOM     10  C   UNL     1      -3.952  13.323  24.487  0.00  0.00    +0.000 A 
ATOM     11  C   UNL     1      -3.251  12.395  23.710  0.00  0.00    +0.000 A 
ENDBRANCH   2   6
BRANCH   5  12
ATOM     12  C   UNL     1       0.738   9.388  20.301  0.00  0.00    +0.000 A 
ATOM     13  C   UNL     1       0.903   9.755  18.959  0.00  0.00    +0.000 A 
ATOM     14  C   UNL     1       1.726   9.018  18.100  0.00  0.00    +0.000 A 
ATOM     15  C   UNL     1       2.343   7.858  18.551  0.00  0.00    +0.000 A 
ATOM     16  C   UNL     1       2.124   7.425  19.855  0.00  0.00    +0.000 A 
ATOM     17  C   UNL     1       1.332   8.187  20.722  0.00  0.00    +0.000 A 
ENDBRANCH   5  12
BRANCH   1  18
ATOM     18  S   UNL     1      -0.799  12.511  19.952  0.00  0.00    +0.000 S 
ATOM     19  O   UNL     1       0.520  13.021  19.648  0.00  0.00    +0.000 OA
ATOM     20  O   UNL     1      -1.847  13.454  20.223  0.00  0.00    +0.000 OA
BRANCH  18  23
ATOM     21  O   UNL     1      -3.522  11.882  18.965  0.00  0.00    +0.000 OA
ATOM     22  C   UNL     1      -2.610  11.500  18.252  0.00  0.00    +0.000 C 
ATOM     23  N   UNL     1      -1.267  11.628  18.627  0.00  0.00    +0.000 N 
ATOM     24  H   UNL     1      -0.535  11.505  17.936  0.00  0.00    +0.000 HD
BRANCH  22  25
ATOM     25  C   UNL     1      -2.852  10.843  16.991  0.00  0.00    +0.000 A 
ATOM     26  C   UNL     1      -2.060   9.842  16.447  0.00  0.00    +0.000 A 
ATOM     27  C   UNL     1      -2.490   9.451  15.150  0.00  0.00    +0.000 A 
ATOM     28  C   UNL     1      -3.599  10.163  14.773  0.00  0.00    +0.000 A 
ATOM     29 CL   UNL     1      -4.427  10.043  13.273  0.00  0.00    +0.000 Cl
ATOM     30  S   UNL     1      -4.141  11.256  15.943  0.00  0.00    +0.000 S 
ENDBRANCH  22  25
ENDBRANCH  18  23
ENDBRANCH   1  18
TORSDOF 5
ENDMDL
MODEL 9
REMARK VINA RESULT:      -7.2      3.167      5.105
REMARK  Name = 
REMARK  5 active torsions:
REMARK  status: ('A' for Active; 'I' for Inactive)
REMARK    1  A    between atoms: C_2  and  C_24
REMARK    2  A    between atoms: N_3  and  S_4
REMARK    3  A    between atoms: S_4  and  C_7
REMARK    4  A    between atoms: C_8  and  C_9
REMARK    5  A    between atoms: C_17  and  C_18
REMARK                            x       y       z     vdW  Elec       q    Type
REMARK                         _______ _______ _______ _____ _____    ______ ____
ROOT
ATOM      1  C   UNL     1      -0.591  11.082  20.959  0.00  0.00    +0.000 A 
ATOM      2  C   UNL     1      -0.747  11.445  22.345  0.00  0.00    +0.000 A 
ATOM      3  N   UNL     1       0.091  10.701  23.090  0.00  0.00    +0.000 NA
ATOM      4  O   UNL     1       0.776   9.882  22.239  0.00  0.00    +0.000 OA
ATOM      5  C   UNL     1       0.383  10.094  20.953  0.00  0.00    +0.000 A 
ENDROOT
BRANCH   2   6
ATOM      6  C   UNL     1      -1.655  12.368  23.054  0.00  0.00    +0.000 A 
ATOM      7  C   UNL     1      -2.937  11.936  23.446  0.00  0.00    +0.000 A 
ATOM      8  C   UNL     1      -3.844  12.812  24.056  0.00  0.00    +0.000 A 
ATOM      9  C   UNL     1      -3.500  14.145  24.253  0.00  0.00    +0.000 A 
ATOM     10  C   UNL     1      -2.228  14.580  23.905  0.00  0.00    +0.000 A 
ATOM     11  C   UNL     1      -1.302  13.681  23.366  0.00  0.00    +0.000 A 
ENDBRANCH   2   6
BRANCH   5  12
ATOM     12  C   UNL     1       1.079   9.245  19.980  0.00  0.00    +0.000 A 
ATOM     13  C   UNL     1       1.312   9.647  18.659  0.00  0.00    +0.000 A 
ATOM     14  C   UNL     1       2.108   8.885  17.797  0.00  0.00    +0.000 A 
ATOM     15  C   UNL     1       2.625   7.667  18.220  0.00  0.00    +0.000 A 
ATOM     16  C   UNL     1       2.334   7.203  19.499  0.00  0.00    +0.000 A 
ATOM     17  C   UNL     1       1.572   7.988  20.372  0.00  0.00    +0.000 A 
ENDBRANCH   5  12
BRANCH   1  18
ATOM     18  S   UNL     1      -1.464  11.612  19.577  0.00  0.00    +0.000 S 
ATOM     19  O   UNL     1      -1.869  10.417  18.870  0.00  0.00    +0.000 OA
ATOM     20  O   UNL     1      -0.688  12.591  18.868  0.00  0.00    +0.000 OA
BRANCH  18  23
ATOM     21  O   UNL     1      -4.088  11.772  18.209  0.00  0.00    +0.000 OA
ATOM     22  C   UNL     1      -4.053  12.261  19.324  0.00  0.00    +0.000 C 
ATOM     23  N   UNL     1      -2.866  12.358  20.060  0.00  0.00    +0.000 N 
ATOM     24  H   UNL     1      -2.900  12.564  21.053  0.00  0.00    +0.000 HD
BRANCH  22  25
ATOM     25  C   UNL     1      -5.228  12.822  19.949  0.00  0.00    +0.000 A 
ATOM     26  C   UNL     1      -6.491  12.248  19.934  0.00  0.00    +0.000 A 
ATOM     27  C   UNL     1      -7.471  13.074  20.549  0.00  0.00    +0.000 A 
ATOM     28  C   UNL     1      -6.905  14.230  21.017  0.00  0.00    +0.000 A 
ATOM     29 CL   UNL     1      -7.723  15.526  21.793  0.00  0.00    +0.000 Cl
ATOM     30  S   UNL     1      -5.237  14.329  20.759  0.00  0.00    +0.000 S 
ENDBRANCH  22  25
ENDBRANCH  18  23
ENDBRANCH   1  18
TORSDOF 5
ENDMDL
