MODEL 1
REMARK VINA RESULT:      -7.5      0.000      0.000
REMARK  Name = 
REMARK  4 active torsions:
REMARK  status: ('A' for Active; 'I' for Inactive)
REMARK    1  A    between atoms: C_2  and  O_3
REMARK    2  A    between atoms: C_2  and  C_4
REMARK    3  A    between atoms: C_4  and  N_5
REMARK    4  A    between atoms: C_8  and  C_9
REMARK                            x       y       z     vdW  Elec       q    Type
REMARK                         _______ _______ _______ _____ _____    ______ ____
ROOT
ATOM      1  C   UNL     1       2.467   7.099  18.696  0.00  0.00    +0.000 A 
ATOM      2  C   UNL     1       2.020   7.102  19.993  0.00  0.00    +0.000 A 
ATOM      3  N   UNL     1       1.517   8.311  20.443  0.00  0.00    +0.000 NA
ATOM      4  C   UNL     1       1.514   9.199  19.468  0.00  0.00    +0.000 A 
ATOM      5  N   UNL     1       0.978  10.444  19.549  0.00  0.00    +0.000 N 
ATOM      6  C   UNL     1       0.392  11.100  18.386  0.00  0.00    +0.000 C 
ATOM      7  C   UNL     1      -1.116  11.260  18.579  0.00  0.00    +0.000 C 
ATOM      8  C   UNL     1      -1.449  11.976  19.903  0.00  0.00    +0.000 C 
ATOM      9  C   UNL     1      -2.971  12.099  20.051  0.00  0.00    +0.000 C 
ATOM     10  C   UNL     1      -3.338  12.865  21.318  0.00  0.00    +0.000 C 
ATOM     11  C   UNL     1      -2.415  14.029  21.566  0.00  0.00    +0.000 A 
ATOM     12  C   UNL     1      -2.649  14.961  22.592  0.00  0.00    +0.000 A 
ATOM     13 BR   UNL     1      -4.155  14.833  23.744  0.00  0.00    +0.000 Br
ATOM     14  C   UNL     1      -1.759  16.017  22.819  0.00  0.00    +0.000 A 
ATOM     15  C   UNL     1      -0.625  16.161  22.024  0.00  0.00    +0.000 A 
ATOM     16  C   UNL     1      -0.375  15.241  21.009  0.00  0.00    +0.000 A 
ATOM     17  C   UNL     1      -1.251  14.175  20.798  0.00  0.00    +0.000 A 
ATOM     18  O   UNL     1      -0.880  13.299  19.812  0.00  0.00    +0.000 OA
ATOM     19  C   UNL     1      -0.796  11.180  21.058  0.00  0.00    +0.000 C 
ATOM     20  C   UNL     1       0.707  11.043  20.845  0.00  0.00    +0.000 C 
ATOM     21  S   UNL     1       2.312   8.648  18.026  0.00  0.00    +0.000 S 
ENDROOT
BRANCH   1  25
ATOM     22  N   UNL     1       4.190   4.600  16.960  0.00  0.00    +0.000 N 
ATOM     23  N   UNL     1       3.113   3.869  17.292  0.00  0.00    +0.000 NA
ATOM     24  N   UNL     1       2.315   4.720  17.920  0.00  0.00    +0.000 NA
ATOM     25  C   UNL     1       2.961   5.934  17.935  0.00  0.00    +0.000 A 
ATOM     26  N   UNL     1       4.141   5.901  17.294  0.00  0.00    +0.000 NA
BRANCH  22  27
ATOM     27  C   UNL     1       5.354   3.982  16.387  0.00  0.00    +0.000 C 
BRANCH  27  29
ATOM     28  O   UNL     1       7.626   4.692  16.417  0.00  0.00    +0.000 OA
ATOM     29  C   UNL     1       6.644   4.355  17.059  0.00  0.00    +0.000 C 
BRANCH  29  30
ATOM     30  O   UNL     1       6.737   4.223  18.400  0.00  0.00    +0.000 OA
ATOM     31  H   UNL     1       7.520   4.617  18.850  0.00  0.00    +0.000 HD
ENDBRANCH  29  30
ENDBRANCH  27  29
ENDBRANCH  22  27
ENDBRANCH   1  25
TORSDOF 4
ENDMDL
MODEL 2
REMARK VINA RESULT:      -7.4      4.326     10.786
REMARK  Name = 
REMARK  4 active torsions:
REMARK  status: ('A' for Active; 'I' for Inactive)
REMARK    1  A    between atoms: C_2  and  O_3
REMARK    2  A    between atoms: C_2  and  C_4
REMARK    3  A    between atoms: C_4  and  N_5
REMARK    4  A    between atoms: C_8  and  C_9
REMARK                            x       y       z     vdW  Elec       q    Type
REMARK                         _______ _______ _______ _____ _____    ______ ____
ROOT
ATOM      1  C   UNL     1      -0.901  11.089  20.261  0.00  0.00    +0.000 A 
ATOM      2  C   UNL     1      -0.557  11.036  18.934  0.00  0.00    +0.000 A 
ATOM      3  N   UNL     1       0.507  10.203  18.631  0.00  0.00    +0.000 NA
ATOM      4  C   UNL     1       0.919   9.572  19.713  0.00  0.00    +0.000 A 
ATOM      5  N   UNL     1       1.867   8.600  19.734  0.00  0.00    +0.000 N 
ATOM      6  C   UNL     1       1.823   7.513  20.704  0.00  0.00    +0.000 C 
ATOM      7  C   UNL     1       1.559   6.185  19.993  0.00  0.00    +0.000 C 
ATOM      8  C   UNL     1       2.570   5.936  18.857  0.00  0.00    +0.000 C 
ATOM      9  C   UNL     1       2.252   4.601  18.171  0.00  0.00    +0.000 C 
ATOM     10  C   UNL     1       3.276   4.286  17.086  0.00  0.00    +0.000 C 
ATOM     11  C   UNL     1       4.676   4.657  17.498  0.00  0.00    +0.000 A 
ATOM     12  C   UNL     1       5.797   4.325  16.718  0.00  0.00    +0.000 A 
ATOM     13 BR   UNL     1       5.637   3.370  15.082  0.00  0.00    +0.000 Br
ATOM     14  C   UNL     1       7.084   4.709  17.110  0.00  0.00    +0.000 A 
ATOM     15  C   UNL     1       7.272   5.427  18.289  0.00  0.00    +0.000 A 
ATOM     16  C   UNL     1       6.171   5.771  19.068  0.00  0.00    +0.000 A 
ATOM     17  C   UNL     1       4.885   5.408  18.664  0.00  0.00    +0.000 A 
ATOM     18  O   UNL     1       3.871   5.846  19.474  0.00  0.00    +0.000 OA
ATOM     19  C   UNL     1       2.511   7.138  17.886  0.00  0.00    +0.000 C 
ATOM     20  C   UNL     1       2.786   8.446  18.619  0.00  0.00    +0.000 C 
ATOM     21  S   UNL     1       0.155  10.125  21.171  0.00  0.00    +0.000 S 
ENDROOT
BRANCH   1  25
ATOM     22  N   UNL     1      -3.227  12.922  22.121  0.00  0.00    +0.000 N 
ATOM     23  N   UNL     1      -3.801  13.085  20.917  0.00  0.00    +0.000 NA
ATOM     24  N   UNL     1      -3.046  12.375  20.091  0.00  0.00    +0.000 NA
ATOM     25  C   UNL     1      -2.045  11.815  20.849  0.00  0.00    +0.000 A 
ATOM     26  N   UNL     1      -2.156  12.110  22.154  0.00  0.00    +0.000 NA
BRANCH  22  27
ATOM     27  C   UNL     1      -3.681  13.667  23.262  0.00  0.00    +0.000 C 
BRANCH  27  29
ATOM     28  O   UNL     1      -4.596  11.861  24.516  0.00  0.00    +0.000 OA
ATOM     29  C   UNL     1      -4.755  12.982  24.057  0.00  0.00    +0.000 C 
BRANCH  29  30
ATOM     30  O   UNL     1      -5.954  13.591  24.186  0.00  0.00    +0.000 OA
ATOM     31  H   UNL     1      -6.304  13.734  25.096  0.00  0.00    +0.000 HD
ENDBRANCH  29  30
ENDBRANCH  27  29
ENDBRANCH  22  27
ENDBRANCH   1  25
TORSDOF 4
ENDMDL
MODEL 3
REMARK VINA RESULT:      -7.3      4.439     10.709
REMARK  Name = 
REMARK  4 active torsions:
REMARK  status: ('A' for Active; 'I' for Inactive)
REMARK    1  A    between atoms: C_2  and  O_3
REMARK    2  A    between atoms: C_2  and  C_4
REMARK    3  A    between atoms: C_4  and  N_5
REMARK    4  A    between atoms: C_8  and  C_9
REMARK                            x       y       z     vdW  Elec       q    Type
REMARK                         _______ _______ _______ _____ _____    ______ ____
ROOT
ATOM      1  C   UNL     1      -0.869  11.182  20.008  0.00  0.00    +0.000 A 
ATOM      2  C   UNL     1      -0.482  11.112  18.694  0.00  0.00    +0.000 A 
ATOM      3  N   UNL     1       0.584  10.266  18.435  0.00  0.00    +0.000 NA
ATOM      4  C   UNL     1       0.954   9.642  19.536  0.00  0.00    +0.000 A 
ATOM      5  N   UNL     1       1.891   8.663  19.599  0.00  0.00    +0.000 N 
ATOM      6  C   UNL     1       1.805   7.586  20.578  0.00  0.00    +0.000 C 
ATOM      7  C   UNL     1       1.552   6.254  19.871  0.00  0.00    +0.000 C 
ATOM      8  C   UNL     1       2.599   5.984  18.773  0.00  0.00    +0.000 C 
ATOM      9  C   UNL     1       2.291   4.645  18.089  0.00  0.00    +0.000 C 
ATOM     10  C   UNL     1       3.348   4.310  17.042  0.00  0.00    +0.000 C 
ATOM     11  C   UNL     1       4.737   4.672  17.498  0.00  0.00    +0.000 A 
ATOM     12  C   UNL     1       5.880   4.322  16.759  0.00  0.00    +0.000 A 
ATOM     13 BR   UNL     1       5.767   3.352  15.129  0.00  0.00    +0.000 Br
ATOM     14  C   UNL     1       7.157   4.698  17.191  0.00  0.00    +0.000 A 
ATOM     15  C   UNL     1       7.312   5.427  18.368  0.00  0.00    +0.000 A 
ATOM     16  C   UNL     1       6.189   5.789  19.106  0.00  0.00    +0.000 A 
ATOM     17  C   UNL     1       4.914   5.433  18.663  0.00  0.00    +0.000 A 
ATOM     18  O   UNL     1       3.877   5.888  19.434  0.00  0.00    +0.000 OA
ATOM     19  C   UNL     1       2.583   7.177  17.788  0.00  0.00    +0.000 C 
ATOM     20  C   UNL     1       2.846   8.489  18.517  0.00  0.00    +0.000 C 
ATOM     21  S   UNL     1       0.146  10.218  20.963  0.00  0.00    +0.000 S 
ENDROOT
BRANCH   1  25
ATOM     22  N   UNL     1      -3.897  12.753  20.779  0.00  0.00    +0.000 N 
ATOM     23  N   UNL     1      -3.417  12.678  22.031  0.00  0.00    +0.000 NA
ATOM     24  N   UNL     1      -2.212  12.145  21.893  0.00  0.00    +0.000 NA
ATOM     25  C   UNL     1      -2.026  11.924  20.549  0.00  0.00    +0.000 A 
ATOM     26  N   UNL     1      -3.065  12.339  19.807  0.00  0.00    +0.000 NA
BRANCH  22  27
ATOM     27  C   UNL     1      -5.255  13.149  20.530  0.00  0.00    +0.000 C 
BRANCH  27  29
ATOM     28  O   UNL     1      -7.008  11.571  20.202  0.00  0.00    +0.000 OA
ATOM     29  C   UNL     1      -6.281  12.154  20.991  0.00  0.00    +0.000 C 
BRANCH  29  30
ATOM     30  O   UNL     1      -6.458  11.975  22.318  0.00  0.00    +0.000 OA
ATOM     31  H   UNL     1      -6.855  12.714  22.836  0.00  0.00    +0.000 HD
ENDBRANCH  29  30
ENDBRANCH  27  29
ENDBRANCH  22  27
ENDBRANCH   1  25
TORSDOF 4
ENDMDL
MODEL 4
REMARK VINA RESULT:      -7.3      4.463     10.879
REMARK  Name = 
REMARK  4 active torsions:
REMARK  status: ('A' for Active; 'I' for Inactive)
REMARK    1  A    between atoms: C_2  and  O_3
REMARK    2  A    between atoms: C_2  and  C_4
REMARK    3  A    between atoms: C_4  and  N_5
REMARK    4  A    between atoms: C_8  and  C_9
REMARK                            x       y       z     vdW  Elec       q    Type
REMARK                         _______ _______ _______ _____ _____    ______ ____
ROOT
ATOM      1  C   UNL     1      -0.740  10.872  21.061  0.00  0.00    +0.000 A 
ATOM      2  C   UNL     1      -0.442  10.938  19.723  0.00  0.00    +0.000 A 
ATOM      3  N   UNL     1       0.586  10.111  19.304  0.00  0.00    +0.000 NA
ATOM      4  C   UNL     1       1.016   9.368  20.305  0.00  0.00    +0.000 A 
ATOM      5  N   UNL     1       1.935   8.375  20.201  0.00  0.00    +0.000 N 
ATOM      6  C   UNL     1       1.891   7.201  21.063  0.00  0.00    +0.000 C 
ATOM      7  C   UNL     1       1.565   5.955  20.238  0.00  0.00    +0.000 C 
ATOM      8  C   UNL     1       2.531   5.790  19.049  0.00  0.00    +0.000 C 
ATOM      9  C   UNL     1       2.151   4.536  18.250  0.00  0.00    +0.000 C 
ATOM     10  C   UNL     1       3.129   4.301  17.104  0.00  0.00    +0.000 C 
ATOM     11  C   UNL     1       4.553   4.595  17.500  0.00  0.00    +0.000 A 
ATOM     12  C   UNL     1       5.637   4.310  16.652  0.00  0.00    +0.000 A 
ATOM     13 BR   UNL     1       5.396   3.522  14.940  0.00  0.00    +0.000 Br
ATOM     14  C   UNL     1       6.947   4.621  17.033  0.00  0.00    +0.000 A 
ATOM     15  C   UNL     1       7.195   5.217  18.267  0.00  0.00    +0.000 A 
ATOM     16  C   UNL     1       6.131   5.513  19.115  0.00  0.00    +0.000 A 
ATOM     17  C   UNL     1       4.822   5.224  18.724  0.00  0.00    +0.000 A 
ATOM     18  O   UNL     1       3.849   5.607  19.608  0.00  0.00    +0.000 OA
ATOM     19  C   UNL     1       2.474   7.082  18.199  0.00  0.00    +0.000 C 
ATOM     20  C   UNL     1       2.812   8.305  19.044  0.00  0.00    +0.000 C 
ATOM     21  S   UNL     1       0.316   9.798  21.837  0.00  0.00    +0.000 S 
ENDROOT
BRANCH   1  25
ATOM     22  N   UNL     1      -3.647  12.471  22.167  0.00  0.00    +0.000 N 
ATOM     23  N   UNL     1      -3.191  12.089  23.371  0.00  0.00    +0.000 NA
ATOM     24  N   UNL     1      -2.028  11.506  23.116  0.00  0.00    +0.000 NA
ATOM     25  C   UNL     1      -1.843  11.567  21.755  0.00  0.00    +0.000 A 
ATOM     26  N   UNL     1      -2.837  12.214  21.125  0.00  0.00    +0.000 NA
BRANCH  22  27
ATOM     27  C   UNL     1      -4.968  13.016  22.016  0.00  0.00    +0.000 C 
BRANCH  27  29
ATOM     28  O   UNL     1      -6.782  12.194  23.321  0.00  0.00    +0.000 OA
ATOM     29  C   UNL     1      -5.813  12.935  23.255  0.00  0.00    +0.000 C 
BRANCH  29  30
ATOM     30  O   UNL     1      -5.541  13.771  24.280  0.00  0.00    +0.000 OA
ATOM     31  H   UNL     1      -5.110  14.633  24.072  0.00  0.00    +0.000 HD
ENDBRANCH  29  30
ENDBRANCH  27  29
ENDBRANCH  22  27
ENDBRANCH   1  25
TORSDOF 4
ENDMDL
MODEL 5
REMARK VINA RESULT:      -7.3      2.819      3.723
REMARK  Name = 
REMARK  4 active torsions:
REMARK  status: ('A' for Active; 'I' for Inactive)
REMARK    1  A    between atoms: C_2  and  O_3
REMARK    2  A    between atoms: C_2  and  C_4
REMARK    3  A    between atoms: C_4  and  N_5
REMARK    4  A    between atoms: C_8  and  C_9
REMARK                            x       y       z     vdW  Elec       q    Type
REMARK                         _______ _______ _______ _____ _____    ______ ____
ROOT
ATOM      1  C   UNL     1       1.998   7.711  19.197  0.00  0.00    +0.000 A 
ATOM      2  C   UNL     1       1.667   8.299  18.002  0.00  0.00    +0.000 A 
ATOM      3  N   UNL     1       1.088   9.553  18.099  0.00  0.00    +0.000 NA
ATOM      4  C   UNL     1       1.049   9.945  19.358  0.00  0.00    +0.000 A 
ATOM      5  N   UNL     1       0.648  11.171  19.780  0.00  0.00    +0.000 N 
ATOM      6  C   UNL     1       1.218  11.792  20.969  0.00  0.00    +0.000 C 
ATOM      7  C   UNL     1       2.030  13.028  20.578  0.00  0.00    +0.000 C 
ATOM      8  C   UNL     1       1.201  14.009  19.727  0.00  0.00    +0.000 C 
ATOM      9  C   UNL     1       2.066  15.220  19.352  0.00  0.00    +0.000 C 
ATOM     10  C   UNL     1       1.257  16.248  18.567  0.00  0.00    +0.000 C 
ATOM     11  C   UNL     1      -0.142  16.401  19.103  0.00  0.00    +0.000 A 
ATOM     12  C   UNL     1      -1.018  17.394  18.630  0.00  0.00    +0.000 A 
ATOM     13 BR   UNL     1      -0.503  18.630  17.282  0.00  0.00    +0.000 Br
ATOM     14  C   UNL     1      -2.323  17.495  19.124  0.00  0.00    +0.000 A 
ATOM     15  C   UNL     1      -2.772  16.609  20.101  0.00  0.00    +0.000 A 
ATOM     16  C   UNL     1      -1.920  15.615  20.574  0.00  0.00    +0.000 A 
ATOM     17  C   UNL     1      -0.626  15.501  20.063  0.00  0.00    +0.000 A 
ATOM     18  O   UNL     1       0.108  14.454  20.556  0.00  0.00    +0.000 OA
ATOM     19  C   UNL     1       0.671  13.246  18.490  0.00  0.00    +0.000 C 
ATOM     20  C   UNL     1      -0.141  12.025  18.909  0.00  0.00    +0.000 C 
ATOM     21  S   UNL     1       1.532   8.712  20.483  0.00  0.00    +0.000 S 
ENDROOT
BRANCH   1  25
ATOM     22  N   UNL     1       3.152   4.484  19.889  0.00  0.00    +0.000 N 
ATOM     23  N   UNL     1       4.033   4.777  18.919  0.00  0.00    +0.000 NA
ATOM     24  N   UNL     1       3.755   6.030  18.587  0.00  0.00    +0.000 NA
ATOM     25  C   UNL     1       2.709   6.430  19.384  0.00  0.00    +0.000 A 
ATOM     26  N   UNL     1       2.328   5.481  20.254  0.00  0.00    +0.000 NA
BRANCH  22  27
ATOM     27  C   UNL     1       3.043   3.149  20.409  0.00  0.00    +0.000 C 
BRANCH  27  29
ATOM     28  O   UNL     1       5.006   1.914  20.949  0.00  0.00    +0.000 OA
ATOM     29  C   UNL     1       4.215   2.265  20.088  0.00  0.00    +0.000 C 
BRANCH  29  30
ATOM     30  O   UNL     1       4.440   1.932  18.799  0.00  0.00    +0.000 OA
ATOM     31  H   UNL     1       5.374   1.807  18.510  0.00  0.00    +0.000 HD
ENDBRANCH  29  30
ENDBRANCH  27  29
ENDBRANCH  22  27
ENDBRANCH   1  25
TORSDOF 4
ENDMDL
MODEL 6
REMARK VINA RESULT:      -7.3      1.858      2.022
REMARK  Name = 
REMARK  4 active torsions:
REMARK  status: ('A' for Active; 'I' for Inactive)
REMARK    1  A    between atoms: C_2  and  O_3
REMARK    2  A    between atoms: C_2  and  C_4
REMARK    3  A    between atoms: C_4  and  N_5
REMARK    4  A    between atoms: C_8  and  C_9
REMARK                            x       y       z     vdW  Elec       q    Type
REMARK                         _______ _______ _______ _____ _____    ______ ____
ROOT
ATOM      1  C   UNL     1       2.207   6.842  19.497  0.00  0.00    +0.000 A 
ATOM      2  C   UNL     1       1.753   7.123  20.761  0.00  0.00    +0.000 A 
ATOM      3  N   UNL     1       1.301   8.418  20.953  0.00  0.00    +0.000 NA
ATOM      4  C   UNL     1       1.344   9.093  19.821  0.00  0.00    +0.000 A 
ATOM      5  N   UNL     1       0.863  10.350  19.644  0.00  0.00    +0.000 N 
ATOM      6  C   UNL     1       0.315  10.785  18.365  0.00  0.00    +0.000 C 
ATOM      7  C   UNL     1      -1.186  11.045  18.499  0.00  0.00    +0.000 C 
ATOM      8  C   UNL     1      -1.495  12.024  19.649  0.00  0.00    +0.000 C 
ATOM      9  C   UNL     1      -3.011  12.238  19.747  0.00  0.00    +0.000 C 
ATOM     10  C   UNL     1      -3.351  13.257  20.829  0.00  0.00    +0.000 C 
ATOM     11  C   UNL     1      -2.379  14.407  20.854  0.00  0.00    +0.000 A 
ATOM     12  C   UNL     1      -2.578  15.534  21.670  0.00  0.00    +0.000 A 
ATOM     13 BR   UNL     1      -4.095  15.703  22.802  0.00  0.00    +0.000 Br
ATOM     14  C   UNL     1      -1.643  16.576  21.696  0.00  0.00    +0.000 A 
ATOM     15  C   UNL     1      -0.498  16.509  20.905  0.00  0.00    +0.000 A 
ATOM     16  C   UNL     1      -0.283  15.395  20.098  0.00  0.00    +0.000 A 
ATOM     17  C   UNL     1      -1.204  14.347  20.091  0.00  0.00    +0.000 A 
ATOM     18  O   UNL     1      -0.867  13.276  19.305  0.00  0.00    +0.000 OA
ATOM     19  C   UNL     1      -0.886  11.448  20.949  0.00  0.00    +0.000 C 
ATOM     20  C   UNL     1       0.611  11.207  20.790  0.00  0.00    +0.000 C 
ATOM     21  S   UNL     1       2.126   8.231  18.530  0.00  0.00    +0.000 S 
ENDROOT
BRANCH   1  25
ATOM     22  N   UNL     1       3.486   3.649  18.868  0.00  0.00    +0.000 N 
ATOM     23  N   UNL     1       2.575   3.667  17.881  0.00  0.00    +0.000 NA
ATOM     24  N   UNL     1       2.033   4.875  17.953  0.00  0.00    +0.000 NA
ATOM     25  C   UNL     1       2.653   5.528  18.991  0.00  0.00    +0.000 A 
ATOM     26  N   UNL     1       3.614   4.789  19.568  0.00  0.00    +0.000 NA
BRANCH  22  27
ATOM     27  C   UNL     1       4.187   2.440  19.203  0.00  0.00    +0.000 C 
BRANCH  27  29
ATOM     28  O   UNL     1       5.259   1.620  21.165  0.00  0.00    +0.000 OA
ATOM     29  C   UNL     1       4.286   2.175  20.678  0.00  0.00    +0.000 C 
BRANCH  29  30
ATOM     30  O   UNL     1       3.230   2.479  21.463  0.00  0.00    +0.000 OA
ATOM     31  H   UNL     1       2.327   2.281  21.120  0.00  0.00    +0.000 HD
ENDBRANCH  29  30
ENDBRANCH  27  29
ENDBRANCH  22  27
ENDBRANCH   1  25
TORSDOF 4
ENDMDL
MODEL 7
REMARK VINA RESULT:      -7.2      2.554      2.876
REMARK  Name = 
REMARK  4 active torsions:
REMARK  status: ('A' for Active; 'I' for Inactive)
REMARK    1  A    between atoms: C_2  and  O_3
REMARK    2  A    between atoms: C_2  and  C_4
REMARK    3  A    between atoms: C_4  and  N_5
REMARK    4  A    between atoms: C_8  and  C_9
REMARK                            x       y       z     vdW  Elec       q    Type
REMARK                         _______ _______ _______ _____ _____    ______ ____
ROOT
ATOM      1  C   UNL     1       1.690   8.028  19.998  0.00  0.00    +0.000 A 
ATOM      2  C   UNL     1       1.361   8.252  21.311  0.00  0.00    +0.000 A 
ATOM      3  N   UNL     1       0.809   9.494  21.578  0.00  0.00    +0.000 NA
ATOM      4  C   UNL     1       0.654  10.179  20.462  0.00  0.00    +0.000 A 
ATOM      5  N   UNL     1       0.036  11.383  20.366  0.00  0.00    +0.000 N 
ATOM      6  C   UNL     1      -0.697  11.771  19.167  0.00  0.00    +0.000 C 
ATOM      7  C   UNL     1      -2.190  11.880  19.477  0.00  0.00    +0.000 C 
ATOM      8  C   UNL     1      -2.458  12.814  20.673  0.00  0.00    +0.000 C 
ATOM      9  C   UNL     1      -3.966  12.876  20.948  0.00  0.00    +0.000 C 
ATOM     10  C   UNL     1      -4.276  13.847  22.082  0.00  0.00    +0.000 C 
ATOM     11  C   UNL     1      -3.425  15.088  22.017  0.00  0.00    +0.000 A 
ATOM     12  C   UNL     1      -3.637  16.184  22.872  0.00  0.00    +0.000 A 
ATOM     13 BR   UNL     1      -5.022  16.192  24.173  0.00  0.00    +0.000 Br
ATOM     14  C   UNL     1      -2.812  17.313  22.811  0.00  0.00    +0.000 A 
ATOM     15  C   UNL     1      -1.766  17.366  21.893  0.00  0.00    +0.000 A 
ATOM     16  C   UNL     1      -1.538  16.286  21.045  0.00  0.00    +0.000 A 
ATOM     17  C   UNL     1      -2.347  15.151  21.123  0.00  0.00    +0.000 A 
ATOM     18  O   UNL     1      -2.000  14.126  20.283  0.00  0.00    +0.000 OA
ATOM     19  C   UNL     1      -1.649  12.292  21.884  0.00  0.00    +0.000 C 
ATOM     20  C   UNL     1      -0.164  12.202  21.550  0.00  0.00    +0.000 C 
ATOM     21  S   UNL     1       1.362   9.409  19.074  0.00  0.00    +0.000 S 
ENDROOT
BRANCH   1  25
ATOM     22  N   UNL     1       2.490   4.774  18.997  0.00  0.00    +0.000 N 
ATOM     23  N   UNL     1       2.951   5.408  17.906  0.00  0.00    +0.000 NA
ATOM     24  N   UNL     1       2.770   6.695  18.170  0.00  0.00    +0.000 NA
ATOM     25  C   UNL     1       2.201   6.769  19.419  0.00  0.00    +0.000 A 
ATOM     26  N   UNL     1       2.048   5.563  19.991  0.00  0.00    +0.000 NA
BRANCH  22  27
ATOM     27  C   UNL     1       2.382   3.341  19.027  0.00  0.00    +0.000 C 
BRANCH  27  29
ATOM     28  O   UNL     1       0.304   2.300  18.514  0.00  0.00    +0.000 OA
ATOM     29  C   UNL     1       1.008   2.833  19.357  0.00  0.00    +0.000 C 
BRANCH  29  30
ATOM     30  O   UNL     1       0.514   3.058  20.593  0.00  0.00    +0.000 OA
ATOM     31  H   UNL     1       1.155   3.155  21.336  0.00  0.00    +0.000 HD
ENDBRANCH  29  30
ENDBRANCH  27  29
ENDBRANCH  22  27
ENDBRANCH   1  25
TORSDOF 4
ENDMDL
MODEL 8
REMARK VINA RESULT:      -7.1      1.691      2.026
REMARK  Name = 
REMARK  4 active torsions:
REMARK  status: ('A' for Active; 'I' for Inactive)
REMARK    1  A    between atoms: C_2  and  O_3
REMARK    2  A    between atoms: C_2  and  C_4
REMARK    3  A    between atoms: C_4  and  N_5
REMARK    4  A    between atoms: C_8  and  C_9
REMARK                            x       y       z     vdW  Elec       q    Type
REMARK                         _______ _______ _______ _____ _____    ______ ____
ROOT
ATOM      1  C   UNL     1       2.121   7.595  19.284  0.00  0.00    +0.000 A 
ATOM      2  C   UNL     1       1.661   7.696  20.572  0.00  0.00    +0.000 A 
ATOM      3  N   UNL     1       1.099   8.917  20.906  0.00  0.00    +0.000 NA
ATOM      4  C   UNL     1       1.067   9.712  19.854  0.00  0.00    +0.000 A 
ATOM      5  N   UNL     1       0.476  10.933  19.817  0.00  0.00    +0.000 N 
ATOM      6  C   UNL     1      -0.126  11.452  18.595  0.00  0.00    +0.000 C 
ATOM      7  C   UNL     1      -1.642  11.562  18.762  0.00  0.00    +0.000 C 
ATOM      8  C   UNL     1      -2.020  12.380  20.012  0.00  0.00    +0.000 C 
ATOM      9  C   UNL     1      -3.548  12.446  20.138  0.00  0.00    +0.000 C 
ATOM     10  C   UNL     1      -3.962  13.308  21.327  0.00  0.00    +0.000 C 
ATOM     11  C   UNL     1      -3.095  14.530  21.473  0.00  0.00    +0.000 A 
ATOM     12  C   UNL     1      -3.381  15.541  22.408  0.00  0.00    +0.000 A 
ATOM     13 BR   UNL     1      -4.892  15.450  23.557  0.00  0.00    +0.000 Br
ATOM     14  C   UNL     1      -2.541  16.652  22.544  0.00  0.00    +0.000 A 
ATOM     15  C   UNL     1      -1.406  16.773  21.746  0.00  0.00    +0.000 A 
ATOM     16  C   UNL     1      -1.104  15.777  20.821  0.00  0.00    +0.000 A 
ATOM     17  C   UNL     1      -1.930  14.658  20.703  0.00  0.00    +0.000 A 
ATOM     18  O   UNL     1      -1.510  13.713  19.805  0.00  0.00    +0.000 OA
ATOM     19  C   UNL     1      -1.346  11.723  21.240  0.00  0.00    +0.000 C 
ATOM     20  C   UNL     1       0.164  11.635  21.051  0.00  0.00    +0.000 C 
ATOM     21  S   UNL     1       1.905   9.068  18.474  0.00  0.00    +0.000 S 
ENDROOT
BRANCH   1  25
ATOM     22  N   UNL     1       2.850   4.535  17.756  0.00  0.00    +0.000 N 
ATOM     23  N   UNL     1       3.928   5.208  17.318  0.00  0.00    +0.000 NA
ATOM     24  N   UNL     1       3.823   6.403  17.881  0.00  0.00    +0.000 NA
ATOM     25  C   UNL     1       2.674   6.388  18.637  0.00  0.00    +0.000 A 
ATOM     26  N   UNL     1       2.053   5.198  18.611  0.00  0.00    +0.000 NA
BRANCH  22  27
ATOM     27  C   UNL     1       2.533   3.232  17.240  0.00  0.00    +0.000 C 
BRANCH  27  29
ATOM     28  O   UNL     1       2.091   1.809  19.096  0.00  0.00    +0.000 OA
ATOM     29  C   UNL     1       2.844   2.104  18.181  0.00  0.00    +0.000 C 
BRANCH  29  30
ATOM     30  O   UNL     1       4.028   1.467  18.060  0.00  0.00    +0.000 OA
ATOM     31  H   UNL     1       4.235   1.036  17.198  0.00  0.00    +0.000 HD
ENDBRANCH  29  30
ENDBRANCH  27  29
ENDBRANCH  22  27
ENDBRANCH   1  25
TORSDOF 4
ENDMDL
MODEL 9
REMARK VINA RESULT:      -7.1      1.749      2.234
REMARK  Name = 
REMARK  4 active torsions:
REMARK  status: ('A' for Active; 'I' for Inactive)
REMARK    1  A    between atoms: C_2  and  O_3
REMARK    2  A    between atoms: C_2  and  C_4
REMARK    3  A    between atoms: C_4  and  N_5
REMARK    4  A    between atoms: C_8  and  C_9
REMARK                            x       y       z     vdW  Elec       q    Type
REMARK                         _______ _______ _______ _____ _____    ______ ____
ROOT
ATOM      1  C   UNL     1       1.592   8.314  20.495  0.00  0.00    +0.000 A 
ATOM      2  C   UNL     1       1.331   8.632  21.804  0.00  0.00    +0.000 A 
ATOM      3  N   UNL     1       0.772   9.882  22.010  0.00  0.00    +0.000 NA
ATOM      4  C   UNL     1       0.542  10.478  20.856  0.00  0.00    +0.000 A 
ATOM      5  N   UNL     1      -0.103  11.663  20.706  0.00  0.00    +0.000 N 
ATOM      6  C   UNL     1      -0.909  11.948  19.526  0.00  0.00    +0.000 C 
ATOM      7  C   UNL     1      -2.385  12.057  19.911  0.00  0.00    +0.000 C 
ATOM      8  C   UNL     1      -2.604  13.075  21.048  0.00  0.00    +0.000 C 
ATOM      9  C   UNL     1      -4.095  13.135  21.403  0.00  0.00    +0.000 C 
ATOM     10  C   UNL     1      -4.360  14.184  22.477  0.00  0.00    +0.000 C 
ATOM     11  C   UNL     1      -3.538  15.429  22.272  0.00  0.00    +0.000 A 
ATOM     12  C   UNL     1      -3.723  16.582  23.054  0.00  0.00    +0.000 A 
ATOM     13 BR   UNL     1      -5.034  16.667  24.428  0.00  0.00    +0.000 Br
ATOM     14  C   UNL     1      -2.925  17.716  22.863  0.00  0.00    +0.000 A 
ATOM     15  C   UNL     1      -1.933  17.716  21.885  0.00  0.00    +0.000 A 
ATOM     16  C   UNL     1      -1.731  16.579  21.108  0.00  0.00    +0.000 A 
ATOM     17  C   UNL     1      -2.513  15.441  21.316  0.00  0.00    +0.000 A 
ATOM     18  O   UNL     1      -2.193  14.361  20.537  0.00  0.00    +0.000 OA
ATOM     19  C   UNL     1      -1.719  12.657  22.246  0.00  0.00    +0.000 C 
ATOM     20  C   UNL     1      -0.253  12.565  21.836  0.00  0.00    +0.000 C 
ATOM     21  S   UNL     1       1.186   9.618  19.491  0.00  0.00    +0.000 S 
ENDROOT
BRANCH   1  25
ATOM     22  N   UNL     1       3.218   5.596  19.012  0.00  0.00    +0.000 N 
ATOM     23  N   UNL     1       2.603   4.915  19.994  0.00  0.00    +0.000 NA
ATOM     24  N   UNL     1       1.877   5.827  20.625  0.00  0.00    +0.000 NA
ATOM     25  C   UNL     1       2.094   7.023  19.983  0.00  0.00    +0.000 A 
ATOM     26  N   UNL     1       2.912   6.902  18.925  0.00  0.00    +0.000 NA
BRANCH  22  27
ATOM     27  C   UNL     1       4.218   4.970  18.193  0.00  0.00    +0.000 C 
BRANCH  27  29
ATOM     28  O   UNL     1       6.382   4.809  19.172  0.00  0.00    +0.000 OA
ATOM     29  C   UNL     1       5.303   4.277  18.966  0.00  0.00    +0.000 C 
BRANCH  29  30
ATOM     30  O   UNL     1       5.102   3.001  19.362  0.00  0.00    +0.000 OA
ATOM     31  H   UNL     1       5.775   2.590  19.953  0.00  0.00    +0.000 HD
ENDBRANCH  29  30
ENDBRANCH  27  29
ENDBRANCH  22  27
ENDBRANCH   1  25
TORSDOF 4
ENDMDL
