MODEL 1
REMARK VINA RESULT:      -7.4      0.000      0.000
REMARK  Name = 
REMARK  5 active torsions:
REMARK  status: ('A' for Active; 'I' for Inactive)
REMARK    1  A    between atoms: C_1  and  C_2
REMARK    2  A    between atoms: C_5  and  O_6
REMARK    3  A    between atoms: O_6  and  C_7
REMARK    4  A    between atoms: C_7  and  C_8
REMARK    5  A    between atoms: C_19  and  N_20
REMARK                            x       y       z     vdW  Elec       q    Type
REMARK                         _______ _______ _______ _____ _____    ______ ____
ROOT
ATOM      1  C   UNL     1       5.799   3.636  13.075  0.00  0.00    +0.000 C 
ATOM      2  C   UNL     1       6.005   4.100  14.465  0.00  0.00    +0.000 A 
ATOM      3  N   UNL     1       5.164   3.698  15.483  0.00  0.00    +0.000 NA
ATOM      4  C   UNL     1       5.617   4.279  16.578  0.00  0.00    +0.000 A 
ATOM      5  C   UNL     1       5.168   4.252  17.945  0.00  0.00    +0.000 A 
ATOM      6  C   UNL     1       5.841   4.967  18.877  0.00  0.00    +0.000 A 
ATOM      7  C   UNL     1       7.009   5.760  18.542  0.00  0.00    +0.000 A 
ATOM      8  C   UNL     1       7.431   5.788  17.271  0.00  0.00    +0.000 A 
ATOM      9  N   UNL     1       6.744   5.058  16.301  0.00  0.00    +0.000 N 
ATOM     10  C   UNL     1       6.994   4.939  14.944  0.00  0.00    +0.000 A 
ENDROOT
BRANCH  10  11
ATOM     11  N   UNL     1       8.015   5.557  14.310  0.00  0.00    +0.000 N 
ATOM     12  H   UNL     1       8.971   5.219  14.308  0.00  0.00    +0.000 HD
ATOM     13  H   UNL     1       7.856   6.368  13.717  0.00  0.00    +0.000 HD
ENDBRANCH  10  11
BRANCH   5  14
ATOM     14  O   UNL     1       4.059   3.467  18.162  0.00  0.00    +0.000 OA
BRANCH  14  15
ATOM     15  C   UNL     1       2.787   3.997  17.787  0.00  0.00    +0.000 C 
BRANCH  15  16
ATOM     16  C   UNL     1       2.392   5.171  18.658  0.00  0.00    +0.000 A 
ATOM     17  C   UNL     1       2.497   6.493  18.205  0.00  0.00    +0.000 A 
ATOM     18  C   UNL     1       2.194   7.563  19.050  0.00  0.00    +0.000 A 
ATOM     19  C   UNL     1       1.769   7.317  20.353  0.00  0.00    +0.000 A 
ATOM     20 CL   UNL     1       1.433   8.636  21.405  0.00  0.00    +0.000 Cl
ATOM     21  C   UNL     1       1.625   6.009  20.813  0.00  0.00    +0.000 A 
ATOM     22  C   UNL     1       1.934   4.939  19.967  0.00  0.00    +0.000 A 
ENDBRANCH  15  16
ENDBRANCH  14  15
ENDBRANCH   5  14
TORSDOF 4
ENDMDL
MODEL 2
REMARK VINA RESULT:      -7.3      0.106      1.086
REMARK  Name = 
REMARK  5 active torsions:
REMARK  status: ('A' for Active; 'I' for Inactive)
REMARK    1  A    between atoms: C_1  and  C_2
REMARK    2  A    between atoms: C_5  and  O_6
REMARK    3  A    between atoms: O_6  and  C_7
REMARK    4  A    between atoms: C_7  and  C_8
REMARK    5  A    between atoms: C_19  and  N_20
REMARK                            x       y       z     vdW  Elec       q    Type
REMARK                         _______ _______ _______ _____ _____    ______ ____
ROOT
ATOM      1  C   UNL     1       5.832   3.626  13.004  0.00  0.00    +0.000 C 
ATOM      2  C   UNL     1       6.040   4.102  14.390  0.00  0.00    +0.000 A 
ATOM      3  N   UNL     1       5.196   3.716  15.410  0.00  0.00    +0.000 NA
ATOM      4  C   UNL     1       5.651   4.305  16.500  0.00  0.00    +0.000 A 
ATOM      5  C   UNL     1       5.202   4.294  17.867  0.00  0.00    +0.000 A 
ATOM      6  C   UNL     1       5.878   5.014  18.793  0.00  0.00    +0.000 A 
ATOM      7  C   UNL     1       7.050   5.798  18.450  0.00  0.00    +0.000 A 
ATOM      8  C   UNL     1       7.473   5.811  17.179  0.00  0.00    +0.000 A 
ATOM      9  N   UNL     1       6.783   5.075  16.216  0.00  0.00    +0.000 N 
ATOM     10  C   UNL     1       7.032   4.941  14.861  0.00  0.00    +0.000 A 
ENDROOT
BRANCH  10  11
ATOM     11  N   UNL     1       8.057   5.548  14.220  0.00  0.00    +0.000 N 
ATOM     12  H   UNL     1       8.990   5.645  14.606  0.00  0.00    +0.000 HD
ATOM     13  H   UNL     1       7.963   5.872  13.262  0.00  0.00    +0.000 HD
ENDBRANCH  10  11
BRANCH   5  14
ATOM     14  O   UNL     1       4.089   3.516  18.091  0.00  0.00    +0.000 OA
BRANCH  14  15
ATOM     15  C   UNL     1       2.813   4.080  17.784  0.00  0.00    +0.000 C 
BRANCH  15  16
ATOM     16  C   UNL     1       2.472   5.229  18.709  0.00  0.00    +0.000 A 
ATOM     17  C   UNL     1       1.992   5.012  20.008  0.00  0.00    +0.000 A 
ATOM     18  C   UNL     1       1.616   6.085  20.818  0.00  0.00    +0.000 A 
ATOM     19  C   UNL     1       1.732   7.387  20.339  0.00  0.00    +0.000 A 
ATOM     20 CL   UNL     1       1.233   8.707  21.324  0.00  0.00    +0.000 Cl
ATOM     21  C   UNL     1       2.238   7.627  19.064  0.00  0.00    +0.000 A 
ATOM     22  C   UNL     1       2.609   6.551  18.251  0.00  0.00    +0.000 A 
ENDBRANCH  15  16
ENDBRANCH  14  15
ENDBRANCH   5  14
TORSDOF 4
ENDMDL
MODEL 3
REMARK VINA RESULT:      -7.2      2.786      4.629
REMARK  Name = 
REMARK  5 active torsions:
REMARK  status: ('A' for Active; 'I' for Inactive)
REMARK    1  A    between atoms: C_1  and  C_2
REMARK    2  A    between atoms: C_5  and  O_6
REMARK    3  A    between atoms: O_6  and  C_7
REMARK    4  A    between atoms: C_7  and  C_8
REMARK    5  A    between atoms: C_19  and  N_20
REMARK                            x       y       z     vdW  Elec       q    Type
REMARK                         _______ _______ _______ _____ _____    ______ ____
ROOT
ATOM      1  C   UNL     1       1.883   2.572  21.052  0.00  0.00    +0.000 C 
ATOM      2  C   UNL     1       2.700   3.398  20.134  0.00  0.00    +0.000 A 
ATOM      3  N   UNL     1       2.193   4.551  19.570  0.00  0.00    +0.000 NA
ATOM      4  C   UNL     1       3.160   5.041  18.818  0.00  0.00    +0.000 A 
ATOM      5  C   UNL     1       3.239   6.212  17.985  0.00  0.00    +0.000 A 
ATOM      6  C   UNL     1       4.383   6.467  17.308  0.00  0.00    +0.000 A 
ATOM      7  C   UNL     1       5.541   5.597  17.400  0.00  0.00    +0.000 A 
ATOM      8  C   UNL     1       5.473   4.507  18.175  0.00  0.00    +0.000 A 
ATOM      9  N   UNL     1       4.298   4.232  18.875  0.00  0.00    +0.000 N 
ATOM     10  C   UNL     1       4.001   3.178  19.723  0.00  0.00    +0.000 A 
ENDROOT
BRANCH  10  11
ATOM     11  N   UNL     1       4.869   2.186  20.023  0.00  0.00    +0.000 N 
ATOM     12  H   UNL     1       5.026   1.832  20.961  0.00  0.00    +0.000 HD
ATOM     13  H   UNL     1       5.361   1.675  19.295  0.00  0.00    +0.000 HD
ENDBRANCH  10  11
BRANCH   5  14
ATOM     14  O   UNL     1       2.094   6.975  17.969  0.00  0.00    +0.000 OA
BRANCH  14  15
ATOM     15  C   UNL     1       2.234   8.384  18.152  0.00  0.00    +0.000 C 
BRANCH  15  16
ATOM     16  C   UNL     1       1.508   8.863  19.392  0.00  0.00    +0.000 A 
ATOM     17  C   UNL     1       1.634   8.200  20.621  0.00  0.00    +0.000 A 
ATOM     18  C   UNL     1       0.901   8.616  21.734  0.00  0.00    +0.000 A 
ATOM     19  C   UNL     1       0.044   9.709  21.629  0.00  0.00    +0.000 A 
ATOM     20 CL   UNL     1      -0.888  10.198  22.990  0.00  0.00    +0.000 Cl
ATOM     21  C   UNL     1      -0.071  10.402  20.426  0.00  0.00    +0.000 A 
ATOM     22  C   UNL     1       0.661   9.981  19.310  0.00  0.00    +0.000 A 
ENDBRANCH  15  16
ENDBRANCH  14  15
ENDBRANCH   5  14
TORSDOF 4
ENDMDL
MODEL 4
REMARK VINA RESULT:      -7.2      3.108      5.710
REMARK  Name = 
REMARK  5 active torsions:
REMARK  status: ('A' for Active; 'I' for Inactive)
REMARK    1  A    between atoms: C_1  and  C_2
REMARK    2  A    between atoms: C_5  and  O_6
REMARK    3  A    between atoms: O_6  and  C_7
REMARK    4  A    between atoms: C_7  and  C_8
REMARK    5  A    between atoms: C_19  and  N_20
REMARK                            x       y       z     vdW  Elec       q    Type
REMARK                         _______ _______ _______ _____ _____    ______ ____
ROOT
ATOM      1  C   UNL     1       2.156   9.006  18.137  0.00  0.00    +0.000 C 
ATOM      2  C   UNL     1       2.239   7.643  18.708  0.00  0.00    +0.000 A 
ATOM      3  N   UNL     1       2.586   6.562  17.924  0.00  0.00    +0.000 NA
ATOM      4  C   UNL     1       2.569   5.513  18.725  0.00  0.00    +0.000 A 
ATOM      5  C   UNL     1       2.837   4.118  18.498  0.00  0.00    +0.000 A 
ATOM      6  C   UNL     1       2.735   3.247  19.530  0.00  0.00    +0.000 A 
ATOM      7  C   UNL     1       2.367   3.679  20.865  0.00  0.00    +0.000 A 
ATOM      8  C   UNL     1       2.117   4.977  21.082  0.00  0.00    +0.000 A 
ATOM      9  N   UNL     1       2.217   5.883  20.026  0.00  0.00    +0.000 N 
ATOM     10  C   UNL     1       2.008   7.252  20.014  0.00  0.00    +0.000 A 
ENDROOT
BRANCH  10  11
ATOM     11  N   UNL     1       1.650   7.968  21.103  0.00  0.00    +0.000 N 
ATOM     12  H   UNL     1       1.754   8.974  21.180  0.00  0.00    +0.000 HD
ATOM     13  H   UNL     1       1.171   7.534  21.887  0.00  0.00    +0.000 HD
ENDBRANCH  10  11
BRANCH   5  14
ATOM     14  O   UNL     1       3.185   3.810  17.202  0.00  0.00    +0.000 OA
BRANCH  14  15
ATOM     15  C   UNL     1       4.541   3.444  16.948  0.00  0.00    +0.000 C 
BRANCH  15  16
ATOM     16  C   UNL     1       5.483   4.615  17.144  0.00  0.00    +0.000 A 
ATOM     17  C   UNL     1       6.453   4.618  18.156  0.00  0.00    +0.000 A 
ATOM     18  C   UNL     1       7.263   5.737  18.362  0.00  0.00    +0.000 A 
ATOM     19  C   UNL     1       7.117   6.857  17.548  0.00  0.00    +0.000 A 
ATOM     20 CL   UNL     1       8.089   8.248  17.828  0.00  0.00    +0.000 Cl
ATOM     21  C   UNL     1       6.182   6.861  16.515  0.00  0.00    +0.000 A 
ATOM     22  C   UNL     1       5.368   5.742  16.313  0.00  0.00    +0.000 A 
ENDBRANCH  15  16
ENDBRANCH  14  15
ENDBRANCH   5  14
TORSDOF 4
ENDMDL
MODEL 5
REMARK VINA RESULT:      -7.2      2.830      4.425
REMARK  Name = 
REMARK  5 active torsions:
REMARK  status: ('A' for Active; 'I' for Inactive)
REMARK    1  A    between atoms: C_1  and  C_2
REMARK    2  A    between atoms: C_5  and  O_6
REMARK    3  A    between atoms: O_6  and  C_7
REMARK    4  A    between atoms: C_7  and  C_8
REMARK    5  A    between atoms: C_19  and  N_20
REMARK                            x       y       z     vdW  Elec       q    Type
REMARK                         _______ _______ _______ _____ _____    ______ ____
ROOT
ATOM      1  C   UNL     1       1.785   2.478  20.447  0.00  0.00    +0.000 C 
ATOM      2  C   UNL     1       2.668   3.422  19.727  0.00  0.00    +0.000 A 
ATOM      3  N   UNL     1       2.178   4.605  19.213  0.00  0.00    +0.000 NA
ATOM      4  C   UNL     1       3.206   5.205  18.643  0.00  0.00    +0.000 A 
ATOM      5  C   UNL     1       3.330   6.456  17.942  0.00  0.00    +0.000 A 
ATOM      6  C   UNL     1       4.536   6.822  17.448  0.00  0.00    +0.000 A 
ATOM      7  C   UNL     1       5.716   5.992  17.608  0.00  0.00    +0.000 A 
ATOM      8  C   UNL     1       5.607   4.827  18.261  0.00  0.00    +0.000 A 
ATOM      9  N   UNL     1       4.368   4.439  18.771  0.00  0.00    +0.000 N 
ATOM     10  C   UNL     1       4.021   3.295  19.470  0.00  0.00    +0.000 A 
ENDROOT
BRANCH  10  11
ATOM     11  N   UNL     1       4.893   2.312  19.786  0.00  0.00    +0.000 N 
ATOM     12  H   UNL     1       4.648   1.482  20.316  0.00  0.00    +0.000 HD
ATOM     13  H   UNL     1       5.845   2.314  19.429  0.00  0.00    +0.000 HD
ENDBRANCH  10  11
BRANCH   5  14
ATOM     14  O   UNL     1       2.159   7.172  17.849  0.00  0.00    +0.000 OA
BRANCH  14  15
ATOM     15  C   UNL     1       2.220   8.578  18.093  0.00  0.00    +0.000 C 
BRANCH  15  16
ATOM     16  C   UNL     1       1.418   8.969  19.316  0.00  0.00    +0.000 A 
ATOM     17  C   UNL     1       0.537  10.060  19.302  0.00  0.00    +0.000 A 
ATOM     18  C   UNL     1      -0.139  10.446  20.461  0.00  0.00    +0.000 A 
ATOM     19  C   UNL     1       0.051   9.733  21.642  0.00  0.00    +0.000 A 
ATOM     20 CL   UNL     1      -0.753  10.233  23.079  0.00  0.00    +0.000 Cl
ATOM     21  C   UNL     1       0.896   8.626  21.670  0.00  0.00    +0.000 A 
ATOM     22  C   UNL     1       1.577   8.244  20.510  0.00  0.00    +0.000 A 
ENDBRANCH  15  16
ENDBRANCH  14  15
ENDBRANCH   5  14
TORSDOF 4
ENDMDL
MODEL 6
REMARK VINA RESULT:      -7.1      3.128      5.657
REMARK  Name = 
REMARK  5 active torsions:
REMARK  status: ('A' for Active; 'I' for Inactive)
REMARK    1  A    between atoms: C_1  and  C_2
REMARK    2  A    between atoms: C_5  and  O_6
REMARK    3  A    between atoms: O_6  and  C_7
REMARK    4  A    between atoms: C_7  and  C_8
REMARK    5  A    between atoms: C_19  and  N_20
REMARK                            x       y       z     vdW  Elec       q    Type
REMARK                         _______ _______ _______ _____ _____    ______ ____
ROOT
ATOM      1  C   UNL     1       2.031   9.063  18.281  0.00  0.00    +0.000 C 
ATOM      2  C   UNL     1       2.205   7.675  18.766  0.00  0.00    +0.000 A 
ATOM      3  N   UNL     1       2.651   6.677  17.924  0.00  0.00    +0.000 NA
ATOM      4  C   UNL     1       2.696   5.579  18.656  0.00  0.00    +0.000 A 
ATOM      5  C   UNL     1       3.073   4.225  18.349  0.00  0.00    +0.000 A 
ATOM      6  C   UNL     1       3.014   3.284  19.320  0.00  0.00    +0.000 A 
ATOM      7  C   UNL     1       2.585   3.598  20.670  0.00  0.00    +0.000 A 
ATOM      8  C   UNL     1       2.233   4.858  20.962  0.00  0.00    +0.000 A 
ATOM      9  N   UNL     1       2.287   5.835  19.968  0.00  0.00    +0.000 N 
ATOM     10  C   UNL     1       1.975   7.183  20.038  0.00  0.00    +0.000 A 
ENDROOT
BRANCH  10  11
ATOM     11  N   UNL     1       1.540   7.798  21.160  0.00  0.00    +0.000 N 
ATOM     12  H   UNL     1       1.871   7.578  22.093  0.00  0.00    +0.000 HD
ATOM     13  H   UNL     1       0.904   8.589  21.116  0.00  0.00    +0.000 HD
ENDBRANCH  10  11
BRANCH   5  14
ATOM     14  O   UNL     1       3.472   4.030  17.046  0.00  0.00    +0.000 OA
BRANCH  14  15
ATOM     15  C   UNL     1       4.855   3.763  16.808  0.00  0.00    +0.000 C 
BRANCH  15  16
ATOM     16  C   UNL     1       5.731   4.916  17.248  0.00  0.00    +0.000 A 
ATOM     17  C   UNL     1       5.706   6.154  16.590  0.00  0.00    +0.000 A 
ATOM     18  C   UNL     1       6.573   7.180  16.968  0.00  0.00    +0.000 A 
ATOM     19  C   UNL     1       7.465   6.981  18.019  0.00  0.00    +0.000 A 
ATOM     20 CL   UNL     1       8.560   8.233  18.458  0.00  0.00    +0.000 Cl
ATOM     21  C   UNL     1       7.484   5.770  18.708  0.00  0.00    +0.000 A 
ATOM     22  C   UNL     1       6.617   4.741  18.325  0.00  0.00    +0.000 A 
ENDBRANCH  15  16
ENDBRANCH  14  15
ENDBRANCH   5  14
TORSDOF 4
ENDMDL
MODEL 7
REMARK VINA RESULT:      -7.1      2.992      5.613
REMARK  Name = 
REMARK  5 active torsions:
REMARK  status: ('A' for Active; 'I' for Inactive)
REMARK    1  A    between atoms: C_1  and  C_2
REMARK    2  A    between atoms: C_5  and  O_6
REMARK    3  A    between atoms: O_6  and  C_7
REMARK    4  A    between atoms: C_7  and  C_8
REMARK    5  A    between atoms: C_19  and  N_20
REMARK                            x       y       z     vdW  Elec       q    Type
REMARK                         _______ _______ _______ _____ _____    ______ ____
ROOT
ATOM      1  C   UNL     1       2.353   8.722  18.014  0.00  0.00    +0.000 C 
ATOM      2  C   UNL     1       2.639   7.333  18.437  0.00  0.00    +0.000 A 
ATOM      3  N   UNL     1       3.293   6.452  17.600  0.00  0.00    +0.000 NA
ATOM      4  C   UNL     1       3.389   5.319  18.269  0.00  0.00    +0.000 A 
ATOM      5  C   UNL     1       3.960   4.042  17.933  0.00  0.00    +0.000 A 
ATOM      6  C   UNL     1       3.908   3.034  18.836  0.00  0.00    +0.000 A 
ATOM      7  C   UNL     1       3.296   3.203  20.142  0.00  0.00    +0.000 A 
ATOM      8  C   UNL     1       2.764   4.391  20.460  0.00  0.00    +0.000 A 
ATOM      9  N   UNL     1       2.810   5.435  19.536  0.00  0.00    +0.000 N 
ATOM     10  C   UNL     1       2.331   6.730  19.643  0.00  0.00    +0.000 A 
ENDROOT
BRANCH  10  11
ATOM     11  N   UNL     1       1.703   7.213  20.739  0.00  0.00    +0.000 N 
ATOM     12  H   UNL     1       2.041   7.092  21.687  0.00  0.00    +0.000 HD
ATOM     13  H   UNL     1       0.881   7.806  20.659  0.00  0.00    +0.000 HD
ENDBRANCH  10  11
BRANCH   5  14
ATOM     14  O   UNL     1       4.521   3.984  16.678  0.00  0.00    +0.000 OA
BRANCH  14  15
ATOM     15  C   UNL     1       5.938   3.822  16.592  0.00  0.00    +0.000 C 
BRANCH  15  16
ATOM     16  C   UNL     1       6.673   5.036  17.121  0.00  0.00    +0.000 A 
ATOM     17  C   UNL     1       7.382   4.998  18.330  0.00  0.00    +0.000 A 
ATOM     18  C   UNL     1       7.993   6.148  18.833  0.00  0.00    +0.000 A 
ATOM     19  C   UNL     1       7.911   7.343  18.123  0.00  0.00    +0.000 A 
ATOM     20 CL   UNL     1       8.632   8.768  18.764  0.00  0.00    +0.000 Cl
ATOM     21  C   UNL     1       7.239   7.394  16.904  0.00  0.00    +0.000 A 
ATOM     22  C   UNL     1       6.623   6.243  16.403  0.00  0.00    +0.000 A 
ENDBRANCH  15  16
ENDBRANCH  14  15
ENDBRANCH   5  14
TORSDOF 4
ENDMDL
MODEL 8
REMARK VINA RESULT:      -7.0      2.455      4.114
REMARK  Name = 
REMARK  5 active torsions:
REMARK  status: ('A' for Active; 'I' for Inactive)
REMARK    1  A    between atoms: C_1  and  C_2
REMARK    2  A    between atoms: C_5  and  O_6
REMARK    3  A    between atoms: O_6  and  C_7
REMARK    4  A    between atoms: C_7  and  C_8
REMARK    5  A    between atoms: C_19  and  N_20
REMARK                            x       y       z     vdW  Elec       q    Type
REMARK                         _______ _______ _______ _____ _____    ______ ____
ROOT
ATOM      1  C   UNL     1       2.591   2.859  20.578  0.00  0.00    +0.000 C 
ATOM      2  C   UNL     1       3.242   3.509  19.418  0.00  0.00    +0.000 A 
ATOM      3  N   UNL     1       3.256   4.883  19.286  0.00  0.00    +0.000 NA
ATOM      4  C   UNL     1       3.904   5.132  18.164  0.00  0.00    +0.000 A 
ATOM      5  C   UNL     1       4.240   6.359  17.492  0.00  0.00    +0.000 A 
ATOM      6  C   UNL     1       4.923   6.310  16.324  0.00  0.00    +0.000 A 
ATOM      7  C   UNL     1       5.335   5.053  15.727  0.00  0.00    +0.000 A 
ATOM      8  C   UNL     1       5.026   3.907  16.350  0.00  0.00    +0.000 A 
ATOM      9  N   UNL     1       4.320   3.946  17.552  0.00  0.00    +0.000 N 
ATOM     10  C   UNL     1       3.896   2.905  18.360  0.00  0.00    +0.000 A 
ENDROOT
BRANCH  10  11
ATOM     11  N   UNL     1       4.119   1.600  18.087  0.00  0.00    +0.000 N 
ATOM     12  H   UNL     1       4.931   1.255  17.585  0.00  0.00    +0.000 HD
ATOM     13  H   UNL     1       3.511   0.872  18.451  0.00  0.00    +0.000 HD
ENDBRANCH  10  11
BRANCH   5  14
ATOM     14  O   UNL     1       3.813   7.496  18.140  0.00  0.00    +0.000 OA
BRANCH  14  15
ATOM     15  C   UNL     1       2.571   8.067  17.726  0.00  0.00    +0.000 C 
BRANCH  15  16
ATOM     16  C   UNL     1       1.757   8.552  18.908  0.00  0.00    +0.000 A 
ATOM     17  C   UNL     1       0.931   9.682  18.820  0.00  0.00    +0.000 A 
ATOM     18  C   UNL     1       0.245  10.152  19.941  0.00  0.00    +0.000 A 
ATOM     19  C   UNL     1       0.368   9.486  21.157  0.00  0.00    +0.000 A 
ATOM     20 CL   UNL     1      -0.447  10.089  22.547  0.00  0.00    +0.000 Cl
ATOM     21  C   UNL     1       1.158   8.342  21.259  0.00  0.00    +0.000 A 
ATOM     22  C   UNL     1       1.849   7.875  20.136  0.00  0.00    +0.000 A 
ENDBRANCH  15  16
ENDBRANCH  14  15
ENDBRANCH   5  14
TORSDOF 4
ENDMDL
MODEL 9
REMARK VINA RESULT:      -6.9      2.681      4.645
REMARK  Name = 
REMARK  5 active torsions:
REMARK  status: ('A' for Active; 'I' for Inactive)
REMARK    1  A    between atoms: C_1  and  C_2
REMARK    2  A    between atoms: C_5  and  O_6
REMARK    3  A    between atoms: O_6  and  C_7
REMARK    4  A    between atoms: C_7  and  C_8
REMARK    5  A    between atoms: C_19  and  N_20
REMARK                            x       y       z     vdW  Elec       q    Type
REMARK                         _______ _______ _______ _____ _____    ______ ____
ROOT
ATOM      1  C   UNL     1       5.418   3.840  16.359  0.00  0.00    +0.000 C 
ATOM      2  C   UNL     1       4.433   3.922  17.461  0.00  0.00    +0.000 A 
ATOM      3  N   UNL     1       4.093   5.136  18.023  0.00  0.00    +0.000 NA
ATOM      4  C   UNL     1       3.205   4.864  18.960  0.00  0.00    +0.000 A 
ATOM      5  C   UNL     1       2.486   5.701  19.885  0.00  0.00    +0.000 A 
ATOM      6  C   UNL     1       1.622   5.133  20.759  0.00  0.00    +0.000 A 
ATOM      7  C   UNL     1       1.391   3.700  20.790  0.00  0.00    +0.000 A 
ATOM      8  C   UNL     1       2.057   2.917  19.931  0.00  0.00    +0.000 A 
ATOM      9  N   UNL     1       2.952   3.491  19.028  0.00  0.00    +0.000 N 
ATOM     10  C   UNL     1       3.740   2.888  18.062  0.00  0.00    +0.000 A 
ENDROOT
BRANCH  10  11
ATOM     11  N   UNL     1       3.761   1.556  17.831  0.00  0.00    +0.000 N 
ATOM     12  H   UNL     1       4.488   0.933  18.165  0.00  0.00    +0.000 HD
ATOM     13  H   UNL     1       2.986   1.087  17.370  0.00  0.00    +0.000 HD
ENDBRANCH  10  11
BRANCH   5  14
ATOM     14  O   UNL     1       2.769   7.043  19.772  0.00  0.00    +0.000 OA
BRANCH  14  15
ATOM     15  C   UNL     1       1.793   7.875  19.143  0.00  0.00    +0.000 C 
BRANCH  15  16
ATOM     16  C   UNL     1       1.123   8.800  20.137  0.00  0.00    +0.000 A 
ATOM     17  C   UNL     1       1.230   8.598  21.520  0.00  0.00    +0.000 A 
ATOM     18  C   UNL     1       0.545   9.422  22.416  0.00  0.00    +0.000 A 
ATOM     19  C   UNL     1      -0.242  10.465  21.935  0.00  0.00    +0.000 A 
ATOM     20 CL   UNL     1      -1.115  11.455  23.037  0.00  0.00    +0.000 Cl
ATOM     21  C   UNL     1      -0.336  10.703  20.565  0.00  0.00    +0.000 A 
ATOM     22  C   UNL     1       0.346   9.874  19.669  0.00  0.00    +0.000 A 
ENDBRANCH  15  16
ENDBRANCH  14  15
ENDBRANCH   5  14
TORSDOF 4
ENDMDL
