MODEL 1
REMARK VINA RESULT:      -7.6      0.000      0.000
REMARK  Name = 
REMARK  4 active torsions:
REMARK  status: ('A' for Active; 'I' for Inactive)
REMARK    1  A    between atoms: C_1  and  N_2
REMARK    2  A    between atoms: C_9  and  C_11
REMARK    3  A    between atoms: C_15  and  O_16
REMARK    4  A    between atoms: O_16  and  C_17
REMARK                            x       y       z     vdW  Elec       q    Type
REMARK                         _______ _______ _______ _____ _____    ______ ____
ROOT
ATOM      1  C   UNL     1      -2.243  12.791  21.855  0.00  0.00    +0.000 C 
ATOM      2  N   UNL     1      -1.564  11.511  21.669  0.00  0.00    +0.000 NA
ATOM      3  C   UNL     1      -0.707  11.176  22.830  0.00  0.00    +0.000 C 
ATOM      4  C   UNL     1      -0.165   9.726  22.742  0.00  0.00    +0.000 C 
ATOM      5  C   UNL     1       0.361   9.453  21.372  0.00  0.00    +0.000 A 
ATOM      6  N   UNL     1       1.151   8.360  21.063  0.00  0.00    +0.000 NA
ATOM      7  C   UNL     1       1.487   8.424  19.790  0.00  0.00    +0.000 A 
ATOM      8  N   UNL     1       2.281   7.464  19.196  0.00  0.00    +0.000 N 
ATOM      9  C   UNL     1       2.931   7.610  17.991  0.00  0.00    +0.000 C 
ATOM     10  O   UNL     1       2.954   8.616  17.286  0.00  0.00    +0.000 OA
ATOM     11  S   UNL     1       0.817   9.731  18.906  0.00  0.00    +0.000 S 
ATOM     12  C   UNL     1       0.057  10.285  20.316  0.00  0.00    +0.000 A 
ATOM     13  C   UNL     1      -0.777  11.518  20.409  0.00  0.00    +0.000 C 
ATOM     14  H   UNL     1       2.507   6.695  19.809  0.00  0.00    +0.000 HD
ENDROOT
BRANCH   9  15
ATOM     15  C   UNL     1       3.747   6.450  17.528  0.00  0.00    +0.000 A 
ATOM     16  C   UNL     1       3.447   5.194  18.083  0.00  0.00    +0.000 A 
ATOM     17  C   UNL     1       4.228   4.084  17.780  0.00  0.00    +0.000 A 
ATOM     18  C   UNL     1       5.309   4.220  16.916  0.00  0.00    +0.000 A 
ATOM     19  C   UNL     1       5.602   5.457  16.329  0.00  0.00    +0.000 A 
ATOM     20  C   UNL     1       4.830   6.582  16.648  0.00  0.00    +0.000 A 
BRANCH  19  21
ATOM     21  O   UNL     1       6.689   5.434  15.502  0.00  0.00    +0.000 OA
BRANCH  21  22
ATOM     22  C   UNL     1       6.616   4.620  14.340  0.00  0.00    +0.000 C 
ATOM     23  F   UNL     1       5.331   4.490  13.930  0.00  0.00    +0.000 F 
ATOM     24  F   UNL     1       7.320   5.202  13.341  0.00  0.00    +0.000 F 
ENDBRANCH  21  22
ENDBRANCH  19  21
ENDBRANCH   9  15
TORSDOF 3
ENDMDL
MODEL 2
REMARK VINA RESULT:      -7.5      1.859      2.010
REMARK  Name = 
REMARK  4 active torsions:
REMARK  status: ('A' for Active; 'I' for Inactive)
REMARK    1  A    between atoms: C_1  and  N_2
REMARK    2  A    between atoms: C_9  and  C_11
REMARK    3  A    between atoms: C_15  and  O_16
REMARK    4  A    between atoms: O_16  and  C_17
REMARK                            x       y       z     vdW  Elec       q    Type
REMARK                         _______ _______ _______ _____ _____    ______ ____
ROOT
ATOM      1  C   UNL     1      -2.406  13.441  21.414  0.00  0.00    +0.000 C 
ATOM      2  N   UNL     1      -1.825  12.109  21.555  0.00  0.00    +0.000 NA
ATOM      3  C   UNL     1      -1.083  11.972  22.830  0.00  0.00    +0.000 C 
ATOM      4  C   UNL     1      -0.659  10.503  23.090  0.00  0.00    +0.000 C 
ATOM      5  C   UNL     1      -0.062   9.911  21.857  0.00  0.00    +0.000 A 
ATOM      6  N   UNL     1       0.653   8.726  21.850  0.00  0.00    +0.000 NA
ATOM      7  C   UNL     1       1.082   8.496  20.625  0.00  0.00    +0.000 A 
ATOM      8  N   UNL     1       1.833   7.381  20.312  0.00  0.00    +0.000 N 
ATOM      9  C   UNL     1       2.575   7.224  19.164  0.00  0.00    +0.000 C 
ATOM     10  O   UNL     1       2.731   8.053  18.270  0.00  0.00    +0.000 OA
ATOM     11  S   UNL     1       0.587   9.627  19.435  0.00  0.00    +0.000 S 
ATOM     12  C   UNL     1      -0.221  10.518  20.629  0.00  0.00    +0.000 A 
ATOM     13  C   UNL     1      -0.955  11.795  20.394  0.00  0.00    +0.000 C 
ATOM     14  H   UNL     1       1.950   6.746  21.088  0.00  0.00    +0.000 HD
ENDROOT
BRANCH   9  15
ATOM     15  C   UNL     1       3.322   5.940  19.022  0.00  0.00    +0.000 A 
ATOM     16  C   UNL     1       2.563   4.758  18.989  0.00  0.00    +0.000 A 
ATOM     17  C   UNL     1       3.189   3.516  18.962  0.00  0.00    +0.000 A 
ATOM     18  C   UNL     1       4.578   3.449  18.963  0.00  0.00    +0.000 A 
ATOM     19  C   UNL     1       5.349   4.618  18.963  0.00  0.00    +0.000 A 
ATOM     20  C   UNL     1       4.722   5.869  19.011  0.00  0.00    +0.000 A 
BRANCH  19  21
ATOM     21  O   UNL     1       6.697   4.392  18.960  0.00  0.00    +0.000 OA
BRANCH  21  22
ATOM     22  C   UNL     1       7.420   4.735  17.786  0.00  0.00    +0.000 C 
ATOM     23  F   UNL     1       6.655   4.544  16.683  0.00  0.00    +0.000 F 
ATOM     24  F   UNL     1       7.764   6.043  17.839  0.00  0.00    +0.000 F 
ENDBRANCH  21  22
ENDBRANCH  19  21
ENDBRANCH   9  15
TORSDOF 3
ENDMDL
MODEL 3
REMARK VINA RESULT:      -7.5      2.289      2.630
REMARK  Name = 
REMARK  4 active torsions:
REMARK  status: ('A' for Active; 'I' for Inactive)
REMARK    1  A    between atoms: C_1  and  N_2
REMARK    2  A    between atoms: C_9  and  C_11
REMARK    3  A    between atoms: C_15  and  O_16
REMARK    4  A    between atoms: O_16  and  C_17
REMARK                            x       y       z     vdW  Elec       q    Type
REMARK                         _______ _______ _______ _____ _____    ______ ____
ROOT
ATOM      1  C   UNL     1      -1.864  12.756  23.369  0.00  0.00    +0.000 C 
ATOM      2  N   UNL     1      -0.984  12.164  22.365  0.00  0.00    +0.000 NA
ATOM      3  C   UNL     1      -1.546  12.299  21.002  0.00  0.00    +0.000 C 
ATOM      4  C   UNL     1      -0.521  11.881  19.915  0.00  0.00    +0.000 C 
ATOM      5  C   UNL     1       0.130  10.590  20.288  0.00  0.00    +0.000 A 
ATOM      6  N   UNL     1       0.874   9.829  19.404  0.00  0.00    +0.000 NA
ATOM      7  C   UNL     1       1.276   8.735  20.019  0.00  0.00    +0.000 A 
ATOM      8  N   UNL     1       2.039   7.778  19.382  0.00  0.00    +0.000 N 
ATOM      9  C   UNL     1       2.229   6.490  19.830  0.00  0.00    +0.000 C 
ATOM     10  O   UNL     1       1.720   5.975  20.823  0.00  0.00    +0.000 OA
ATOM     11  S   UNL     1       0.854   8.611  21.676  0.00  0.00    +0.000 S 
ATOM     12  C   UNL     1       0.040  10.094  21.571  0.00  0.00    +0.000 A 
ATOM     13  C   UNL     1      -0.704  10.743  22.690  0.00  0.00    +0.000 C 
ATOM     14  H   UNL     1       2.307   8.038  18.444  0.00  0.00    +0.000 HD
ENDROOT
BRANCH   9  15
ATOM     15  C   UNL     1       3.088   5.610  18.985  0.00  0.00    +0.000 A 
ATOM     16  C   UNL     1       2.468   4.948  17.913  0.00  0.00    +0.000 A 
ATOM     17  C   UNL     1       3.176   4.032  17.142  0.00  0.00    +0.000 A 
ATOM     18  C   UNL     1       4.512   3.777  17.436  0.00  0.00    +0.000 A 
ATOM     19  C   UNL     1       5.154   4.453  18.480  0.00  0.00    +0.000 A 
ATOM     20  C   UNL     1       4.438   5.360  19.270  0.00  0.00    +0.000 A 
BRANCH  19  21
ATOM     21  O   UNL     1       6.464   4.100  18.644  0.00  0.00    +0.000 OA
BRANCH  21  22
ATOM     22  C   UNL     1       7.390   4.522  17.653  0.00  0.00    +0.000 C 
ATOM     23  F   UNL     1       7.208   5.832  17.358  0.00  0.00    +0.000 F 
ATOM     24  F   UNL     1       8.650   4.366  18.121  0.00  0.00    +0.000 F 
ENDBRANCH  21  22
ENDBRANCH  19  21
ENDBRANCH   9  15
TORSDOF 3
ENDMDL
MODEL 4
REMARK VINA RESULT:      -7.3      1.085      1.159
REMARK  Name = 
REMARK  4 active torsions:
REMARK  status: ('A' for Active; 'I' for Inactive)
REMARK    1  A    between atoms: C_1  and  N_2
REMARK    2  A    between atoms: C_9  and  C_11
REMARK    3  A    between atoms: C_15  and  O_16
REMARK    4  A    between atoms: O_16  and  C_17
REMARK                            x       y       z     vdW  Elec       q    Type
REMARK                         _______ _______ _______ _____ _____    ______ ____
ROOT
ATOM      1  C   UNL     1      -2.543  13.255  21.785  0.00  0.00    +0.000 C 
ATOM      2  N   UNL     1      -1.905  11.942  21.736  0.00  0.00    +0.000 NA
ATOM      3  C   UNL     1      -1.165  11.651  22.986  0.00  0.00    +0.000 C 
ATOM      4  C   UNL     1      -0.679  10.179  23.034  0.00  0.00    +0.000 C 
ATOM      5  C   UNL     1      -0.050   9.800  21.734  0.00  0.00    +0.000 A 
ATOM      6  N   UNL     1       0.716   8.660  21.562  0.00  0.00    +0.000 NA
ATOM      7  C   UNL     1       1.161   8.629  20.323  0.00  0.00    +0.000 A 
ATOM      8  N   UNL     1       1.961   7.605  19.859  0.00  0.00    +0.000 N 
ATOM      9  C   UNL     1       2.716   7.650  18.708  0.00  0.00    +0.000 C 
ATOM     10  O   UNL     1       2.840   8.607  17.948  0.00  0.00    +0.000 OA
ATOM     11  S   UNL     1       0.624   9.901  19.305  0.00  0.00    +0.000 S 
ATOM     12  C   UNL     1      -0.229  10.572  20.607  0.00  0.00    +0.000 A 
ATOM     13  C   UNL     1      -1.015  11.838  20.552  0.00  0.00    +0.000 C 
ATOM     14  H   UNL     1       2.102   6.869  20.535  0.00  0.00    +0.000 HD
ENDROOT
BRANCH   9  15
ATOM     15  C   UNL     1       3.518   6.432  18.390  0.00  0.00    +0.000 A 
ATOM     16  C   UNL     1       3.792   5.550  19.449  0.00  0.00    +0.000 A 
ATOM     17  C   UNL     1       4.618   4.448  19.255  0.00  0.00    +0.000 A 
ATOM     18  C   UNL     1       5.171   4.218  18.000  0.00  0.00    +0.000 A 
ATOM     19  C   UNL     1       4.883   5.070  16.926  0.00  0.00    +0.000 A 
ATOM     20  C   UNL     1       4.068   6.191  17.123  0.00  0.00    +0.000 A 
BRANCH  19  21
ATOM     21  O   UNL     1       5.496   4.713  15.758  0.00  0.00    +0.000 OA
BRANCH  21  22
ATOM     22  C   UNL     1       6.915   4.750  15.721  0.00  0.00    +0.000 C 
ATOM     23  F   UNL     1       7.363   4.607  14.450  0.00  0.00    +0.000 F 
ATOM     24  F   UNL     1       7.345   5.946  16.187  0.00  0.00    +0.000 F 
ENDBRANCH  21  22
ENDBRANCH  19  21
ENDBRANCH   9  15
TORSDOF 3
ENDMDL
MODEL 5
REMARK VINA RESULT:      -7.3      1.744      2.161
REMARK  Name = 
REMARK  4 active torsions:
REMARK  status: ('A' for Active; 'I' for Inactive)
REMARK    1  A    between atoms: C_1  and  N_2
REMARK    2  A    between atoms: C_9  and  C_11
REMARK    3  A    between atoms: C_15  and  O_16
REMARK    4  A    between atoms: O_16  and  C_17
REMARK                            x       y       z     vdW  Elec       q    Type
REMARK                         _______ _______ _______ _____ _____    ______ ____
ROOT
ATOM      1  C   UNL     1      -1.166  13.093  23.002  0.00  0.00    +0.000 C 
ATOM      2  N   UNL     1      -0.374  12.425  21.973  0.00  0.00    +0.000 NA
ATOM      3  C   UNL     1      -0.977  12.592  20.630  0.00  0.00    +0.000 C 
ATOM      4  C   UNL     1      -0.031  12.084  19.510  0.00  0.00    +0.000 C 
ATOM      5  C   UNL     1       0.530  10.750  19.874  0.00  0.00    +0.000 A 
ATOM      6  N   UNL     1       1.177   9.924  18.971  0.00  0.00    +0.000 NA
ATOM      7  C   UNL     1       1.515   8.807  19.582  0.00  0.00    +0.000 A 
ATOM      8  N   UNL     1       2.174   7.786  18.928  0.00  0.00    +0.000 N 
ATOM      9  C   UNL     1       2.280   6.492  19.383  0.00  0.00    +0.000 C 
ATOM     10  O   UNL     1       1.770   6.027  20.401  0.00  0.00    +0.000 OA
ATOM     11  S   UNL     1       1.149   8.732  21.256  0.00  0.00    +0.000 S 
ATOM     12  C   UNL     1       0.451  10.273  21.165  0.00  0.00    +0.000 A 
ATOM     13  C   UNL     1      -0.196  10.988  22.303  0.00  0.00    +0.000 C 
ATOM     14  H   UNL     1       2.425   8.016  17.977  0.00  0.00    +0.000 HD
ENDROOT
BRANCH   9  15
ATOM     15  C   UNL     1       3.033   5.539  18.517  0.00  0.00    +0.000 A 
ATOM     16  C   UNL     1       2.314   4.461  17.975  0.00  0.00    +0.000 A 
ATOM     17  C   UNL     1       2.965   3.474  17.242  0.00  0.00    +0.000 A 
ATOM     18  C   UNL     1       4.339   3.563  17.042  0.00  0.00    +0.000 A 
ATOM     19  C   UNL     1       5.065   4.649  17.547  0.00  0.00    +0.000 A 
ATOM     20  C   UNL     1       4.416   5.633  18.302  0.00  0.00    +0.000 A 
BRANCH  19  21
ATOM     21  O   UNL     1       6.402   4.599  17.266  0.00  0.00    +0.000 OA
BRANCH  21  22
ATOM     22  C   UNL     1       6.861   5.307  16.123  0.00  0.00    +0.000 C 
ATOM     23  F   UNL     1       7.411   4.454  15.225  0.00  0.00    +0.000 F 
ATOM     24  F   UNL     1       5.814   5.927  15.530  0.00  0.00    +0.000 F 
ENDBRANCH  21  22
ENDBRANCH  19  21
ENDBRANCH   9  15
TORSDOF 3
ENDMDL
MODEL 6
REMARK VINA RESULT:      -7.2      2.455      3.042
REMARK  Name = 
REMARK  4 active torsions:
REMARK  status: ('A' for Active; 'I' for Inactive)
REMARK    1  A    between atoms: C_1  and  N_2
REMARK    2  A    between atoms: C_9  and  C_11
REMARK    3  A    between atoms: C_15  and  O_16
REMARK    4  A    between atoms: O_16  and  C_17
REMARK                            x       y       z     vdW  Elec       q    Type
REMARK                         _______ _______ _______ _____ _____    ______ ____
ROOT
ATOM      1  C   UNL     1      -2.528  13.608  20.980  0.00  0.00    +0.000 C 
ATOM      2  N   UNL     1      -1.858  12.311  21.022  0.00  0.00    +0.000 NA
ATOM      3  C   UNL     1      -1.024  12.169  22.238  0.00  0.00    +0.000 C 
ATOM      4  C   UNL     1      -0.494  10.720  22.403  0.00  0.00    +0.000 C 
ATOM      5  C   UNL     1       0.051  10.219  21.108  0.00  0.00    +0.000 A 
ATOM      6  N   UNL     1       0.835   9.083  21.000  0.00  0.00    +0.000 NA
ATOM      7  C   UNL     1       1.192   8.931  19.741  0.00  0.00    +0.000 A 
ATOM      8  N   UNL     1       1.986   7.880  19.329  0.00  0.00    +0.000 N 
ATOM      9  C   UNL     1       2.657   7.818  18.129  0.00  0.00    +0.000 C 
ATOM     10  O   UNL     1       2.700   8.691  17.265  0.00  0.00    +0.000 OA
ATOM     11  S   UNL     1       0.550  10.076  18.639  0.00  0.00    +0.000 S 
ATOM     12  C   UNL     1      -0.228  10.864  19.922  0.00  0.00    +0.000 A 
ATOM     13  C   UNL     1      -1.052  12.100  19.793  0.00  0.00    +0.000 C 
ATOM     14  H   UNL     1       2.195   7.222  20.066  0.00  0.00    +0.000 HD
ENDROOT
BRANCH   9  15
ATOM     15  C   UNL     1       3.469   6.590  17.881  0.00  0.00    +0.000 A 
ATOM     16  C   UNL     1       4.687   6.755  17.201  0.00  0.00    +0.000 A 
ATOM     17  C   UNL     1       5.452   5.650  16.843  0.00  0.00    +0.000 A 
ATOM     18  C   UNL     1       5.005   4.373  17.167  0.00  0.00    +0.000 A 
ATOM     19  C   UNL     1       3.809   4.193  17.872  0.00  0.00    +0.000 A 
ATOM     20  C   UNL     1       3.027   5.302  18.217  0.00  0.00    +0.000 A 
BRANCH  19  21
ATOM     21  O   UNL     1       3.504   2.884  18.121  0.00  0.00    +0.000 OA
BRANCH  21  22
ATOM     22  C   UNL     1       3.710   2.398  19.439  0.00  0.00    +0.000 C 
ATOM     23  F   UNL     1       4.656   3.131  20.075  0.00  0.00    +0.000 F 
ATOM     24  F   UNL     1       2.556   2.502  20.140  0.00  0.00    +0.000 F 
ENDBRANCH  21  22
ENDBRANCH  19  21
ENDBRANCH   9  15
TORSDOF 3
ENDMDL
MODEL 7
REMARK VINA RESULT:      -7.1      2.915      3.585
REMARK  Name = 
REMARK  4 active torsions:
REMARK  status: ('A' for Active; 'I' for Inactive)
REMARK    1  A    between atoms: C_1  and  N_2
REMARK    2  A    between atoms: C_9  and  C_11
REMARK    3  A    between atoms: C_15  and  O_16
REMARK    4  A    between atoms: O_16  and  C_17
REMARK                            x       y       z     vdW  Elec       q    Type
REMARK                         _______ _______ _______ _____ _____    ______ ____
ROOT
ATOM      1  C   UNL     1      -1.114  14.881  20.671  0.00  0.00    +0.000 C 
ATOM      2  N   UNL     1      -0.890  13.439  20.726  0.00  0.00    +0.000 NA
ATOM      3  C   UNL     1      -0.332  13.025  22.034  0.00  0.00    +0.000 C 
ATOM      4  C   UNL     1      -0.304  11.481  22.182  0.00  0.00    +0.000 C 
ATOM      5  C   UNL     1       0.248  10.853  20.946  0.00  0.00    +0.000 A 
ATOM      6  N   UNL     1       0.652   9.531  20.879  0.00  0.00    +0.000 NA
ATOM      7  C   UNL     1       1.129   9.293  19.674  0.00  0.00    +0.000 A 
ATOM      8  N   UNL     1       1.614   8.053  19.312  0.00  0.00    +0.000 N 
ATOM      9  C   UNL     1       2.404   7.802  18.213  0.00  0.00    +0.000 C 
ATOM     10  O   UNL     1       2.843   8.630  17.419  0.00  0.00    +0.000 OA
ATOM     11  S   UNL     1       1.042  10.598  18.565  0.00  0.00    +0.000 S 
ATOM     12  C   UNL     1       0.362  11.571  19.775  0.00  0.00    +0.000 A 
ATOM     13  C   UNL     1      -0.013  13.005  19.609  0.00  0.00    +0.000 C 
ATOM     14  H   UNL     1       1.497   7.352  20.029  0.00  0.00    +0.000 HD
ENDROOT
BRANCH   9  15
ATOM     15  C   UNL     1       2.827   6.386  18.006  0.00  0.00    +0.000 A 
ATOM     16  C   UNL     1       4.178   6.160  17.693  0.00  0.00    +0.000 A 
ATOM     17  C   UNL     1       4.628   4.881  17.385  0.00  0.00    +0.000 A 
ATOM     18  C   UNL     1       3.731   3.818  17.393  0.00  0.00    +0.000 A 
ATOM     19  C   UNL     1       2.388   4.020  17.734  0.00  0.00    +0.000 A 
ATOM     20  C   UNL     1       1.928   5.310  18.025  0.00  0.00    +0.000 A 
BRANCH  19  21
ATOM     21  O   UNL     1       1.631   2.883  17.701  0.00  0.00    +0.000 OA
BRANCH  21  22
ATOM     22  C   UNL     1       1.244   2.314  18.944  0.00  0.00    +0.000 C 
ATOM     23  F   UNL     1       2.334   2.007  19.688  0.00  0.00    +0.000 F 
ATOM     24  F   UNL     1       0.500   3.210  19.634  0.00  0.00    +0.000 F 
ENDBRANCH  21  22
ENDBRANCH  19  21
ENDBRANCH   9  15
TORSDOF 3
ENDMDL
MODEL 8
REMARK VINA RESULT:      -7.1      1.227      1.348
REMARK  Name = 
REMARK  4 active torsions:
REMARK  status: ('A' for Active; 'I' for Inactive)
REMARK    1  A    between atoms: C_1  and  N_2
REMARK    2  A    between atoms: C_9  and  C_11
REMARK    3  A    between atoms: C_15  and  O_16
REMARK    4  A    between atoms: O_16  and  C_17
REMARK                            x       y       z     vdW  Elec       q    Type
REMARK                         _______ _______ _______ _____ _____    ______ ____
ROOT
ATOM      1  C   UNL     1      -1.764  13.998  21.527  0.00  0.00    +0.000 C 
ATOM      2  N   UNL     1      -1.375  12.593  21.444  0.00  0.00    +0.000 NA
ATOM      3  C   UNL     1      -0.771  12.120  22.711  0.00  0.00    +0.000 C 
ATOM      4  C   UNL     1      -0.566  10.582  22.709  0.00  0.00    +0.000 C 
ATOM      5  C   UNL     1       0.054  10.146  21.423  0.00  0.00    +0.000 A 
ATOM      6  N   UNL     1       0.607   8.892  21.231  0.00  0.00    +0.000 NA
ATOM      7  C   UNL     1       1.106   8.829  20.013  0.00  0.00    +0.000 A 
ATOM      8  N   UNL     1       1.730   7.694  19.537  0.00  0.00    +0.000 N 
ATOM      9  C   UNL     1       2.542   7.644  18.427  0.00  0.00    +0.000 C 
ATOM     10  O   UNL     1       2.882   8.591  17.722  0.00  0.00    +0.000 OA
ATOM     11  S   UNL     1       0.868  10.218  19.036  0.00  0.00    +0.000 S 
ATOM     12  C   UNL     1       0.082  10.983  20.328  0.00  0.00    +0.000 A 
ATOM     13  C   UNL     1      -0.455  12.374  20.299  0.00  0.00    +0.000 C 
ATOM     14  H   UNL     1       1.696   6.918  20.182  0.00  0.00    +0.000 HD
ENDROOT
BRANCH   9  15
ATOM     15  C   UNL     1       3.125   6.313  18.087  0.00  0.00    +0.000 A 
ATOM     16  C   UNL     1       2.239   5.225  18.017  0.00  0.00    +0.000 A 
ATOM     17  C   UNL     1       2.718   3.936  17.806  0.00  0.00    +0.000 A 
ATOM     18  C   UNL     1       4.085   3.728  17.659  0.00  0.00    +0.000 A 
ATOM     19  C   UNL     1       4.978   4.806  17.693  0.00  0.00    +0.000 A 
ATOM     20  C   UNL     1       4.502   6.101  17.925  0.00  0.00    +0.000 A 
BRANCH  19  21
ATOM     21  O   UNL     1       6.287   4.445  17.529  0.00  0.00    +0.000 OA
BRANCH  21  22
ATOM     22  C   UNL     1       6.908   4.763  16.291  0.00  0.00    +0.000 C 
ATOM     23  F   UNL     1       5.994   4.783  15.291  0.00  0.00    +0.000 F 
ATOM     24  F   UNL     1       7.468   5.993  16.375  0.00  0.00    +0.000 F 
ENDBRANCH  21  22
ENDBRANCH  19  21
ENDBRANCH   9  15
TORSDOF 3
ENDMDL
MODEL 9
REMARK VINA RESULT:      -7.1      1.967      2.299
REMARK  Name = 
REMARK  4 active torsions:
REMARK  status: ('A' for Active; 'I' for Inactive)
REMARK    1  A    between atoms: C_1  and  N_2
REMARK    2  A    between atoms: C_9  and  C_11
REMARK    3  A    between atoms: C_15  and  O_16
REMARK    4  A    between atoms: O_16  and  C_17
REMARK                            x       y       z     vdW  Elec       q    Type
REMARK                         _______ _______ _______ _____ _____    ______ ____
ROOT
ATOM      1  C   UNL     1      -1.175  12.743  23.041  0.00  0.00    +0.000 C 
ATOM      2  N   UNL     1      -0.329  12.151  22.009  0.00  0.00    +0.000 NA
ATOM      3  C   UNL     1      -0.837  12.452  20.651  0.00  0.00    +0.000 C 
ATOM      4  C   UNL     1       0.172  12.024  19.554  0.00  0.00    +0.000 C 
ATOM      5  C   UNL     1       0.682  10.649  19.830  0.00  0.00    +0.000 A 
ATOM      6  N   UNL     1       1.373   9.892  18.900  0.00  0.00    +0.000 NA
ATOM      7  C   UNL     1       1.648   8.716  19.428  0.00  0.00    +0.000 A 
ATOM      8  N   UNL     1       2.331   7.743  18.727  0.00  0.00    +0.000 N 
ATOM      9  C   UNL     1       2.381   6.410  19.069  0.00  0.00    +0.000 C 
ATOM     10  O   UNL     1       1.797   5.869  20.005  0.00  0.00    +0.000 OA
ATOM     11  S   UNL     1       1.170   8.500  21.060  0.00  0.00    +0.000 S 
ATOM     12  C   UNL     1       0.508  10.061  21.064  0.00  0.00    +0.000 A 
ATOM     13  C   UNL     1      -0.200  10.687  22.218  0.00  0.00    +0.000 C 
ATOM     14  H   UNL     1       2.649   8.050  17.820  0.00  0.00    +0.000 HD
ENDROOT
BRANCH   9  15
ATOM     15  C   UNL     1       3.174   5.520  18.170  0.00  0.00    +0.000 A 
ATOM     16  C   UNL     1       2.827   4.159  18.150  0.00  0.00    +0.000 A 
ATOM     17  C   UNL     1       3.582   3.249  17.417  0.00  0.00    +0.000 A 
ATOM     18  C   UNL     1       4.684   3.695  16.696  0.00  0.00    +0.000 A 
ATOM     19  C   UNL     1       5.023   5.054  16.680  0.00  0.00    +0.000 A 
ATOM     20  C   UNL     1       4.278   5.970  17.432  0.00  0.00    +0.000 A 
BRANCH  19  21
ATOM     21  O   UNL     1       6.126   5.340  15.925  0.00  0.00    +0.000 OA
BRANCH  21  22
ATOM     22  C   UNL     1       7.338   5.621  16.611  0.00  0.00    +0.000 C 
ATOM     23  F   UNL     1       7.363   6.912  17.024  0.00  0.00    +0.000 F 
ATOM     24  F   UNL     1       7.430   4.826  17.703  0.00  0.00    +0.000 F 
ENDBRANCH  21  22
ENDBRANCH  19  21
ENDBRANCH   9  15
TORSDOF 3
ENDMDL
