MODEL 1
REMARK VINA RESULT:      -5.5      0.000      0.000
REMARK  Name = 
REMARK  28 active torsions:
REMARK  status: ('A' for Active; 'I' for Inactive)
REMARK    1  A    between atoms: C_1  and  C_2
REMARK    2  A    between atoms: C_2  and  C_3
REMARK    3  A    between atoms: C_3  and  C_4
REMARK    4  A    between atoms: C_4  and  C_5
REMARK    5  A    between atoms: C_5  and  C_6
REMARK    6  A    between atoms: C_6  and  C_7
REMARK    7  A    between atoms: C_7  and  C_8
REMARK    8  A    between atoms: C_8  and  C_9
REMARK    9  A    between atoms: C_9  and  C_10
REMARK   10  A    between atoms: C_10  and  C_11
REMARK   11  A    between atoms: C_11  and  C_12
REMARK   12  A    between atoms: C_12  and  C_13
REMARK   13  A    between atoms: C_13  and  C_14
REMARK   14  A    between atoms: C_14  and  C_15
REMARK   15  A    between atoms: C_15  and  C_16
REMARK   16  A    between atoms: N_18  and  C_19
REMARK   17  A    between atoms: C_19  and  C_20
REMARK   18  A    between atoms: C_20  and  C_21
REMARK   19  A    between atoms: C_21  and  N_22
REMARK   20  A    between atoms: N_22  and  C_23
REMARK   21  A    between atoms: C_23  and  C_24
REMARK   22  A    between atoms: C_24  and  C_25
REMARK   23  A    between atoms: C_25  and  C_26
REMARK   24  A    between atoms: C_26  and  N_27
REMARK   25  A    between atoms: N_27  and  C_28
REMARK   26  A    between atoms: C_28  and  C_29
REMARK   27  A    between atoms: C_29  and  C_30
REMARK   28  A    between atoms: C_30  and  N_31
REMARK                            x       y       z     vdW  Elec       q    Type
REMARK                         _______ _______ _______ _____ _____    ______ ____
ROOT
ATOM      1  C   UNL     1       4.371   2.986  19.355  0.00  0.00    +0.000 C 
ATOM      2  O   UNL     1       3.877   3.411  20.405  0.00  0.00    +0.000 OA
ATOM      3  N   UNL     1       5.463   3.556  18.745  0.00  0.00    +0.000 N 
ATOM      4  H   UNL     1       5.830   3.144  17.893  0.00  0.00    +0.000 HD
ENDROOT
BRANCH   3   5
ATOM      5  C   UNL     1       6.111   4.724  19.309  0.00  0.00    +0.000 C 
BRANCH   5   6
ATOM      6  C   UNL     1       7.487   5.008  18.706  0.00  0.00    +0.000 C 
BRANCH   6   7
ATOM      7  C   UNL     1       7.527   6.428  18.136  0.00  0.00    +0.000 C 
BRANCH   7   8
ATOM      8  N   UNL     1       7.254   6.404  16.702  0.00  0.00    +0.000 NA
ATOM      9  H   UNL     1       7.529   5.503  16.315  0.00  0.00    +0.000 HD
BRANCH   8  10
ATOM     10  C   UNL     1       5.833   6.642  16.446  0.00  0.00    +0.000 C 
BRANCH  10  11
ATOM     11  C   UNL     1       5.287   5.556  15.527  0.00  0.00    +0.000 C 
BRANCH  11  12
ATOM     12  C   UNL     1       6.325   4.447  15.345  0.00  0.00    +0.000 C 
BRANCH  12  13
ATOM     13  C   UNL     1       6.518   4.145  13.867  0.00  0.00    +0.000 C 
BRANCH  13  14
ATOM     14  N   UNL     1       5.228   3.864  13.248  0.00  0.00    +0.000 NA
ATOM     15  H   UNL     1       4.742   4.737  13.039  0.00  0.00    +0.000 HD
BRANCH  14  16
ATOM     16  C   UNL     1       5.428   3.109  12.012  0.00  0.00    +0.000 C 
BRANCH  16  17
ATOM     17  C   UNL     1       6.906   3.100  11.648  0.00  0.00    +0.000 C 
BRANCH  17  18
ATOM     18  C   UNL     1       7.310   1.728  11.124  0.00  0.00    +0.000 C 
BRANCH  18  19
ATOM     19  N   UNL     1       6.162   0.834  11.164  0.00  0.00    +0.000 NA
ATOM     20  H   UNL     1       5.409   1.221  10.595  0.00  0.00    +0.000 HD
ATOM     21  H   UNL     1       5.804   0.782  12.116  0.00  0.00    +0.000 HD
ENDBRANCH  18  19
ENDBRANCH  17  18
ENDBRANCH  16  17
ENDBRANCH  14  16
ENDBRANCH  13  14
ENDBRANCH  12  13
ENDBRANCH  11  12
ENDBRANCH  10  11
ENDBRANCH   8  10
ENDBRANCH   7   8
ENDBRANCH   6   7
ENDBRANCH   5   6
ENDBRANCH   3   5
BRANCH   1  22
ATOM     22  C   UNL     1       3.814   1.767  18.650  0.00  0.00    +0.000 C 
BRANCH  22  23
ATOM     23  C   UNL     1       2.515   2.094  17.929  0.00  0.00    +0.000 C 
BRANCH  23  24
ATOM     24  C   UNL     1       2.618   3.387  17.125  0.00  0.00    +0.000 C 
BRANCH  24  25
ATOM     25  C   UNL     1       1.752   4.468  17.759  0.00  0.00    +0.000 C 
BRANCH  25  26
ATOM     26  C   UNL     1       2.590   5.695  18.075  0.00  0.00    +0.000 C 
BRANCH  26  27
ATOM     27  C   UNL     1       1.796   6.960  17.796  0.00  0.00    +0.000 C 
BRANCH  27  28
ATOM     28  C   UNL     1       2.569   8.176  18.277  0.00  0.00    +0.000 C 
BRANCH  28  29
ATOM     29  C   UNL     1       1.977   9.438  17.677  0.00  0.00    +0.000 C 
BRANCH  29  30
ATOM     30  C   UNL     1       0.562   9.641  18.189  0.00  0.00    +0.000 C 
BRANCH  30  31
ATOM     31  C   UNL     1       0.417  11.037  18.766  0.00  0.00    +0.000 C 
BRANCH  31  32
ATOM     32  C   UNL     1      -0.647  11.043  19.850  0.00  0.00    +0.000 C 
BRANCH  32  33
ATOM     33  C   UNL     1      -0.540   9.783  20.692  0.00  0.00    +0.000 C 
BRANCH  33  34
ATOM     34  C   UNL     1       0.233  10.071  21.968  0.00  0.00    +0.000 C 
BRANCH  34  36
ATOM     35  C   UNL     1       1.117   7.824  21.339  0.00  0.00    +0.000 C 
ATOM     36  C   UNL     1       1.388   9.092  22.124  0.00  0.00    +0.000 C 
ENDBRANCH  34  36
ENDBRANCH  33  34
ENDBRANCH  32  33
ENDBRANCH  31  32
ENDBRANCH  30  31
ENDBRANCH  29  30
ENDBRANCH  28  29
ENDBRANCH  27  28
ENDBRANCH  26  27
ENDBRANCH  25  26
ENDBRANCH  24  25
ENDBRANCH  23  24
ENDBRANCH  22  23
ENDBRANCH   1  22
TORSDOF 27
ENDMDL
MODEL 2
REMARK VINA RESULT:      -5.4      3.348      8.369
REMARK  Name = 
REMARK  28 active torsions:
REMARK  status: ('A' for Active; 'I' for Inactive)
REMARK    1  A    between atoms: C_1  and  C_2
REMARK    2  A    between atoms: C_2  and  C_3
REMARK    3  A    between atoms: C_3  and  C_4
REMARK    4  A    between atoms: C_4  and  C_5
REMARK    5  A    between atoms: C_5  and  C_6
REMARK    6  A    between atoms: C_6  and  C_7
REMARK    7  A    between atoms: C_7  and  C_8
REMARK    8  A    between atoms: C_8  and  C_9
REMARK    9  A    between atoms: C_9  and  C_10
REMARK   10  A    between atoms: C_10  and  C_11
REMARK   11  A    between atoms: C_11  and  C_12
REMARK   12  A    between atoms: C_12  and  C_13
REMARK   13  A    between atoms: C_13  and  C_14
REMARK   14  A    between atoms: C_14  and  C_15
REMARK   15  A    between atoms: C_15  and  C_16
REMARK   16  A    between atoms: N_18  and  C_19
REMARK   17  A    between atoms: C_19  and  C_20
REMARK   18  A    between atoms: C_20  and  C_21
REMARK   19  A    between atoms: C_21  and  N_22
REMARK   20  A    between atoms: N_22  and  C_23
REMARK   21  A    between atoms: C_23  and  C_24
REMARK   22  A    between atoms: C_24  and  C_25
REMARK   23  A    between atoms: C_25  and  C_26
REMARK   24  A    between atoms: C_26  and  N_27
REMARK   25  A    between atoms: N_27  and  C_28
REMARK   26  A    between atoms: C_28  and  C_29
REMARK   27  A    between atoms: C_29  and  C_30
REMARK   28  A    between atoms: C_30  and  N_31
REMARK                            x       y       z     vdW  Elec       q    Type
REMARK                         _______ _______ _______ _____ _____    ______ ____
ROOT
ATOM      1  C   UNL     1       1.552   2.854  19.637  0.00  0.00    +0.000 C 
ATOM      2  O   UNL     1       1.739   2.365  20.756  0.00  0.00    +0.000 OA
ATOM      3  N   UNL     1       1.247   4.178  19.428  0.00  0.00    +0.000 N 
ATOM      4  H   UNL     1       1.127   4.518  18.480  0.00  0.00    +0.000 HD
ENDROOT
BRANCH   3   5
ATOM      5  C   UNL     1       1.114   5.100  20.539  0.00  0.00    +0.000 C 
BRANCH   5   6
ATOM      6  C   UNL     1       2.302   6.052  20.685  0.00  0.00    +0.000 C 
BRANCH   6   7
ATOM      7  C   UNL     1       2.512   6.832  19.384  0.00  0.00    +0.000 C 
BRANCH   7   8
ATOM      8  N   UNL     1       1.559   7.934  19.298  0.00  0.00    +0.000 NA
ATOM      9  H   UNL     1       0.643   7.576  19.029  0.00  0.00    +0.000 HD
BRANCH   8  10
ATOM     10  C   UNL     1       1.463   8.631  20.581  0.00  0.00    +0.000 C 
BRANCH  10  11
ATOM     11  C   UNL     1       0.567   9.855  20.435  0.00  0.00    +0.000 C 
BRANCH  11  12
ATOM     12  C   UNL     1       0.766  10.495  19.060  0.00  0.00    +0.000 C 
BRANCH  12  13
ATOM     13  C   UNL     1      -0.083  11.752  18.937  0.00  0.00    +0.000 C 
BRANCH  13  14
ATOM     14  N   UNL     1      -1.070  11.578  17.878  0.00  0.00    +0.000 NA
ATOM     15  H   UNL     1      -0.741  12.015  17.016  0.00  0.00    +0.000 HD
BRANCH  14  16
ATOM     16  C   UNL     1      -1.300  10.154  17.646  0.00  0.00    +0.000 C 
BRANCH  16  17
ATOM     17  C   UNL     1      -2.772   9.913  17.343  0.00  0.00    +0.000 C 
BRANCH  17  18
ATOM     18  C   UNL     1      -3.004   9.898  15.837  0.00  0.00    +0.000 C 
BRANCH  18  19
ATOM     19  N   UNL     1      -2.632  11.189  15.274  0.00  0.00    +0.000 NA
ATOM     20  H   UNL     1      -2.101  11.044  14.415  0.00  0.00    +0.000 HD
ATOM     21  H   UNL     1      -2.009  11.674  15.917  0.00  0.00    +0.000 HD
ENDBRANCH  18  19
ENDBRANCH  17  18
ENDBRANCH  16  17
ENDBRANCH  14  16
ENDBRANCH  13  14
ENDBRANCH  12  13
ENDBRANCH  11  12
ENDBRANCH  10  11
ENDBRANCH   8  10
ENDBRANCH   7   8
ENDBRANCH   6   7
ENDBRANCH   5   6
ENDBRANCH   3   5
BRANCH   1  22
ATOM     22  C   UNL     1       1.667   2.022  18.377  0.00  0.00    +0.000 C 
BRANCH  22  23
ATOM     23  C   UNL     1       3.121   1.841  17.968  0.00  0.00    +0.000 C 
BRANCH  23  24
ATOM     24  C   UNL     1       3.752   3.151  17.506  0.00  0.00    +0.000 C 
BRANCH  24  25
ATOM     25  C   UNL     1       5.113   3.338  18.164  0.00  0.00    +0.000 C 
BRANCH  25  26
ATOM     26  C   UNL     1       5.005   4.301  19.334  0.00  0.00    +0.000 C 
BRANCH  26  27
ATOM     27  C   UNL     1       6.033   5.412  19.197  0.00  0.00    +0.000 C 
BRANCH  27  28
ATOM     28  C   UNL     1       7.037   5.060  18.113  0.00  0.00    +0.000 C 
BRANCH  28  29
ATOM     29  C   UNL     1       7.237   6.245  17.186  0.00  0.00    +0.000 C 
BRANCH  29  30
ATOM     30  C   UNL     1       5.891   6.837  16.807  0.00  0.00    +0.000 C 
BRANCH  30  31
ATOM     31  C   UNL     1       5.260   6.018  15.696  0.00  0.00    +0.000 C 
BRANCH  31  32
ATOM     32  C   UNL     1       6.312   5.147  15.033  0.00  0.00    +0.000 C 
BRANCH  32  33
ATOM     33  C   UNL     1       5.645   4.087  14.173  0.00  0.00    +0.000 C 
BRANCH  33  34
ATOM     34  C   UNL     1       6.422   3.895  12.882  0.00  0.00    +0.000 C 
BRANCH  34  36
ATOM     35  C   UNL     1       4.419   3.315  11.511  0.00  0.00    +0.000 C 
ATOM     36  C   UNL     1       5.764   2.830  12.016  0.00  0.00    +0.000 C 
ENDBRANCH  34  36
ENDBRANCH  33  34
ENDBRANCH  32  33
ENDBRANCH  31  32
ENDBRANCH  30  31
ENDBRANCH  29  30
ENDBRANCH  28  29
ENDBRANCH  27  28
ENDBRANCH  26  27
ENDBRANCH  25  26
ENDBRANCH  24  25
ENDBRANCH  23  24
ENDBRANCH  22  23
ENDBRANCH   1  22
TORSDOF 27
ENDMDL
MODEL 3
REMARK VINA RESULT:      -5.3      3.010      5.872
REMARK  Name = 
REMARK  28 active torsions:
REMARK  status: ('A' for Active; 'I' for Inactive)
REMARK    1  A    between atoms: C_1  and  C_2
REMARK    2  A    between atoms: C_2  and  C_3
REMARK    3  A    between atoms: C_3  and  C_4
REMARK    4  A    between atoms: C_4  and  C_5
REMARK    5  A    between atoms: C_5  and  C_6
REMARK    6  A    between atoms: C_6  and  C_7
REMARK    7  A    between atoms: C_7  and  C_8
REMARK    8  A    between atoms: C_8  and  C_9
REMARK    9  A    between atoms: C_9  and  C_10
REMARK   10  A    between atoms: C_10  and  C_11
REMARK   11  A    between atoms: C_11  and  C_12
REMARK   12  A    between atoms: C_12  and  C_13
REMARK   13  A    between atoms: C_13  and  C_14
REMARK   14  A    between atoms: C_14  and  C_15
REMARK   15  A    between atoms: C_15  and  C_16
REMARK   16  A    between atoms: N_18  and  C_19
REMARK   17  A    between atoms: C_19  and  C_20
REMARK   18  A    between atoms: C_20  and  C_21
REMARK   19  A    between atoms: C_21  and  N_22
REMARK   20  A    between atoms: N_22  and  C_23
REMARK   21  A    between atoms: C_23  and  C_24
REMARK   22  A    between atoms: C_24  and  C_25
REMARK   23  A    between atoms: C_25  and  C_26
REMARK   24  A    between atoms: C_26  and  N_27
REMARK   25  A    between atoms: N_27  and  C_28
REMARK   26  A    between atoms: C_28  and  C_29
REMARK   27  A    between atoms: C_29  and  C_30
REMARK   28  A    between atoms: C_30  and  N_31
REMARK                            x       y       z     vdW  Elec       q    Type
REMARK                         _______ _______ _______ _____ _____    ______ ____
ROOT
ATOM      1  C   UNL     1       2.187   6.608  19.651  0.00  0.00    +0.000 C 
ATOM      2  O   UNL     1       1.668   7.281  20.548  0.00  0.00    +0.000 OA
ATOM      3  N   UNL     1       2.564   5.296  19.809  0.00  0.00    +0.000 N 
ATOM      4  H   UNL     1       2.967   4.795  19.023  0.00  0.00    +0.000 HD
ENDROOT
BRANCH   3   5
ATOM      5  C   UNL     1       2.379   4.610  21.072  0.00  0.00    +0.000 C 
BRANCH   5   6
ATOM      6  C   UNL     1       1.733   3.231  20.928  0.00  0.00    +0.000 C 
BRANCH   6   7
ATOM      7  C   UNL     1       0.739   3.238  19.763  0.00  0.00    +0.000 C 
BRANCH   7   8
ATOM      8  N   UNL     1       1.335   2.606  18.589  0.00  0.00    +0.000 NA
ATOM      9  H   UNL     1       1.553   3.316  17.891  0.00  0.00    +0.000 HD
BRANCH   8  10
ATOM     10  C   UNL     1       2.552   1.882  18.959  0.00  0.00    +0.000 C 
BRANCH  10  11
ATOM     11  C   UNL     1       3.595   2.033  17.858  0.00  0.00    +0.000 C 
BRANCH  11  12
ATOM     12  C   UNL     1       3.474   3.410  17.202  0.00  0.00    +0.000 C 
BRANCH  12  13
ATOM     13  C   UNL     1       4.856   3.982  16.921  0.00  0.00    +0.000 C 
BRANCH  13  14
ATOM     14  N   UNL     1       5.069   5.177  17.728  0.00  0.00    +0.000 NA
ATOM     15  H   UNL     1       4.184   5.496  18.122  0.00  0.00    +0.000 HD
BRANCH  14  16
ATOM     16  C   UNL     1       6.007   4.883  18.809  0.00  0.00    +0.000 C 
BRANCH  16  17
ATOM     17  C   UNL     1       7.407   5.329  18.411  0.00  0.00    +0.000 C 
BRANCH  17  18
ATOM     18  C   UNL     1       7.351   6.688  17.724  0.00  0.00    +0.000 C 
BRANCH  18  19
ATOM     19  N   UNL     1       7.505   6.514  16.286  0.00  0.00    +0.000 NA
ATOM     20  H   UNL     1       8.447   6.180  16.084  0.00  0.00    +0.000 HD
ATOM     21  H   UNL     1       7.414   7.415  15.823  0.00  0.00    +0.000 HD
ENDBRANCH  18  19
ENDBRANCH  17  18
ENDBRANCH  16  17
ENDBRANCH  14  16
ENDBRANCH  13  14
ENDBRANCH  12  13
ENDBRANCH  11  12
ENDBRANCH  10  11
ENDBRANCH   8  10
ENDBRANCH   7   8
ENDBRANCH   6   7
ENDBRANCH   5   6
ENDBRANCH   3   5
BRANCH   1  22
ATOM     22  C   UNL     1       2.436   7.179  18.271  0.00  0.00    +0.000 C 
BRANCH  22  23
ATOM     23  C   UNL     1       2.569   8.694  18.319  0.00  0.00    +0.000 C 
BRANCH  23  24
ATOM     24  C   UNL     1       1.304   9.395  17.837  0.00  0.00    +0.000 C 
BRANCH  24  25
ATOM     25  C   UNL     1       1.195  10.775  18.471  0.00  0.00    +0.000 C 
BRANCH  25  26
ATOM     26  C   UNL     1      -0.090  10.886  19.274  0.00  0.00    +0.000 C 
BRANCH  26  27
ATOM     27  C   UNL     1      -1.216  11.405  18.395  0.00  0.00    +0.000 C 
BRANCH  27  28
ATOM     28  C   UNL     1      -2.217  10.295  18.125  0.00  0.00    +0.000 C 
BRANCH  28  29
ATOM     29  C   UNL     1      -2.573  10.266  16.649  0.00  0.00    +0.000 C 
BRANCH  29  30
ATOM     30  C   UNL     1      -4.072  10.433  16.475  0.00  0.00    +0.000 C 
BRANCH  30  31
ATOM     31  C   UNL     1      -4.550  11.646  17.252  0.00  0.00    +0.000 C 
BRANCH  31  32
ATOM     32  C   UNL     1      -5.913  11.368  17.861  0.00  0.00    +0.000 C 
BRANCH  32  33
ATOM     33  C   UNL     1      -5.913  11.746  19.332  0.00  0.00    +0.000 C 
BRANCH  33  34
ATOM     34  C   UNL     1      -4.743  12.665  19.637  0.00  0.00    +0.000 C 
BRANCH  34  36
ATOM     35  C   UNL     1      -2.941  12.693  21.362  0.00  0.00    +0.000 C 
ATOM     36  C   UNL     1      -4.438  12.665  21.128  0.00  0.00    +0.000 C 
ENDBRANCH  34  36
ENDBRANCH  33  34
ENDBRANCH  32  33
ENDBRANCH  31  32
ENDBRANCH  30  31
ENDBRANCH  29  30
ENDBRANCH  28  29
ENDBRANCH  27  28
ENDBRANCH  26  27
ENDBRANCH  25  26
ENDBRANCH  24  25
ENDBRANCH  23  24
ENDBRANCH  22  23
ENDBRANCH   1  22
TORSDOF 27
ENDMDL
MODEL 4
REMARK VINA RESULT:      -5.1      4.275      9.785
REMARK  Name = 
REMARK  28 active torsions:
REMARK  status: ('A' for Active; 'I' for Inactive)
REMARK    1  A    between atoms: C_1  and  C_2
REMARK    2  A    between atoms: C_2  and  C_3
REMARK    3  A    between atoms: C_3  and  C_4
REMARK    4  A    between atoms: C_4  and  C_5
REMARK    5  A    between atoms: C_5  and  C_6
REMARK    6  A    between atoms: C_6  and  C_7
REMARK    7  A    between atoms: C_7  and  C_8
REMARK    8  A    between atoms: C_8  and  C_9
REMARK    9  A    between atoms: C_9  and  C_10
REMARK   10  A    between atoms: C_10  and  C_11
REMARK   11  A    between atoms: C_11  and  C_12
REMARK   12  A    between atoms: C_12  and  C_13
REMARK   13  A    between atoms: C_13  and  C_14
REMARK   14  A    between atoms: C_14  and  C_15
REMARK   15  A    between atoms: C_15  and  C_16
REMARK   16  A    between atoms: N_18  and  C_19
REMARK   17  A    between atoms: C_19  and  C_20
REMARK   18  A    between atoms: C_20  and  C_21
REMARK   19  A    between atoms: C_21  and  N_22
REMARK   20  A    between atoms: N_22  and  C_23
REMARK   21  A    between atoms: C_23  and  C_24
REMARK   22  A    between atoms: C_24  and  C_25
REMARK   23  A    between atoms: C_25  and  C_26
REMARK   24  A    between atoms: C_26  and  N_27
REMARK   25  A    between atoms: N_27  and  C_28
REMARK   26  A    between atoms: C_28  and  C_29
REMARK   27  A    between atoms: C_29  and  C_30
REMARK   28  A    between atoms: C_30  and  N_31
REMARK                            x       y       z     vdW  Elec       q    Type
REMARK                         _______ _______ _______ _____ _____    ______ ____
ROOT
ATOM      1  C   UNL     1       2.216   6.718  19.847  0.00  0.00    +0.000 C 
ATOM      2  O   UNL     1       2.795   7.340  18.951  0.00  0.00    +0.000 OA
ATOM      3  N   UNL     1       1.543   7.326  20.880  0.00  0.00    +0.000 N 
ATOM      4  H   UNL     1       1.071   6.754  21.573  0.00  0.00    +0.000 HD
ENDROOT
BRANCH   3   5
ATOM      5  C   UNL     1       1.479   8.770  20.985  0.00  0.00    +0.000 C 
BRANCH   5   6
ATOM      6  C   UNL     1       0.915   9.260  22.319  0.00  0.00    +0.000 C 
BRANCH   6   7
ATOM      7  C   UNL     1       0.009  10.472  22.092  0.00  0.00    +0.000 C 
BRANCH   7   8
ATOM      8  N   UNL     1      -0.781  10.743  23.289  0.00  0.00    +0.000 NA
ATOM      9  H   UNL     1      -0.177  11.108  24.024  0.00  0.00    +0.000 HD
BRANCH   8  10
ATOM     10  C   UNL     1      -1.844  11.706  22.996  0.00  0.00    +0.000 C 
BRANCH  10  11
ATOM     11  C   UNL     1      -1.235  13.002  22.476  0.00  0.00    +0.000 C 
BRANCH  11  12
ATOM     12  C   UNL     1      -2.091  13.571  21.343  0.00  0.00    +0.000 C 
BRANCH  12  13
ATOM     13  C   UNL     1      -1.643  12.997  20.006  0.00  0.00    +0.000 C 
BRANCH  13  14
ATOM     14  N   UNL     1      -2.788  12.430  19.304  0.00  0.00    +0.000 NA
ATOM     15  H   UNL     1      -3.434  13.172  19.031  0.00  0.00    +0.000 HD
BRANCH  14  16
ATOM     16  C   UNL     1      -2.332  11.719  18.112  0.00  0.00    +0.000 C 
BRANCH  16  17
ATOM     17  C   UNL     1      -3.350  10.654  17.727  0.00  0.00    +0.000 C 
BRANCH  17  18
ATOM     18  C   UNL     1      -4.111  11.081  16.478  0.00  0.00    +0.000 C 
BRANCH  18  19
ATOM     19  N   UNL     1      -3.165  11.459  15.437  0.00  0.00    +0.000 NA
ATOM     20  H   UNL     1      -3.469  11.071  14.544  0.00  0.00    +0.000 HD
ATOM     21  H   UNL     1      -2.257  11.044  15.635  0.00  0.00    +0.000 HD
ENDBRANCH  18  19
ENDBRANCH  17  18
ENDBRANCH  16  17
ENDBRANCH  14  16
ENDBRANCH  13  14
ENDBRANCH  12  13
ENDBRANCH  11  12
ENDBRANCH  10  11
ENDBRANCH   8  10
ENDBRANCH   7   8
ENDBRANCH   6   7
ENDBRANCH   5   6
ENDBRANCH   3   5
BRANCH   1  22
ATOM     22  C   UNL     1       2.182   5.204  19.871  0.00  0.00    +0.000 C 
BRANCH  22  23
ATOM     23  C   UNL     1       2.414   4.671  21.277  0.00  0.00    +0.000 C 
BRANCH  23  24
ATOM     24  C   UNL     1       1.738   3.321  21.495  0.00  0.00    +0.000 C 
BRANCH  24  25
ATOM     25  C   UNL     1       1.846   2.472  20.236  0.00  0.00    +0.000 C 
BRANCH  25  26
ATOM     26  C   UNL     1       3.285   2.042  20.012  0.00  0.00    +0.000 C 
BRANCH  26  27
ATOM     27  C   UNL     1       3.520   1.734  18.542  0.00  0.00    +0.000 C 
BRANCH  27  28
ATOM     28  C   UNL     1       2.343   2.221  17.716  0.00  0.00    +0.000 C 
BRANCH  28  29
ATOM     29  C   UNL     1       2.713   3.503  16.991  0.00  0.00    +0.000 C 
BRANCH  29  30
ATOM     30  C   UNL     1       4.223   3.652  16.941  0.00  0.00    +0.000 C 
BRANCH  30  31
ATOM     31  C   UNL     1       4.599   5.121  16.990  0.00  0.00    +0.000 C 
BRANCH  31  32
ATOM     32  C   UNL     1       5.413   5.489  15.763  0.00  0.00    +0.000 C 
BRANCH  32  33
ATOM     33  C   UNL     1       5.622   4.264  14.889  0.00  0.00    +0.000 C 
BRANCH  33  34
ATOM     34  C   UNL     1       6.709   4.533  13.862  0.00  0.00    +0.000 C 
BRANCH  34  36
ATOM     35  C   UNL     1       7.270   4.225  11.451  0.00  0.00    +0.000 C 
ATOM     36  C   UNL     1       6.510   3.658  12.633  0.00  0.00    +0.000 C 
ENDBRANCH  34  36
ENDBRANCH  33  34
ENDBRANCH  32  33
ENDBRANCH  31  32
ENDBRANCH  30  31
ENDBRANCH  29  30
ENDBRANCH  28  29
ENDBRANCH  27  28
ENDBRANCH  26  27
ENDBRANCH  25  26
ENDBRANCH  24  25
ENDBRANCH  23  24
ENDBRANCH  22  23
ENDBRANCH   1  22
TORSDOF 27
ENDMDL
MODEL 5
REMARK VINA RESULT:      -5.1      5.655      8.691
REMARK  Name = 
REMARK  28 active torsions:
REMARK  status: ('A' for Active; 'I' for Inactive)
REMARK    1  A    between atoms: C_1  and  C_2
REMARK    2  A    between atoms: C_2  and  C_3
REMARK    3  A    between atoms: C_3  and  C_4
REMARK    4  A    between atoms: C_4  and  C_5
REMARK    5  A    between atoms: C_5  and  C_6
REMARK    6  A    between atoms: C_6  and  C_7
REMARK    7  A    between atoms: C_7  and  C_8
REMARK    8  A    between atoms: C_8  and  C_9
REMARK    9  A    between atoms: C_9  and  C_10
REMARK   10  A    between atoms: C_10  and  C_11
REMARK   11  A    between atoms: C_11  and  C_12
REMARK   12  A    between atoms: C_12  and  C_13
REMARK   13  A    between atoms: C_13  and  C_14
REMARK   14  A    between atoms: C_14  and  C_15
REMARK   15  A    between atoms: C_15  and  C_16
REMARK   16  A    between atoms: N_18  and  C_19
REMARK   17  A    between atoms: C_19  and  C_20
REMARK   18  A    between atoms: C_20  and  C_21
REMARK   19  A    between atoms: C_21  and  N_22
REMARK   20  A    between atoms: N_22  and  C_23
REMARK   21  A    between atoms: C_23  and  C_24
REMARK   22  A    between atoms: C_24  and  C_25
REMARK   23  A    between atoms: C_25  and  C_26
REMARK   24  A    between atoms: C_26  and  N_27
REMARK   25  A    between atoms: N_27  and  C_28
REMARK   26  A    between atoms: C_28  and  C_29
REMARK   27  A    between atoms: C_29  and  C_30
REMARK   28  A    between atoms: C_30  and  N_31
REMARK                            x       y       z     vdW  Elec       q    Type
REMARK                         _______ _______ _______ _____ _____    ______ ____
ROOT
ATOM      1  C   UNL     1       7.745   8.077  17.657  0.00  0.00    +0.000 C 
ATOM      2  O   UNL     1       7.055   7.727  16.693  0.00  0.00    +0.000 OA
ATOM      3  N   UNL     1       8.183   7.211  18.630  0.00  0.00    +0.000 N 
ATOM      4  H   UNL     1       8.764   7.562  19.385  0.00  0.00    +0.000 HD
ENDROOT
BRANCH   3   5
ATOM      5  C   UNL     1       7.846   5.802  18.587  0.00  0.00    +0.000 C 
BRANCH   5   6
ATOM      6  C   UNL     1       6.997   5.343  19.773  0.00  0.00    +0.000 C 
BRANCH   6   7
ATOM      7  C   UNL     1       5.528   5.229  19.353  0.00  0.00    +0.000 C 
BRANCH   7   8
ATOM      8  N   UNL     1       5.314   5.912  18.081  0.00  0.00    +0.000 NA
ATOM      9  H   UNL     1       6.191   6.314  17.754  0.00  0.00    +0.000 HD
BRANCH   8  10
ATOM     10  C   UNL     1       4.792   4.980  17.080  0.00  0.00    +0.000 C 
BRANCH  10  11
ATOM     11  C   UNL     1       4.259   3.730  17.769  0.00  0.00    +0.000 C 
BRANCH  11  12
ATOM     12  C   UNL     1       3.267   3.006  16.857  0.00  0.00    +0.000 C 
BRANCH  12  13
ATOM     13  C   UNL     1       2.318   2.151  17.684  0.00  0.00    +0.000 C 
BRANCH  13  14
ATOM     14  N   UNL     1       2.268   2.652  19.052  0.00  0.00    +0.000 NA
ATOM     15  H   UNL     1       2.909   3.439  19.161  0.00  0.00    +0.000 HD
BRANCH  14  16
ATOM     16  C   UNL     1       0.908   3.082  19.370  0.00  0.00    +0.000 C 
BRANCH  16  17
ATOM     17  C   UNL     1       0.941   4.084  20.516  0.00  0.00    +0.000 C 
BRANCH  17  18
ATOM     18  C   UNL     1       2.300   4.055  21.203  0.00  0.00    +0.000 C 
BRANCH  18  19
ATOM     19  N   UNL     1       2.306   3.021  22.228  0.00  0.00    +0.000 NA
ATOM     20  H   UNL     1       3.008   3.246  22.934  0.00  0.00    +0.000 HD
ATOM     21  H   UNL     1       2.589   2.134  21.816  0.00  0.00    +0.000 HD
ENDBRANCH  18  19
ENDBRANCH  17  18
ENDBRANCH  16  17
ENDBRANCH  14  16
ENDBRANCH  13  14
ENDBRANCH  12  13
ENDBRANCH  11  12
ENDBRANCH  10  11
ENDBRANCH   8  10
ENDBRANCH   7   8
ENDBRANCH   6   7
ENDBRANCH   5   6
ENDBRANCH   3   5
BRANCH   1  22
ATOM     22  C   UNL     1       8.189   9.513  17.837  0.00  0.00    +0.000 C 
BRANCH  22  23
ATOM     23  C   UNL     1       9.057   9.669  19.077  0.00  0.00    +0.000 C 
BRANCH  23  24
ATOM     24  C   UNL     1       9.421  11.126  19.340  0.00  0.00    +0.000 C 
BRANCH  24  25
ATOM     25  C   UNL     1      10.934  11.302  19.308  0.00  0.00    +0.000 C 
BRANCH  25  26
ATOM     26  C   UNL     1      11.382  11.757  17.929  0.00  0.00    +0.000 C 
BRANCH  26  27
ATOM     27  C   UNL     1      12.225  13.017  18.040  0.00  0.00    +0.000 C 
BRANCH  27  28
ATOM     28  C   UNL     1      12.212  13.527  19.470  0.00  0.00    +0.000 C 
BRANCH  28  29
ATOM     29  C   UNL     1      12.333  15.040  19.482  0.00  0.00    +0.000 C 
BRANCH  29  30
ATOM     30  C   UNL     1      11.152  15.648  20.219  0.00  0.00    +0.000 C 
BRANCH  30  31
ATOM     31  C   UNL     1       9.903  14.824  19.962  0.00  0.00    +0.000 C 
BRANCH  31  32
ATOM     32  C   UNL     1       8.752  15.353  20.799  0.00  0.00    +0.000 C 
BRANCH  32  33
ATOM     33  C   UNL     1       7.483  14.580  20.488  0.00  0.00    +0.000 C 
BRANCH  33  34
ATOM     34  C   UNL     1       6.412  15.522  19.963  0.00  0.00    +0.000 C 
BRANCH  34  36
ATOM     35  C   UNL     1       6.812  14.380  17.780  0.00  0.00    +0.000 C 
ATOM     36  C   UNL     1       6.558  15.711  18.460  0.00  0.00    +0.000 C 
ENDBRANCH  34  36
ENDBRANCH  33  34
ENDBRANCH  32  33
ENDBRANCH  31  32
ENDBRANCH  30  31
ENDBRANCH  29  30
ENDBRANCH  28  29
ENDBRANCH  27  28
ENDBRANCH  26  27
ENDBRANCH  25  26
ENDBRANCH  24  25
ENDBRANCH  23  24
ENDBRANCH  22  23
ENDBRANCH   1  22
TORSDOF 27
ENDMDL
MODEL 6
REMARK VINA RESULT:      -5.0      4.336      8.177
REMARK  Name = 
REMARK  28 active torsions:
REMARK  status: ('A' for Active; 'I' for Inactive)
REMARK    1  A    between atoms: C_1  and  C_2
REMARK    2  A    between atoms: C_2  and  C_3
REMARK    3  A    between atoms: C_3  and  C_4
REMARK    4  A    between atoms: C_4  and  C_5
REMARK    5  A    between atoms: C_5  and  C_6
REMARK    6  A    between atoms: C_6  and  C_7
REMARK    7  A    between atoms: C_7  and  C_8
REMARK    8  A    between atoms: C_8  and  C_9
REMARK    9  A    between atoms: C_9  and  C_10
REMARK   10  A    between atoms: C_10  and  C_11
REMARK   11  A    between atoms: C_11  and  C_12
REMARK   12  A    between atoms: C_12  and  C_13
REMARK   13  A    between atoms: C_13  and  C_14
REMARK   14  A    between atoms: C_14  and  C_15
REMARK   15  A    between atoms: C_15  and  C_16
REMARK   16  A    between atoms: N_18  and  C_19
REMARK   17  A    between atoms: C_19  and  C_20
REMARK   18  A    between atoms: C_20  and  C_21
REMARK   19  A    between atoms: C_21  and  N_22
REMARK   20  A    between atoms: N_22  and  C_23
REMARK   21  A    between atoms: C_23  and  C_24
REMARK   22  A    between atoms: C_24  and  C_25
REMARK   23  A    between atoms: C_25  and  C_26
REMARK   24  A    between atoms: C_26  and  N_27
REMARK   25  A    between atoms: N_27  and  C_28
REMARK   26  A    between atoms: C_28  and  C_29
REMARK   27  A    between atoms: C_29  and  C_30
REMARK   28  A    between atoms: C_30  and  N_31
REMARK                            x       y       z     vdW  Elec       q    Type
REMARK                         _______ _______ _______ _____ _____    ______ ____
ROOT
ATOM      1  C   UNL     1       4.202   3.125  18.048  0.00  0.00    +0.000 C 
ATOM      2  O   UNL     1       3.196   2.675  17.491  0.00  0.00    +0.000 OA
ATOM      3  N   UNL     1       4.377   3.128  19.412  0.00  0.00    +0.000 N 
ATOM      4  H   UNL     1       5.239   3.495  19.803  0.00  0.00    +0.000 HD
ENDROOT
BRANCH   3   5
ATOM      5  C   UNL     1       3.361   2.597  20.298  0.00  0.00    +0.000 C 
BRANCH   5   6
ATOM      6  C   UNL     1       2.699   3.663  21.172  0.00  0.00    +0.000 C 
BRANCH   6   7
ATOM      7  C   UNL     1       1.372   4.104  20.548  0.00  0.00    +0.000 C 
BRANCH   7   8
ATOM      8  N   UNL     1       1.609   4.731  19.251  0.00  0.00    +0.000 NA
ATOM      9  H   UNL     1       0.726   4.837  18.754  0.00  0.00    +0.000 HD
BRANCH   8  10
ATOM     10  C   UNL     1       2.243   6.039  19.422  0.00  0.00    +0.000 C 
BRANCH  10  11
ATOM     11  C   UNL     1       2.495   6.671  18.059  0.00  0.00    +0.000 C 
BRANCH  11  12
ATOM     12  C   UNL     1       2.718   8.177  18.209  0.00  0.00    +0.000 C 
BRANCH  12  13
ATOM     13  C   UNL     1       1.461   8.937  17.811  0.00  0.00    +0.000 C 
BRANCH  13  14
ATOM     14  N   UNL     1       1.097   9.876  18.865  0.00  0.00    +0.000 NA
ATOM     15  H   UNL     1       1.835  10.571  18.986  0.00  0.00    +0.000 HD
BRANCH  14  16
ATOM     16  C   UNL     1      -0.153  10.548  18.517  0.00  0.00    +0.000 C 
BRANCH  16  17
ATOM     17  C   UNL     1      -0.515  11.554  19.600  0.00  0.00    +0.000 C 
BRANCH  17  18
ATOM     18  C   UNL     1      -1.165  12.785  18.980  0.00  0.00    +0.000 C 
BRANCH  18  19
ATOM     19  N   UNL     1      -1.127  12.676  17.528  0.00  0.00    +0.000 NA
ATOM     20  H   UNL     1      -2.077  12.722  17.159  0.00  0.00    +0.000 HD
ATOM     21  H   UNL     1      -0.761  11.763  17.265  0.00  0.00    +0.000 HD
ENDBRANCH  18  19
ENDBRANCH  17  18
ENDBRANCH  16  17
ENDBRANCH  14  16
ENDBRANCH  13  14
ENDBRANCH  12  13
ENDBRANCH  11  12
ENDBRANCH  10  11
ENDBRANCH   8  10
ENDBRANCH   7   8
ENDBRANCH   6   7
ENDBRANCH   5   6
ENDBRANCH   3   5
BRANCH   1  22
ATOM     22  C   UNL     1       5.358   3.703  17.258  0.00  0.00    +0.000 C 
BRANCH  22  23
ATOM     23  C   UNL     1       4.861   4.618  16.149  0.00  0.00    +0.000 C 
BRANCH  23  24
ATOM     24  C   UNL     1       5.915   5.642  15.739  0.00  0.00    +0.000 C 
BRANCH  24  25
ATOM     25  C   UNL     1       5.834   6.868  16.639  0.00  0.00    +0.000 C 
BRANCH  25  26
ATOM     26  C   UNL     1       6.303   6.523  18.042  0.00  0.00    +0.000 C 
BRANCH  26  27
ATOM     27  C   UNL     1       7.763   6.909  18.218  0.00  0.00    +0.000 C 
BRANCH  27  28
ATOM     28  C   UNL     1       8.011   8.284  17.624  0.00  0.00    +0.000 C 
BRANCH  28  29
ATOM     29  C   UNL     1       8.727   9.164  18.633  0.00  0.00    +0.000 C 
BRANCH  29  30
ATOM     30  C   UNL     1       8.562  10.625  18.255  0.00  0.00    +0.000 C 
BRANCH  30  31
ATOM     31  C   UNL     1       9.912  11.223  17.903  0.00  0.00    +0.000 C 
BRANCH  31  32
ATOM     32  C   UNL     1      10.661  11.594  19.171  0.00  0.00    +0.000 C 
BRANCH  32  33
ATOM     33  C   UNL     1       9.911  12.681  19.921  0.00  0.00    +0.000 C 
BRANCH  33  34
ATOM     34  C   UNL     1       9.794  12.317  21.391  0.00  0.00    +0.000 C 
BRANCH  34  36
ATOM     35  C   UNL     1       9.949  14.715  22.064  0.00  0.00    +0.000 C 
ATOM     36  C   UNL     1       9.130  13.444  22.169  0.00  0.00    +0.000 C 
ENDBRANCH  34  36
ENDBRANCH  33  34
ENDBRANCH  32  33
ENDBRANCH  31  32
ENDBRANCH  30  31
ENDBRANCH  29  30
ENDBRANCH  28  29
ENDBRANCH  27  28
ENDBRANCH  26  27
ENDBRANCH  25  26
ENDBRANCH  24  25
ENDBRANCH  23  24
ENDBRANCH  22  23
ENDBRANCH   1  22
TORSDOF 27
ENDMDL
MODEL 7
REMARK VINA RESULT:      -5.0      4.931      8.977
REMARK  Name = 
REMARK  28 active torsions:
REMARK  status: ('A' for Active; 'I' for Inactive)
REMARK    1  A    between atoms: C_1  and  C_2
REMARK    2  A    between atoms: C_2  and  C_3
REMARK    3  A    between atoms: C_3  and  C_4
REMARK    4  A    between atoms: C_4  and  C_5
REMARK    5  A    between atoms: C_5  and  C_6
REMARK    6  A    between atoms: C_6  and  C_7
REMARK    7  A    between atoms: C_7  and  C_8
REMARK    8  A    between atoms: C_8  and  C_9
REMARK    9  A    between atoms: C_9  and  C_10
REMARK   10  A    between atoms: C_10  and  C_11
REMARK   11  A    between atoms: C_11  and  C_12
REMARK   12  A    between atoms: C_12  and  C_13
REMARK   13  A    between atoms: C_13  and  C_14
REMARK   14  A    between atoms: C_14  and  C_15
REMARK   15  A    between atoms: C_15  and  C_16
REMARK   16  A    between atoms: N_18  and  C_19
REMARK   17  A    between atoms: C_19  and  C_20
REMARK   18  A    between atoms: C_20  and  C_21
REMARK   19  A    between atoms: C_21  and  N_22
REMARK   20  A    between atoms: N_22  and  C_23
REMARK   21  A    between atoms: C_23  and  C_24
REMARK   22  A    between atoms: C_24  and  C_25
REMARK   23  A    between atoms: C_25  and  C_26
REMARK   24  A    between atoms: C_26  and  N_27
REMARK   25  A    between atoms: N_27  and  C_28
REMARK   26  A    between atoms: C_28  and  C_29
REMARK   27  A    between atoms: C_29  and  C_30
REMARK   28  A    between atoms: C_30  and  N_31
REMARK                            x       y       z     vdW  Elec       q    Type
REMARK                         _______ _______ _______ _____ _____    ______ ____
ROOT
ATOM      1  C   UNL     1       8.012   7.640  18.110  0.00  0.00    +0.000 C 
ATOM      2  O   UNL     1       7.467   7.938  17.043  0.00  0.00    +0.000 OA
ATOM      3  N   UNL     1       8.713   8.536  18.882  0.00  0.00    +0.000 N 
ATOM      4  H   UNL     1       9.119   8.228  19.759  0.00  0.00    +0.000 HD
ENDROOT
BRANCH   3   5
ATOM      5  C   UNL     1       8.863   9.918  18.473  0.00  0.00    +0.000 C 
BRANCH   5   6
ATOM      6  C   UNL     1       9.575  10.787  19.511  0.00  0.00    +0.000 C 
BRANCH   6   7
ATOM      7  C   UNL     1       9.654  12.234  19.018  0.00  0.00    +0.000 C 
BRANCH   7   8
ATOM      8  N   UNL     1       8.789  13.089  19.825  0.00  0.00    +0.000 NA
ATOM      9  H   UNL     1       9.045  13.007  20.808  0.00  0.00    +0.000 HD
BRANCH   8  10
ATOM     10  C   UNL     1       8.903  14.484  19.397  0.00  0.00    +0.000 C 
BRANCH  10  11
ATOM     11  C   UNL     1       8.480  14.611  17.939  0.00  0.00    +0.000 C 
BRANCH  11  12
ATOM     12  C   UNL     1       6.962  14.467  17.816  0.00  0.00    +0.000 C 
BRANCH  12  13
ATOM     13  C   UNL     1       6.263  15.531  18.648  0.00  0.00    +0.000 C 
BRANCH  13  14
ATOM     14  N   UNL     1       5.067  14.969  19.265  0.00  0.00    +0.000 NA
ATOM     15  H   UNL     1       5.204  14.873  20.272  0.00  0.00    +0.000 HD
BRANCH  14  16
ATOM     16  C   UNL     1       3.923  15.843  19.010  0.00  0.00    +0.000 C 
BRANCH  16  17
ATOM     17  C   UNL     1       2.862  15.626  20.080  0.00  0.00    +0.000 C 
BRANCH  17  18
ATOM     18  C   UNL     1       3.519  15.282  21.411  0.00  0.00    +0.000 C 
BRANCH  18  19
ATOM     19  N   UNL     1       3.304  13.873  21.709  0.00  0.00    +0.000 NA
ATOM     20  H   UNL     1       4.175  13.360  21.573  0.00  0.00    +0.000 HD
ATOM     21  H   UNL     1       2.635  13.483  21.048  0.00  0.00    +0.000 HD
ENDBRANCH  18  19
ENDBRANCH  17  18
ENDBRANCH  16  17
ENDBRANCH  14  16
ENDBRANCH  13  14
ENDBRANCH  12  13
ENDBRANCH  11  12
ENDBRANCH  10  11
ENDBRANCH   8  10
ENDBRANCH   7   8
ENDBRANCH   6   7
ENDBRANCH   5   6
ENDBRANCH   3   5
BRANCH   1  22
ATOM     22  C   UNL     1       7.935   6.237  18.677  0.00  0.00    +0.000 C 
BRANCH  22  23
ATOM     23  C   UNL     1       6.904   5.400  17.936  0.00  0.00    +0.000 C 
BRANCH  23  24
ATOM     24  C   UNL     1       5.524   5.494  18.577  0.00  0.00    +0.000 C 
BRANCH  24  25
ATOM     25  C   UNL     1       4.460   5.696  17.506  0.00  0.00    +0.000 C 
BRANCH  25  26
ATOM     26  C   UNL     1       3.678   6.970  17.773  0.00  0.00    +0.000 C 
BRANCH  26  27
ATOM     27  C   UNL     1       2.324   6.639  18.378  0.00  0.00    +0.000 C 
BRANCH  27  28
ATOM     28  C   UNL     1       2.395   6.731  19.892  0.00  0.00    +0.000 C 
BRANCH  28  29
ATOM     29  C   UNL     1       2.129   5.368  20.507  0.00  0.00    +0.000 C 
BRANCH  29  30
ATOM     30  C   UNL     1       1.083   4.628  19.693  0.00  0.00    +0.000 C 
BRANCH  30  31
ATOM     31  C   UNL     1       1.024   3.175  20.127  0.00  0.00    +0.000 C 
BRANCH  31  32
ATOM     32  C   UNL     1       0.874   2.276  18.912  0.00  0.00    +0.000 C 
BRANCH  32  33
ATOM     33  C   UNL     1       2.051   2.470  17.972  0.00  0.00    +0.000 C 
BRANCH  33  34
ATOM     34  C   UNL     1       3.210   1.582  18.394  0.00  0.00    +0.000 C 
BRANCH  34  36
ATOM     35  C   UNL     1       4.442   2.098  20.502  0.00  0.00    +0.000 C 
ATOM     36  C   UNL     1       4.318   2.414  19.024  0.00  0.00    +0.000 C 
ENDBRANCH  34  36
ENDBRANCH  33  34
ENDBRANCH  32  33
ENDBRANCH  31  32
ENDBRANCH  30  31
ENDBRANCH  29  30
ENDBRANCH  28  29
ENDBRANCH  27  28
ENDBRANCH  26  27
ENDBRANCH  25  26
ENDBRANCH  24  25
ENDBRANCH  23  24
ENDBRANCH  22  23
ENDBRANCH   1  22
TORSDOF 27
ENDMDL
MODEL 8
REMARK VINA RESULT:      -4.9      5.072     10.519
REMARK  Name = 
REMARK  28 active torsions:
REMARK  status: ('A' for Active; 'I' for Inactive)
REMARK    1  A    between atoms: C_1  and  C_2
REMARK    2  A    between atoms: C_2  and  C_3
REMARK    3  A    between atoms: C_3  and  C_4
REMARK    4  A    between atoms: C_4  and  C_5
REMARK    5  A    between atoms: C_5  and  C_6
REMARK    6  A    between atoms: C_6  and  C_7
REMARK    7  A    between atoms: C_7  and  C_8
REMARK    8  A    between atoms: C_8  and  C_9
REMARK    9  A    between atoms: C_9  and  C_10
REMARK   10  A    between atoms: C_10  and  C_11
REMARK   11  A    between atoms: C_11  and  C_12
REMARK   12  A    between atoms: C_12  and  C_13
REMARK   13  A    between atoms: C_13  and  C_14
REMARK   14  A    between atoms: C_14  and  C_15
REMARK   15  A    between atoms: C_15  and  C_16
REMARK   16  A    between atoms: N_18  and  C_19
REMARK   17  A    between atoms: C_19  and  C_20
REMARK   18  A    between atoms: C_20  and  C_21
REMARK   19  A    between atoms: C_21  and  N_22
REMARK   20  A    between atoms: N_22  and  C_23
REMARK   21  A    between atoms: C_23  and  C_24
REMARK   22  A    between atoms: C_24  and  C_25
REMARK   23  A    between atoms: C_25  and  C_26
REMARK   24  A    between atoms: C_26  and  N_27
REMARK   25  A    between atoms: N_27  and  C_28
REMARK   26  A    between atoms: C_28  and  C_29
REMARK   27  A    between atoms: C_29  and  C_30
REMARK   28  A    between atoms: C_30  and  N_31
REMARK                            x       y       z     vdW  Elec       q    Type
REMARK                         _______ _______ _______ _____ _____    ______ ____
ROOT
ATOM      1  C   UNL     1       2.207   6.493  20.244  0.00  0.00    +0.000 C 
ATOM      2  O   UNL     1       2.574   6.853  19.120  0.00  0.00    +0.000 OA
ATOM      3  N   UNL     1       1.543   7.314  21.123  0.00  0.00    +0.000 N 
ATOM      4  H   UNL     1       1.252   6.948  22.024  0.00  0.00    +0.000 HD
ENDROOT
BRANCH   3   5
ATOM      5  C   UNL     1       1.234   8.688  20.779  0.00  0.00    +0.000 C 
BRANCH   5   6
ATOM      6  C   UNL     1       0.773   9.526  21.972  0.00  0.00    +0.000 C 
BRANCH   6   7
ATOM      7  C   UNL     1      -0.195  10.616  21.504  0.00  0.00    +0.000 C 
BRANCH   7   8
ATOM      8  N   UNL     1       0.497  11.898  21.412  0.00  0.00    +0.000 NA
ATOM      9  H   UNL     1       0.716  12.101  20.437  0.00  0.00    +0.000 HD
BRANCH   8  10
ATOM     10  C   UNL     1      -0.332  12.969  21.968  0.00  0.00    +0.000 C 
BRANCH  10  11
ATOM     11  C   UNL     1      -1.496  12.368  22.746  0.00  0.00    +0.000 C 
BRANCH  11  12
ATOM     12  C   UNL     1      -2.197  13.451  23.567  0.00  0.00    +0.000 C 
BRANCH  12  13
ATOM     13  C   UNL     1      -3.585  12.982  23.980  0.00  0.00    +0.000 C 
BRANCH  13  14
ATOM     14  N   UNL     1      -4.218  12.277  22.872  0.00  0.00    +0.000 NA
ATOM     15  H   UNL     1      -4.776  11.499  23.226  0.00  0.00    +0.000 HD
BRANCH  14  16
ATOM     16  C   UNL     1      -5.077  13.196  22.129  0.00  0.00    +0.000 C 
BRANCH  16  17
ATOM     17  C   UNL     1      -4.801  13.065  20.638  0.00  0.00    +0.000 C 
BRANCH  17  18
ATOM     18  C   UNL     1      -5.782  13.920  19.844  0.00  0.00    +0.000 C 
BRANCH  18  19
ATOM     19  N   UNL     1      -5.732  13.540  18.439  0.00  0.00    +0.000 NA
ATOM     20  H   UNL     1      -5.829  14.374  17.859  0.00  0.00    +0.000 HD
ATOM     21  H   UNL     1      -6.527  12.944  18.219  0.00  0.00    +0.000 HD
ENDBRANCH  18  19
ENDBRANCH  17  18
ENDBRANCH  16  17
ENDBRANCH  14  16
ENDBRANCH  13  14
ENDBRANCH  12  13
ENDBRANCH  11  12
ENDBRANCH  10  11
ENDBRANCH   8  10
ENDBRANCH   7   8
ENDBRANCH   6   7
ENDBRANCH   5   6
ENDBRANCH   3   5
BRANCH   1  22
ATOM     22  C   UNL     1       2.446   5.085  20.745  0.00  0.00    +0.000 C 
BRANCH  22  23
ATOM     23  C   UNL     1       1.226   4.205  20.516  0.00  0.00    +0.000 C 
BRANCH  23  24
ATOM     24  C   UNL     1       1.604   2.843  19.944  0.00  0.00    +0.000 C 
BRANCH  24  25
ATOM     25  C   UNL     1       1.266   2.785  18.460  0.00  0.00    +0.000 C 
BRANCH  25  26
ATOM     26  C   UNL     1       2.454   2.266  17.668  0.00  0.00    +0.000 C 
BRANCH  26  27
ATOM     27  C   UNL     1       3.751   2.791  18.262  0.00  0.00    +0.000 C 
BRANCH  27  28
ATOM     28  C   UNL     1       4.147   4.089  17.581  0.00  0.00    +0.000 C 
BRANCH  28  29
ATOM     29  C   UNL     1       5.656   4.160  17.437  0.00  0.00    +0.000 C 
BRANCH  29  30
ATOM     30  C   UNL     1       6.118   5.604  17.532  0.00  0.00    +0.000 C 
BRANCH  30  31
ATOM     31  C   UNL     1       7.590   5.652  17.897  0.00  0.00    +0.000 C 
BRANCH  31  32
ATOM     32  C   UNL     1       7.943   7.022  18.450  0.00  0.00    +0.000 C 
BRANCH  32  33
ATOM     33  C   UNL     1       7.394   8.108  17.541  0.00  0.00    +0.000 C 
BRANCH  33  34
ATOM     34  C   UNL     1       8.205   9.382  17.699  0.00  0.00    +0.000 C 
BRANCH  34  36
ATOM     35  C   UNL     1       9.410  10.755  19.399  0.00  0.00    +0.000 C 
ATOM     36  C   UNL     1       8.998   9.353  18.998  0.00  0.00    +0.000 C 
ENDBRANCH  34  36
ENDBRANCH  33  34
ENDBRANCH  32  33
ENDBRANCH  31  32
ENDBRANCH  30  31
ENDBRANCH  29  30
ENDBRANCH  28  29
ENDBRANCH  27  28
ENDBRANCH  26  27
ENDBRANCH  25  26
ENDBRANCH  24  25
ENDBRANCH  23  24
ENDBRANCH  22  23
ENDBRANCH   1  22
TORSDOF 27
ENDMDL
MODEL 9
REMARK VINA RESULT:      -4.9      2.987      5.915
REMARK  Name = 
REMARK  28 active torsions:
REMARK  status: ('A' for Active; 'I' for Inactive)
REMARK    1  A    between atoms: C_1  and  C_2
REMARK    2  A    between atoms: C_2  and  C_3
REMARK    3  A    between atoms: C_3  and  C_4
REMARK    4  A    between atoms: C_4  and  C_5
REMARK    5  A    between atoms: C_5  and  C_6
REMARK    6  A    between atoms: C_6  and  C_7
REMARK    7  A    between atoms: C_7  and  C_8
REMARK    8  A    between atoms: C_8  and  C_9
REMARK    9  A    between atoms: C_9  and  C_10
REMARK   10  A    between atoms: C_10  and  C_11
REMARK   11  A    between atoms: C_11  and  C_12
REMARK   12  A    between atoms: C_12  and  C_13
REMARK   13  A    between atoms: C_13  and  C_14
REMARK   14  A    between atoms: C_14  and  C_15
REMARK   15  A    between atoms: C_15  and  C_16
REMARK   16  A    between atoms: N_18  and  C_19
REMARK   17  A    between atoms: C_19  and  C_20
REMARK   18  A    between atoms: C_20  and  C_21
REMARK   19  A    between atoms: C_21  and  N_22
REMARK   20  A    between atoms: N_22  and  C_23
REMARK   21  A    between atoms: C_23  and  C_24
REMARK   22  A    between atoms: C_24  and  C_25
REMARK   23  A    between atoms: C_25  and  C_26
REMARK   24  A    between atoms: C_26  and  N_27
REMARK   25  A    between atoms: N_27  and  C_28
REMARK   26  A    between atoms: C_28  and  C_29
REMARK   27  A    between atoms: C_29  and  C_30
REMARK   28  A    between atoms: C_30  and  N_31
REMARK                            x       y       z     vdW  Elec       q    Type
REMARK                         _______ _______ _______ _____ _____    ______ ____
ROOT
ATOM      1  C   UNL     1       2.647   6.184  19.918  0.00  0.00    +0.000 C 
ATOM      2  O   UNL     1       3.778   5.824  19.574  0.00  0.00    +0.000 OA
ATOM      3  N   UNL     1       1.779   5.386  20.624  0.00  0.00    +0.000 N 
ATOM      4  H   UNL     1       0.871   5.752  20.893  0.00  0.00    +0.000 HD
ENDROOT
BRANCH   3   5
ATOM      5  C   UNL     1       2.146   4.037  21.009  0.00  0.00    +0.000 C 
BRANCH   5   6
ATOM      6  C   UNL     1       0.998   3.035  20.886  0.00  0.00    +0.000 C 
BRANCH   6   7
ATOM      7  C   UNL     1       0.792   2.651  19.418  0.00  0.00    +0.000 C 
BRANCH   7   8
ATOM      8  N   UNL     1       1.766   3.340  18.576  0.00  0.00    +0.000 NA
ATOM      9  H   UNL     1       2.429   3.846  19.161  0.00  0.00    +0.000 HD
BRANCH   8  10
ATOM     10  C   UNL     1       2.480   2.382  17.730  0.00  0.00    +0.000 C 
BRANCH  10  11
ATOM     11  C   UNL     1       3.950   2.772  17.639  0.00  0.00    +0.000 C 
BRANCH  11  12
ATOM     12  C   UNL     1       4.109   4.038  16.794  0.00  0.00    +0.000 C 
BRANCH  12  13
ATOM     13  C   UNL     1       5.389   3.965  15.974  0.00  0.00    +0.000 C 
BRANCH  13  14
ATOM     14  N   UNL     1       5.893   5.311  15.725  0.00  0.00    +0.000 NA
ATOM     15  H   UNL     1       5.190   6.002  15.989  0.00  0.00    +0.000 HD
BRANCH  14  16
ATOM     16  C   UNL     1       7.111   5.534  16.501  0.00  0.00    +0.000 C 
BRANCH  16  17
ATOM     17  C   UNL     1       6.853   6.584  17.572  0.00  0.00    +0.000 C 
BRANCH  17  18
ATOM     18  C   UNL     1       7.806   6.386  18.744  0.00  0.00    +0.000 C 
BRANCH  18  19
ATOM     19  N   UNL     1       7.340   5.280  19.569  0.00  0.00    +0.000 NA
ATOM     20  H   UNL     1       6.389   5.030  19.296  0.00  0.00    +0.000 HD
ATOM     21  H   UNL     1       7.290   5.577  20.541  0.00  0.00    +0.000 HD
ENDBRANCH  18  19
ENDBRANCH  17  18
ENDBRANCH  16  17
ENDBRANCH  14  16
ENDBRANCH  13  14
ENDBRANCH  12  13
ENDBRANCH  11  12
ENDBRANCH  10  11
ENDBRANCH   8  10
ENDBRANCH   7   8
ENDBRANCH   6   7
ENDBRANCH   5   6
ENDBRANCH   3   5
BRANCH   1  22
ATOM     22  C   UNL     1       2.122   7.568  19.601  0.00  0.00    +0.000 C 
BRANCH  22  23
ATOM     23  C   UNL     1       2.247   7.877  18.116  0.00  0.00    +0.000 C 
BRANCH  23  24
ATOM     24  C   UNL     1       1.545   9.178  17.742  0.00  0.00    +0.000 C 
BRANCH  24  25
ATOM     25  C   UNL     1       1.371  10.053  18.976  0.00  0.00    +0.000 C 
BRANCH  25  26
ATOM     26  C   UNL     1       0.376  11.167  18.696  0.00  0.00    +0.000 C 
BRANCH  26  27
ATOM     27  C   UNL     1      -1.043  10.679  18.938  0.00  0.00    +0.000 C 
BRANCH  27  28
ATOM     28  C   UNL     1      -1.799  11.683  19.790  0.00  0.00    +0.000 C 
BRANCH  28  29
ATOM     29  C   UNL     1      -0.830  12.453  20.668  0.00  0.00    +0.000 C 
BRANCH  29  30
ATOM     30  C   UNL     1      -0.719  11.784  22.027  0.00  0.00    +0.000 C 
BRANCH  30  31
ATOM     31  C   UNL     1      -1.427  12.623  23.075  0.00  0.00    +0.000 C 
BRANCH  31  32
ATOM     32  C   UNL     1      -2.739  11.966  23.465  0.00  0.00    +0.000 C 
BRANCH  32  33
ATOM     33  C   UNL     1      -3.716  13.013  23.971  0.00  0.00    +0.000 C 
BRANCH  33  34
ATOM     34  C   UNL     1      -3.383  14.371  23.377  0.00  0.00    +0.000 C 
BRANCH  34  36
ATOM     35  C   UNL     1      -5.585  15.431  22.876  0.00  0.00    +0.000 C 
ATOM     36  C   UNL     1      -4.377  14.734  22.283  0.00  0.00    +0.000 C 
ENDBRANCH  34  36
ENDBRANCH  33  34
ENDBRANCH  32  33
ENDBRANCH  31  32
ENDBRANCH  30  31
ENDBRANCH  29  30
ENDBRANCH  28  29
ENDBRANCH  27  28
ENDBRANCH  26  27
ENDBRANCH  25  26
ENDBRANCH  24  25
ENDBRANCH  23  24
ENDBRANCH  22  23
ENDBRANCH   1  22
TORSDOF 27
ENDMDL
