MODEL 1
REMARK VINA RESULT:      -6.4      0.000      0.000
REMARK  Name = 
REMARK  7 active torsions:
REMARK  status: ('A' for Active; 'I' for Inactive)
REMARK    1  A    between atoms: C_1  and  C_2
REMARK    2  A    between atoms: C_2  and  C_3
REMARK    3  A    between atoms: C_2  and  C_4
REMARK    4  A    between atoms: C_2  and  C_6
REMARK    5  A    between atoms: N_8  and  C_9
REMARK    6  A    between atoms: C_12  and  S_13
REMARK    7  A    between atoms: S_13  and  C_14
REMARK                            x       y       z     vdW  Elec       q    Type
REMARK                         _______ _______ _______ _____ _____    ______ ____
ROOT
ATOM      1  C   UNL     1       2.509   7.147  18.886  0.00  0.00    +0.000 A 
ATOM      2  C   UNL     1       2.296   8.193  17.980  0.00  0.00    +0.000 A 
ATOM      3  C   UNL     1       1.650   9.368  18.368  0.00  0.00    +0.000 A 
ATOM      4  C   UNL     1       1.197   9.502  19.676  0.00  0.00    +0.000 A 
ATOM      5  C   UNL     1       1.354   8.454  20.573  0.00  0.00    +0.000 A 
ATOM      6  F   UNL     1       0.927   8.562  21.838  0.00  0.00    +0.000 F 
ATOM      7  C   UNL     1       1.995   7.271  20.182  0.00  0.00    +0.000 A 
ENDROOT
BRANCH   1  10
ATOM      8  C   UNL     1       2.664   4.841  17.963  0.00  0.00    +0.000 C 
ATOM      9  O   UNL     1       1.481   4.760  17.639  0.00  0.00    +0.000 OA
ATOM     10  N   UNL     1       3.231   5.975  18.545  0.00  0.00    +0.000 N 
ATOM     11  H   UNL     1       4.243   6.054  18.554  0.00  0.00    +0.000 HD
BRANCH   8  13
ATOM     12  C   UNL     1       2.802   2.350  17.577  0.00  0.00    +0.000 C 
ATOM     13  C   UNL     1       3.603   3.647  17.728  0.00  0.00    +0.000 C 
ATOM     14  C   UNL     1       4.401   3.893  16.432  0.00  0.00    +0.000 C 
BRANCH  13  15
ATOM     15  C   UNL     1       4.538   3.539  18.859  0.00  0.00    +0.000 C 
ATOM     16  N   UNL     1       5.311   3.441  19.720  0.00  0.00    +0.000 NA
ENDBRANCH  13  15
ENDBRANCH   8  13
ENDBRANCH   1  10
BRANCH   4  17
ATOM     17  S   UNL     1       0.398  10.993  20.175  0.00  0.00    +0.000 S 
ATOM     18  C   UNL     1       0.572  12.097  18.800  0.00  0.00    +0.000 C 
ATOM     19  O   UNL     1      -1.019  10.700  20.301  0.00  0.00    +0.000 OA
ATOM     20  O   UNL     1       1.138  11.522  21.303  0.00  0.00    +0.000 OA
ENDBRANCH   4  17
TORSDOF 4
ENDMDL
MODEL 2
REMARK VINA RESULT:      -6.3      1.708      1.863
REMARK  Name = 
REMARK  7 active torsions:
REMARK  status: ('A' for Active; 'I' for Inactive)
REMARK    1  A    between atoms: C_1  and  C_2
REMARK    2  A    between atoms: C_2  and  C_3
REMARK    3  A    between atoms: C_2  and  C_4
REMARK    4  A    between atoms: C_2  and  C_6
REMARK    5  A    between atoms: N_8  and  C_9
REMARK    6  A    between atoms: C_12  and  S_13
REMARK    7  A    between atoms: S_13  and  C_14
REMARK                            x       y       z     vdW  Elec       q    Type
REMARK                         _______ _______ _______ _____ _____    ______ ____
ROOT
ATOM      1  C   UNL     1       2.747   7.107  18.338  0.00  0.00    +0.000 A 
ATOM      2  C   UNL     1       2.415   8.241  17.588  0.00  0.00    +0.000 A 
ATOM      3  C   UNL     1       1.739   9.319  18.161  0.00  0.00    +0.000 A 
ATOM      4  C   UNL     1       1.375   9.263  19.503  0.00  0.00    +0.000 A 
ATOM      5  C   UNL     1       1.649   8.125  20.247  0.00  0.00    +0.000 A 
ATOM      6  F   UNL     1       1.309   8.051  21.541  0.00  0.00    +0.000 F 
ATOM      7  C   UNL     1       2.321   7.040  19.670  0.00  0.00    +0.000 A 
ENDROOT
BRANCH   1  10
ATOM      8  C   UNL     1       4.814   6.145  17.341  0.00  0.00    +0.000 C 
ATOM      9  O   UNL     1       5.469   7.183  17.393  0.00  0.00    +0.000 OA
ATOM     10  N   UNL     1       3.503   6.032  17.805  0.00  0.00    +0.000 N 
ATOM     11  H   UNL     1       3.126   5.101  17.952  0.00  0.00    +0.000 HD
BRANCH   8  13
ATOM     12  C   UNL     1       4.527   3.666  16.958  0.00  0.00    +0.000 C 
ATOM     13  C   UNL     1       5.441   4.877  16.740  0.00  0.00    +0.000 C 
ATOM     14  C   UNL     1       5.633   5.089  15.225  0.00  0.00    +0.000 C 
BRANCH  13  15
ATOM     15  C   UNL     1       6.753   4.644  17.366  0.00  0.00    +0.000 C 
ATOM     16  N   UNL     1       7.764   4.455  17.904  0.00  0.00    +0.000 NA
ENDBRANCH  13  15
ENDBRANCH   8  13
ENDBRANCH   1  10
BRANCH   4  17
ATOM     17  S   UNL     1       0.537  10.631  20.237  0.00  0.00    +0.000 S 
ATOM     18  C   UNL     1       0.737  11.969  19.092  0.00  0.00    +0.000 C 
ATOM     19  O   UNL     1      -0.879  10.307  20.259  0.00  0.00    +0.000 OA
ATOM     20  O   UNL     1       1.233  10.953  21.467  0.00  0.00    +0.000 OA
ENDBRANCH   4  17
TORSDOF 4
ENDMDL
MODEL 3
REMARK VINA RESULT:      -6.2      1.430      2.025
REMARK  Name = 
REMARK  7 active torsions:
REMARK  status: ('A' for Active; 'I' for Inactive)
REMARK    1  A    between atoms: C_1  and  C_2
REMARK    2  A    between atoms: C_2  and  C_3
REMARK    3  A    between atoms: C_2  and  C_4
REMARK    4  A    between atoms: C_2  and  C_6
REMARK    5  A    between atoms: N_8  and  C_9
REMARK    6  A    between atoms: C_12  and  S_13
REMARK    7  A    between atoms: S_13  and  C_14
REMARK                            x       y       z     vdW  Elec       q    Type
REMARK                         _______ _______ _______ _____ _____    ______ ____
ROOT
ATOM      1  C   UNL     1       2.549   6.839  19.072  0.00  0.00    +0.000 A 
ATOM      2  C   UNL     1       2.088   7.025  20.380  0.00  0.00    +0.000 A 
ATOM      3  C   UNL     1       1.390   8.176  20.747  0.00  0.00    +0.000 A 
ATOM      4  C   UNL     1       1.154   9.166  19.799  0.00  0.00    +0.000 A 
ATOM      5  C   UNL     1       1.649   9.022  18.511  0.00  0.00    +0.000 A 
ATOM      6  F   UNL     1       1.433   9.962  17.581  0.00  0.00    +0.000 F 
ATOM      7  C   UNL     1       2.358   7.870  18.144  0.00  0.00    +0.000 A 
ENDROOT
BRANCH   1  10
ATOM      8  C   UNL     1       2.560   4.406  18.548  0.00  0.00    +0.000 C 
ATOM      9  O   UNL     1       1.364   4.229  18.769  0.00  0.00    +0.000 OA
ATOM     10  N   UNL     1       3.190   5.647  18.649  0.00  0.00    +0.000 N 
ATOM     11  H   UNL     1       4.103   5.757  18.219  0.00  0.00    +0.000 HD
BRANCH   8  13
ATOM     12  C   UNL     1       2.590   2.086  17.555  0.00  0.00    +0.000 C 
ATOM     13  C   UNL     1       3.444   3.219  18.132  0.00  0.00    +0.000 C 
ATOM     14  C   UNL     1       4.436   3.695  17.053  0.00  0.00    +0.000 C 
BRANCH  13  15
ATOM     15  C   UNL     1       4.196   2.743  19.305  0.00  0.00    +0.000 C 
ATOM     16  N   UNL     1       4.822   2.404  20.221  0.00  0.00    +0.000 NA
ENDBRANCH  13  15
ENDBRANCH   8  13
ENDBRANCH   1  10
BRANCH   4  17
ATOM     17  S   UNL     1       0.254  10.614  20.254  0.00  0.00    +0.000 S 
ATOM     18  C   UNL     1      -0.115  10.411  21.975  0.00  0.00    +0.000 C 
ATOM     19  O   UNL     1       1.168  11.738  20.151  0.00  0.00    +0.000 OA
ATOM     20  O   UNL     1      -0.984  10.606  19.500  0.00  0.00    +0.000 OA
ENDBRANCH   4  17
TORSDOF 4
ENDMDL
MODEL 4
REMARK VINA RESULT:      -6.2      1.961      2.463
REMARK  Name = 
REMARK  7 active torsions:
REMARK  status: ('A' for Active; 'I' for Inactive)
REMARK    1  A    between atoms: C_1  and  C_2
REMARK    2  A    between atoms: C_2  and  C_3
REMARK    3  A    between atoms: C_2  and  C_4
REMARK    4  A    between atoms: C_2  and  C_6
REMARK    5  A    between atoms: N_8  and  C_9
REMARK    6  A    between atoms: C_12  and  S_13
REMARK    7  A    between atoms: S_13  and  C_14
REMARK                            x       y       z     vdW  Elec       q    Type
REMARK                         _______ _______ _______ _____ _____    ______ ____
ROOT
ATOM      1  C   UNL     1       2.194   6.938  19.857  0.00  0.00    +0.000 A 
ATOM      2  C   UNL     1       1.571   7.558  20.947  0.00  0.00    +0.000 A 
ATOM      3  C   UNL     1       1.009   8.830  20.834  0.00  0.00    +0.000 A 
ATOM      4  C   UNL     1       1.077   9.505  19.620  0.00  0.00    +0.000 A 
ATOM      5  C   UNL     1       1.737   8.927  18.544  0.00  0.00    +0.000 A 
ATOM      6  F   UNL     1       1.813   9.558  17.365  0.00  0.00    +0.000 F 
ATOM      7  C   UNL     1       2.309   7.653  18.659  0.00  0.00    +0.000 A 
ENDROOT
BRANCH   1  10
ATOM      8  C   UNL     1       1.916   4.476  20.088  0.00  0.00    +0.000 C 
ATOM      9  O   UNL     1       0.689   4.498  20.154  0.00  0.00    +0.000 OA
ATOM     10  N   UNL     1       2.703   5.616  19.917  0.00  0.00    +0.000 N 
ATOM     11  H   UNL     1       3.668   5.493  19.629  0.00  0.00    +0.000 HD
BRANCH   8  13
ATOM     12  C   UNL     1       2.617   2.603  21.629  0.00  0.00    +0.000 C 
ATOM     13  C   UNL     1       2.662   3.136  20.193  0.00  0.00    +0.000 C 
ATOM     14  C   UNL     1       1.980   2.116  19.261  0.00  0.00    +0.000 C 
BRANCH  13  15
ATOM     15  C   UNL     1       4.057   3.327  19.764  0.00  0.00    +0.000 C 
ATOM     16  N   UNL     1       5.141   3.510  19.393  0.00  0.00    +0.000 NA
ENDBRANCH  13  15
ENDBRANCH   8  13
ENDBRANCH   1  10
BRANCH   4  17
ATOM     17  S   UNL     1       0.351  11.105  19.468  0.00  0.00    +0.000 S 
ATOM     18  C   UNL     1      -1.003  10.897  18.343  0.00  0.00    +0.000 C 
ATOM     19  O   UNL     1      -0.224  11.441  20.758  0.00  0.00    +0.000 OA
ATOM     20  O   UNL     1       1.341  11.972  18.860  0.00  0.00    +0.000 OA
ENDBRANCH   4  17
TORSDOF 4
ENDMDL
MODEL 5
REMARK VINA RESULT:      -6.2      0.903      1.310
REMARK  Name = 
REMARK  7 active torsions:
REMARK  status: ('A' for Active; 'I' for Inactive)
REMARK    1  A    between atoms: C_1  and  C_2
REMARK    2  A    between atoms: C_2  and  C_3
REMARK    3  A    between atoms: C_2  and  C_4
REMARK    4  A    between atoms: C_2  and  C_6
REMARK    5  A    between atoms: N_8  and  C_9
REMARK    6  A    between atoms: C_12  and  S_13
REMARK    7  A    between atoms: S_13  and  C_14
REMARK                            x       y       z     vdW  Elec       q    Type
REMARK                         _______ _______ _______ _____ _____    ______ ____
ROOT
ATOM      1  C   UNL     1       2.539   7.136  18.966  0.00  0.00    +0.000 A 
ATOM      2  C   UNL     1       2.359   8.166  18.036  0.00  0.00    +0.000 A 
ATOM      3  C   UNL     1       1.695   9.344  18.378  0.00  0.00    +0.000 A 
ATOM      4  C   UNL     1       1.189   9.497  19.665  0.00  0.00    +0.000 A 
ATOM      5  C   UNL     1       1.313   8.464  20.584  0.00  0.00    +0.000 A 
ATOM      6  F   UNL     1       0.835   8.590  21.829  0.00  0.00    +0.000 F 
ATOM      7  C   UNL     1       1.973   7.278  20.238  0.00  0.00    +0.000 A 
ENDROOT
BRANCH   1  10
ATOM      8  C   UNL     1       2.726   4.793  18.146  0.00  0.00    +0.000 C 
ATOM      9  O   UNL     1       1.544   4.679  17.834  0.00  0.00    +0.000 OA
ATOM     10  N   UNL     1       3.279   5.962  18.672  0.00  0.00    +0.000 N 
ATOM     11  H   UNL     1       4.289   6.056  18.671  0.00  0.00    +0.000 HD
BRANCH   8  13
ATOM     12  C   UNL     1       4.520   3.379  19.223  0.00  0.00    +0.000 C 
ATOM     13  C   UNL     1       3.684   3.605  17.958  0.00  0.00    +0.000 C 
ATOM     14  C   UNL     1       2.853   2.339  17.677  0.00  0.00    +0.000 C 
BRANCH  13  15
ATOM     15  C   UNL     1       4.564   3.872  16.808  0.00  0.00    +0.000 C 
ATOM     16  N   UNL     1       5.263   4.034  15.896  0.00  0.00    +0.000 NA
ENDBRANCH  13  15
ENDBRANCH   8  13
ENDBRANCH   1  10
BRANCH   4  17
ATOM     17  S   UNL     1       0.365  10.993  20.108  0.00  0.00    +0.000 S 
ATOM     18  C   UNL     1       0.610  12.083  18.733  0.00  0.00    +0.000 C 
ATOM     19  O   UNL     1      -1.056  10.701  20.164  0.00  0.00    +0.000 OA
ATOM     20  O   UNL     1       1.047  11.533  21.268  0.00  0.00    +0.000 OA
ENDBRANCH   4  17
TORSDOF 4
ENDMDL
MODEL 6
REMARK VINA RESULT:      -6.2      1.921      2.452
REMARK  Name = 
REMARK  7 active torsions:
REMARK  status: ('A' for Active; 'I' for Inactive)
REMARK    1  A    between atoms: C_1  and  C_2
REMARK    2  A    between atoms: C_2  and  C_3
REMARK    3  A    between atoms: C_2  and  C_4
REMARK    4  A    between atoms: C_2  and  C_6
REMARK    5  A    between atoms: N_8  and  C_9
REMARK    6  A    between atoms: C_12  and  S_13
REMARK    7  A    between atoms: S_13  and  C_14
REMARK                            x       y       z     vdW  Elec       q    Type
REMARK                         _______ _______ _______ _____ _____    ______ ____
ROOT
ATOM      1  C   UNL     1       2.254   6.986  19.830  0.00  0.00    +0.000 A 
ATOM      2  C   UNL     1       1.524   7.584  20.864  0.00  0.00    +0.000 A 
ATOM      3  C   UNL     1       0.912   8.827  20.697  0.00  0.00    +0.000 A 
ATOM      4  C   UNL     1       1.038   9.494  19.483  0.00  0.00    +0.000 A 
ATOM      5  C   UNL     1       1.801   8.940  18.465  0.00  0.00    +0.000 A 
ATOM      6  F   UNL     1       1.934   9.564  17.287  0.00  0.00    +0.000 F 
ATOM      7  C   UNL     1       2.423   7.696  18.635  0.00  0.00    +0.000 A 
ENDROOT
BRANCH   1  10
ATOM      8  C   UNL     1       2.411   4.586  19.194  0.00  0.00    +0.000 C 
ATOM      9  O   UNL     1       1.550   4.635  18.320  0.00  0.00    +0.000 OA
ATOM     10  N   UNL     1       2.819   5.691  19.943  0.00  0.00    +0.000 N 
ATOM     11  H   UNL     1       3.690   5.624  20.460  0.00  0.00    +0.000 HD
BRANCH   8  13
ATOM     12  C   UNL     1       2.637   2.157  18.542  0.00  0.00    +0.000 C 
ATOM     13  C   UNL     1       3.105   3.250  19.509  0.00  0.00    +0.000 C 
ATOM     14  C   UNL     1       4.627   3.434  19.353  0.00  0.00    +0.000 C 
BRANCH  13  15
ATOM     15  C   UNL     1       2.803   2.865  20.897  0.00  0.00    +0.000 C 
ATOM     16  N   UNL     1       2.604   2.531  21.990  0.00  0.00    +0.000 NA
ENDBRANCH  13  15
ENDBRANCH   8  13
ENDBRANCH   1  10
BRANCH   4  17
ATOM     17  S   UNL     1       0.249  11.057  19.259  0.00  0.00    +0.000 S 
ATOM     18  C   UNL     1      -0.511  11.421  20.818  0.00  0.00    +0.000 C 
ATOM     19  O   UNL     1       1.297  12.043  19.064  0.00  0.00    +0.000 OA
ATOM     20  O   UNL     1      -0.784  10.879  18.259  0.00  0.00    +0.000 OA
ENDBRANCH   4  17
TORSDOF 4
ENDMDL
MODEL 7
REMARK VINA RESULT:      -6.1      1.295      1.701
REMARK  Name = 
REMARK  7 active torsions:
REMARK  status: ('A' for Active; 'I' for Inactive)
REMARK    1  A    between atoms: C_1  and  C_2
REMARK    2  A    between atoms: C_2  and  C_3
REMARK    3  A    between atoms: C_2  and  C_4
REMARK    4  A    between atoms: C_2  and  C_6
REMARK    5  A    between atoms: N_8  and  C_9
REMARK    6  A    between atoms: C_12  and  S_13
REMARK    7  A    between atoms: S_13  and  C_14
REMARK                            x       y       z     vdW  Elec       q    Type
REMARK                         _______ _______ _______ _____ _____    ______ ____
ROOT
ATOM      1  C   UNL     1       2.543   6.943  19.111  0.00  0.00    +0.000 A 
ATOM      2  C   UNL     1       1.988   7.138  20.381  0.00  0.00    +0.000 A 
ATOM      3  C   UNL     1       1.264   8.291  20.687  0.00  0.00    +0.000 A 
ATOM      4  C   UNL     1       1.097   9.274  19.717  0.00  0.00    +0.000 A 
ATOM      5  C   UNL     1       1.685   9.120  18.469  0.00  0.00    +0.000 A 
ATOM      6  F   UNL     1       1.535  10.053  17.519  0.00  0.00    +0.000 F 
ATOM      7  C   UNL     1       2.418   7.966  18.164  0.00  0.00    +0.000 A 
ENDROOT
BRANCH   1  10
ATOM      8  C   UNL     1       2.619   4.689  18.058  0.00  0.00    +0.000 C 
ATOM      9  O   UNL     1       1.459   4.704  17.654  0.00  0.00    +0.000 OA
ATOM     10  N   UNL     1       3.214   5.749  18.744  0.00  0.00    +0.000 N 
ATOM     11  H   UNL     1       4.226   5.760  18.823  0.00  0.00    +0.000 HD
BRANCH   8  13
ATOM     12  C   UNL     1       2.631   2.226  17.505  0.00  0.00    +0.000 C 
ATOM     13  C   UNL     1       3.498   3.452  17.810  0.00  0.00    +0.000 C 
ATOM     14  C   UNL     1       4.412   3.730  16.601  0.00  0.00    +0.000 C 
BRANCH  13  15
ATOM     15  C   UNL     1       4.329   3.205  18.999  0.00  0.00    +0.000 C 
ATOM     16  N   UNL     1       5.025   3.025  19.911  0.00  0.00    +0.000 NA
ENDBRANCH  13  15
ENDBRANCH   8  13
ENDBRANCH   1  10
BRANCH   4  17
ATOM     17  S   UNL     1       0.166  10.724  20.095  0.00  0.00    +0.000 S 
ATOM     18  C   UNL     1      -1.207  10.699  18.974  0.00  0.00    +0.000 C 
ATOM     19  O   UNL     1      -0.380  10.550  21.429  0.00  0.00    +0.000 OA
ATOM     20  O   UNL     1       1.005  11.866  19.790  0.00  0.00    +0.000 OA
ENDBRANCH   4  17
TORSDOF 4
ENDMDL
MODEL 8
REMARK VINA RESULT:      -6.1      1.594      1.894
REMARK  Name = 
REMARK  7 active torsions:
REMARK  status: ('A' for Active; 'I' for Inactive)
REMARK    1  A    between atoms: C_1  and  C_2
REMARK    2  A    between atoms: C_2  and  C_3
REMARK    3  A    between atoms: C_2  and  C_4
REMARK    4  A    between atoms: C_2  and  C_6
REMARK    5  A    between atoms: N_8  and  C_9
REMARK    6  A    between atoms: C_12  and  S_13
REMARK    7  A    between atoms: S_13  and  C_14
REMARK                            x       y       z     vdW  Elec       q    Type
REMARK                         _______ _______ _______ _____ _____    ______ ____
ROOT
ATOM      1  C   UNL     1       2.611   7.101  18.510  0.00  0.00    +0.000 A 
ATOM      2  C   UNL     1       2.227   8.185  17.713  0.00  0.00    +0.000 A 
ATOM      3  C   UNL     1       1.561   9.285  18.256  0.00  0.00    +0.000 A 
ATOM      4  C   UNL     1       1.261   9.303  19.615  0.00  0.00    +0.000 A 
ATOM      5  C   UNL     1       1.589   8.213  20.409  0.00  0.00    +0.000 A 
ATOM      6  F   UNL     1       1.312   8.210  21.720  0.00  0.00    +0.000 F 
ATOM      7  C   UNL     1       2.251   7.105  19.863  0.00  0.00    +0.000 A 
ENDROOT
BRANCH   1  10
ATOM      8  C   UNL     1       4.634   6.115  17.448  0.00  0.00    +0.000 C 
ATOM      9  O   UNL     1       5.264   7.167  17.385  0.00  0.00    +0.000 OA
ATOM     10  N   UNL     1       3.359   6.007  18.004  0.00  0.00    +0.000 N 
ATOM     11  H   UNL     1       3.015   5.082  18.240  0.00  0.00    +0.000 HD
BRANCH   8  13
ATOM     12  C   UNL     1       5.414   4.904  15.374  0.00  0.00    +0.000 C 
ATOM     13  C   UNL     1       5.253   4.820  16.896  0.00  0.00    +0.000 C 
ATOM     14  C   UNL     1       6.642   4.624  17.534  0.00  0.00    +0.000 C 
BRANCH  13  15
ATOM     15  C   UNL     1       4.390   3.682  17.254  0.00  0.00    +0.000 C 
ATOM     16  N   UNL     1       3.681   2.817  17.560  0.00  0.00    +0.000 NA
ENDBRANCH  13  15
ENDBRANCH   8  13
ENDBRANCH   1  10
BRANCH   4  17
ATOM     17  S   UNL     1       0.437  10.700  20.309  0.00  0.00    +0.000 S 
ATOM     18  C   UNL     1       0.150  11.795  18.946  0.00  0.00    +0.000 C 
ATOM     19  O   UNL     1      -0.865  10.248  20.765  0.00  0.00    +0.000 OA
ATOM     20  O   UNL     1       1.359  11.328  21.235  0.00  0.00    +0.000 OA
ENDBRANCH   4  17
TORSDOF 4
ENDMDL
MODEL 9
REMARK VINA RESULT:      -6.1      2.181      2.612
REMARK  Name = 
REMARK  7 active torsions:
REMARK  status: ('A' for Active; 'I' for Inactive)
REMARK    1  A    between atoms: C_1  and  C_2
REMARK    2  A    between atoms: C_2  and  C_3
REMARK    3  A    between atoms: C_2  and  C_4
REMARK    4  A    between atoms: C_2  and  C_6
REMARK    5  A    between atoms: N_8  and  C_9
REMARK    6  A    between atoms: C_12  and  S_13
REMARK    7  A    between atoms: S_13  and  C_14
REMARK                            x       y       z     vdW  Elec       q    Type
REMARK                         _______ _______ _______ _____ _____    ______ ____
ROOT
ATOM      1  C   UNL     1       2.926   6.888  18.343  0.00  0.00    +0.000 A 
ATOM      2  C   UNL     1       2.553   6.748  19.685  0.00  0.00    +0.000 A 
ATOM      3  C   UNL     1       1.763   7.705  20.322  0.00  0.00    +0.000 A 
ATOM      4  C   UNL     1       1.345   8.829  19.617  0.00  0.00    +0.000 A 
ATOM      5  C   UNL     1       1.748   9.009  18.301  0.00  0.00    +0.000 A 
ATOM      6  F   UNL     1       1.356  10.082  17.602  0.00  0.00    +0.000 F 
ATOM      7  C   UNL     1       2.548   8.052  17.663  0.00  0.00    +0.000 A 
ENDROOT
BRANCH   1  10
ATOM      8  C   UNL     1       4.981   6.043  17.223  0.00  0.00    +0.000 C 
ATOM      9  O   UNL     1       5.665   7.036  17.459  0.00  0.00    +0.000 OA
ATOM     10  N   UNL     1       3.660   5.894  17.646  0.00  0.00    +0.000 N 
ATOM     11  H   UNL     1       3.253   4.965  17.629  0.00  0.00    +0.000 HD
BRANCH   8  13
ATOM     12  C   UNL     1       4.703   3.625  16.551  0.00  0.00    +0.000 C 
ATOM     13  C   UNL     1       5.582   4.874  16.425  0.00  0.00    +0.000 C 
ATOM     14  C   UNL     1       5.661   5.280  14.940  0.00  0.00    +0.000 C 
BRANCH  13  15
ATOM     15  C   UNL     1       6.938   4.595  16.924  0.00  0.00    +0.000 C 
ATOM     16  N   UNL     1       7.987   4.344  17.350  0.00  0.00    +0.000 NA
ENDBRANCH  13  15
ENDBRANCH   8  13
ENDBRANCH   1  10
BRANCH   4  17
ATOM     17  S   UNL     1       0.329  10.032  20.413  0.00  0.00    +0.000 S 
ATOM     18  C   UNL     1       1.225  11.555  20.282  0.00  0.00    +0.000 C 
ATOM     19  O   UNL     1      -0.871  10.182  19.609  0.00  0.00    +0.000 OA
ATOM     20  O   UNL     1       0.232   9.658  21.810  0.00  0.00    +0.000 OA
ENDBRANCH   4  17
TORSDOF 4
ENDMDL
