MODEL 1
REMARK VINA RESULT:      -8.2      0.000      0.000
REMARK  Name = 
REMARK  6 active torsions:
REMARK  status: ('A' for Active; 'I' for Inactive)
REMARK    1  A    between atoms: N_1  and  N_2
REMARK    2  A    between atoms: C_3  and  C_5
REMARK    3  A    between atoms: N_8  and  C_9
REMARK    4  A    between atoms: C_12  and  S_13
REMARK    5  A    between atoms: S_13  and  N_14
REMARK    6  A    between atoms: C_19  and  C_20
REMARK                            x       y       z     vdW  Elec       q    Type
REMARK                         _______ _______ _______ _____ _____    ______ ____
ROOT
ATOM      1  C   UNL     1       3.170   3.207  19.394  0.00  0.00    +0.000 A 
ATOM      2  N   UNL     1       1.899   3.211  19.916  0.00  0.00    +0.000 NA
ATOM      3  N   UNL     1       1.534   4.466  20.116  0.00  0.00    +0.000 NA
ATOM      4  N   UNL     1       2.497   5.278  19.591  0.00  0.00    +0.000 N 
ATOM      5  C   UNL     1       3.599   4.512  19.196  0.00  0.00    +0.000 A 
ENDROOT
BRANCH   4   6
ATOM      6  C   UNL     1       2.260   6.677  19.475  0.00  0.00    +0.000 A 
ATOM      7  C   UNL     1       2.393   7.311  18.232  0.00  0.00    +0.000 A 
ATOM      8  C   UNL     1       1.963   8.635  18.076  0.00  0.00    +0.000 A 
ATOM      9  C   UNL     1       1.419   9.319  19.170  0.00  0.00    +0.000 A 
ATOM     10  C   UNL     1       1.394   8.733  20.435  0.00  0.00    +0.000 A 
ATOM     11  C   UNL     1       1.837   7.422  20.587  0.00  0.00    +0.000 A 
BRANCH   9  12
ATOM     12  S   UNL     1       0.753  10.946  18.971  0.00  0.00    +0.000 S 
ATOM     13  O   UNL     1       0.010  11.307  20.158  0.00  0.00    +0.000 OA
ATOM     14  O   UNL     1       1.757  11.804  18.389  0.00  0.00    +0.000 OA
BRANCH  12  15
ATOM     15  N   UNL     1      -0.400  10.700  17.772  0.00  0.00    +0.000 NA
ATOM     16  H   UNL     1      -0.307  11.413  17.048  0.00  0.00    +0.000 HD
ATOM     17  H   UNL     1      -0.336   9.743  17.421  0.00  0.00    +0.000 HD
ENDBRANCH  12  15
ENDBRANCH   9  12
ENDBRANCH   4   6
BRANCH   5  18
ATOM     18  C   UNL     1       4.865   5.053  18.714  0.00  0.00    +0.000 A 
ATOM     19  C   UNL     1       4.986   5.724  17.504  0.00  0.00    +0.000 A 
ATOM     20  C   UNL     1       6.182   6.384  17.225  0.00  0.00    +0.000 A 
ATOM     21  C   UNL     1       7.208   6.371  18.162  0.00  0.00    +0.000 A 
ATOM     22  C   UNL     1       7.018   5.645  19.322  0.00  0.00    +0.000 A 
ATOM     23  N   UNL     1       5.883   4.966  19.600  0.00  0.00    +0.000 NA
ENDBRANCH   5  18
BRANCH   1  25
ATOM     24  N   UNL     1       4.891   1.710  20.076  0.00  0.00    +0.000 N 
ATOM     25  C   UNL     1       3.890   1.967  19.139  0.00  0.00    +0.000 C 
ATOM     26  O   UNL     1       3.621   1.208  18.210  0.00  0.00    +0.000 OA
ATOM     27  H   UNL     1       4.961   2.331  20.881  0.00  0.00    +0.000 HD
BRANCH  24  28
ATOM     28  N   UNL     1       5.533   0.450  20.098  0.00  0.00    +0.000 NA
ATOM     29  H   UNL     1       6.166   0.401  20.899  0.00  0.00    +0.000 HD
ATOM     30  H   UNL     1       6.129   0.394  19.264  0.00  0.00    +0.000 HD
ENDBRANCH  24  28
ENDBRANCH   1  25
TORSDOF 6
ENDMDL
MODEL 2
REMARK VINA RESULT:      -8.2      0.956      1.262
REMARK  Name = 
REMARK  6 active torsions:
REMARK  status: ('A' for Active; 'I' for Inactive)
REMARK    1  A    between atoms: N_1  and  N_2
REMARK    2  A    between atoms: C_3  and  C_5
REMARK    3  A    between atoms: N_8  and  C_9
REMARK    4  A    between atoms: C_12  and  S_13
REMARK    5  A    between atoms: S_13  and  N_14
REMARK    6  A    between atoms: C_19  and  C_20
REMARK                            x       y       z     vdW  Elec       q    Type
REMARK                         _______ _______ _______ _____ _____    ______ ____
ROOT
ATOM      1  C   UNL     1       3.176   3.346  19.553  0.00  0.00    +0.000 A 
ATOM      2  N   UNL     1       1.968   3.364  20.208  0.00  0.00    +0.000 NA
ATOM      3  N   UNL     1       1.609   4.624  20.387  0.00  0.00    +0.000 NA
ATOM      4  N   UNL     1       2.499   5.418  19.725  0.00  0.00    +0.000 N 
ATOM      5  C   UNL     1       3.563   4.644  19.250  0.00  0.00    +0.000 A 
ENDROOT
BRANCH   4   6
ATOM      6  C   UNL     1       2.231   6.808  19.571  0.00  0.00    +0.000 A 
ATOM      7  C   UNL     1       2.373   7.415  18.315  0.00  0.00    +0.000 A 
ATOM      8  C   UNL     1       1.916   8.724  18.120  0.00  0.00    +0.000 A 
ATOM      9  C   UNL     1       1.335   9.421  19.187  0.00  0.00    +0.000 A 
ATOM     10  C   UNL     1       1.299   8.864  20.464  0.00  0.00    +0.000 A 
ATOM     11  C   UNL     1       1.769   7.569  20.656  0.00  0.00    +0.000 A 
BRANCH   9  12
ATOM     12  S   UNL     1       0.634  11.026  18.935  0.00  0.00    +0.000 S 
ATOM     13  O   UNL     1      -0.577  10.902  18.156  0.00  0.00    +0.000 OA
ATOM     14  O   UNL     1       0.694  11.770  20.171  0.00  0.00    +0.000 OA
BRANCH  12  15
ATOM     15  N   UNL     1       1.763  11.736  17.911  0.00  0.00    +0.000 NA
ATOM     16  H   UNL     1       1.894  11.156  17.082  0.00  0.00    +0.000 HD
ATOM     17  H   UNL     1       1.487  12.697  17.704  0.00  0.00    +0.000 HD
ENDBRANCH  12  15
ENDBRANCH   9  12
ENDBRANCH   4   6
BRANCH   5  18
ATOM     18  C   UNL     1       4.763   5.173  18.610  0.00  0.00    +0.000 A 
ATOM     19  C   UNL     1       5.931   5.447  19.308  0.00  0.00    +0.000 A 
ATOM     20  C   UNL     1       7.085   5.748  18.585  0.00  0.00    +0.000 A 
ATOM     21  C   UNL     1       7.043   5.749  17.197  0.00  0.00    +0.000 A 
ATOM     22  C   UNL     1       5.830   5.506  16.584  0.00  0.00    +0.000 A 
ATOM     23  N   UNL     1       4.690   5.247  17.261  0.00  0.00    +0.000 NA
ENDBRANCH   5  18
BRANCH   1  25
ATOM     24  N   UNL     1       4.899   1.834  20.197  0.00  0.00    +0.000 N 
ATOM     25  C   UNL     1       3.882   2.102  19.279  0.00  0.00    +0.000 C 
ATOM     26  O   UNL     1       3.591   1.349  18.352  0.00  0.00    +0.000 OA
ATOM     27  H   UNL     1       4.988   2.452  21.003  0.00  0.00    +0.000 HD
BRANCH  24  28
ATOM     28  N   UNL     1       5.531   0.570  20.202  0.00  0.00    +0.000 NA
ATOM     29  H   UNL     1       5.087  -0.034  20.897  0.00  0.00    +0.000 HD
ATOM     30  H   UNL     1       6.496   0.709  20.525  0.00  0.00    +0.000 HD
ENDBRANCH  24  28
ENDBRANCH   1  25
TORSDOF 6
ENDMDL
MODEL 3
REMARK VINA RESULT:      -8.0      2.556      3.967
REMARK  Name = 
REMARK  6 active torsions:
REMARK  status: ('A' for Active; 'I' for Inactive)
REMARK    1  A    between atoms: N_1  and  N_2
REMARK    2  A    between atoms: C_3  and  C_5
REMARK    3  A    between atoms: N_8  and  C_9
REMARK    4  A    between atoms: C_12  and  S_13
REMARK    5  A    between atoms: S_13  and  N_14
REMARK    6  A    between atoms: C_19  and  C_20
REMARK                            x       y       z     vdW  Elec       q    Type
REMARK                         _______ _______ _______ _____ _____    ______ ____
ROOT
ATOM      1  C   UNL     1       4.157   5.629  17.666  0.00  0.00    +0.000 A 
ATOM      2  N   UNL     1       4.500   6.817  17.069  0.00  0.00    +0.000 NA
ATOM      3  N   UNL     1       3.636   7.742  17.454  0.00  0.00    +0.000 NA
ATOM      4  N   UNL     1       2.828   7.198  18.409  0.00  0.00    +0.000 N 
ATOM      5  C   UNL     1       3.073   5.825  18.512  0.00  0.00    +0.000 A 
ENDROOT
BRANCH   4   6
ATOM      6  C   UNL     1       1.945   8.033  19.151  0.00  0.00    +0.000 A 
ATOM      7  C   UNL     1       1.737   7.794  20.517  0.00  0.00    +0.000 A 
ATOM      8  C   UNL     1       1.037   8.731  21.288  0.00  0.00    +0.000 A 
ATOM      9  C   UNL     1       0.537   9.891  20.683  0.00  0.00    +0.000 A 
ATOM     10  C   UNL     1       0.641  10.075  19.305  0.00  0.00    +0.000 A 
ATOM     11  C   UNL     1       1.324   9.134  18.542  0.00  0.00    +0.000 A 
BRANCH   9  12
ATOM     12  S   UNL     1      -0.238  11.149  21.656  0.00  0.00    +0.000 S 
ATOM     13  O   UNL     1      -1.440  11.596  20.989  0.00  0.00    +0.000 OA
ATOM     14  O   UNL     1      -0.217  10.756  23.045  0.00  0.00    +0.000 OA
BRANCH  12  15
ATOM     15  N   UNL     1       0.858  12.416  21.514  0.00  0.00    +0.000 NA
ATOM     16  H   UNL     1       0.364  13.278  21.280  0.00  0.00    +0.000 HD
ATOM     17  H   UNL     1       1.424  12.481  22.361  0.00  0.00    +0.000 HD
ENDBRANCH  12  15
ENDBRANCH   9  12
ENDBRANCH   4   6
BRANCH   5  18
ATOM     18  C   UNL     1       2.306   4.896  19.334  0.00  0.00    +0.000 A 
ATOM     19  C   UNL     1       1.330   4.056  18.813  0.00  0.00    +0.000 A 
ATOM     20  C   UNL     1       0.800   3.061  19.633  0.00  0.00    +0.000 A 
ATOM     21  C   UNL     1       1.268   2.922  20.933  0.00  0.00    +0.000 A 
ATOM     22  C   UNL     1       2.210   3.826  21.384  0.00  0.00    +0.000 A 
ATOM     23  N   UNL     1       2.714   4.822  20.622  0.00  0.00    +0.000 NA
ENDBRANCH   5  18
BRANCH   1  25
ATOM     24  N   UNL     1       5.228   4.264  16.035  0.00  0.00    +0.000 N 
ATOM     25  C   UNL     1       4.869   4.391  17.378  0.00  0.00    +0.000 C 
ATOM     26  O   UNL     1       5.154   3.559  18.236  0.00  0.00    +0.000 OA
ATOM     27  H   UNL     1       5.059   5.059  15.420  0.00  0.00    +0.000 HD
BRANCH  24  28
ATOM     28  N   UNL     1       6.108   3.234  15.633  0.00  0.00    +0.000 NA
ATOM     29  H   UNL     1       7.075   3.525  15.795  0.00  0.00    +0.000 HD
ATOM     30  H   UNL     1       6.013   3.126  14.617  0.00  0.00    +0.000 HD
ENDBRANCH  24  28
ENDBRANCH   1  25
TORSDOF 6
ENDMDL
MODEL 4
REMARK VINA RESULT:      -8.0      1.024      1.081
REMARK  Name = 
REMARK  6 active torsions:
REMARK  status: ('A' for Active; 'I' for Inactive)
REMARK    1  A    between atoms: N_1  and  N_2
REMARK    2  A    between atoms: C_3  and  C_5
REMARK    3  A    between atoms: N_8  and  C_9
REMARK    4  A    between atoms: C_12  and  S_13
REMARK    5  A    between atoms: S_13  and  N_14
REMARK    6  A    between atoms: C_19  and  C_20
REMARK                            x       y       z     vdW  Elec       q    Type
REMARK                         _______ _______ _______ _____ _____    ______ ____
ROOT
ATOM      1  C   UNL     1       3.339   3.566  19.989  0.00  0.00    +0.000 A 
ATOM      2  N   UNL     1       2.302   3.625  20.889  0.00  0.00    +0.000 NA
ATOM      3  N   UNL     1       1.921   4.886  21.003  0.00  0.00    +0.000 NA
ATOM      4  N   UNL     1       2.601   5.622  20.076  0.00  0.00    +0.000 N 
ATOM      5  C   UNL     1       3.578   4.829  19.467  0.00  0.00    +0.000 A 
ENDROOT
BRANCH   4   6
ATOM      6  C   UNL     1       2.229   6.975  19.833  0.00  0.00    +0.000 A 
ATOM      7  C   UNL     1       2.384   7.525  18.553  0.00  0.00    +0.000 A 
ATOM      8  C   UNL     1       1.832   8.780  18.264  0.00  0.00    +0.000 A 
ATOM      9  C   UNL     1       1.144   9.480  19.263  0.00  0.00    +0.000 A 
ATOM     10  C   UNL     1       1.089   8.989  20.567  0.00  0.00    +0.000 A 
ATOM     11  C   UNL     1       1.653   7.750  20.851  0.00  0.00    +0.000 A 
BRANCH   9  12
ATOM     12  S   UNL     1       0.329  11.005  18.890  0.00  0.00    +0.000 S 
ATOM     13  O   UNL     1      -0.593  11.327  19.956  0.00  0.00    +0.000 OA
ATOM     14  O   UNL     1       1.296  11.950  18.384  0.00  0.00    +0.000 OA
BRANCH  12  15
ATOM     15  N   UNL     1      -0.628  10.571  17.578  0.00  0.00    +0.000 NA
ATOM     16  H   UNL     1      -0.472  11.219  16.805  0.00  0.00    +0.000 HD
ATOM     17  H   UNL     1      -0.465   9.593  17.338  0.00  0.00    +0.000 HD
ENDBRANCH  12  15
ENDBRANCH   9  12
ENDBRANCH   4   6
BRANCH   5  18
ATOM     18  C   UNL     1       4.580   5.313  18.523  0.00  0.00    +0.000 A 
ATOM     19  C   UNL     1       4.292   5.587  17.192  0.00  0.00    +0.000 A 
ATOM     20  C   UNL     1       5.254   6.241  16.423  0.00  0.00    +0.000 A 
ATOM     21  C   UNL     1       6.459   6.615  17.004  0.00  0.00    +0.000 A 
ATOM     22  C   UNL     1       6.679   6.266  18.323  0.00  0.00    +0.000 A 
ATOM     23  N   UNL     1       5.779   5.602  19.080  0.00  0.00    +0.000 NA
ENDBRANCH   5  18
BRANCH   1  25
ATOM     24  N   UNL     1       3.524   1.642  18.598  0.00  0.00    +0.000 N 
ATOM     25  C   UNL     1       4.038   2.319  19.705  0.00  0.00    +0.000 C 
ATOM     26  O   UNL     1       5.003   1.922  20.355  0.00  0.00    +0.000 OA
ATOM     27  H   UNL     1       2.804   2.108  18.047  0.00  0.00    +0.000 HD
BRANCH  24  28
ATOM     28  N   UNL     1       4.221   0.536  18.061  0.00  0.00    +0.000 NA
ATOM     29  H   UNL     1       3.679   0.127  17.297  0.00  0.00    +0.000 HD
ATOM     30  H   UNL     1       4.266  -0.185  18.791  0.00  0.00    +0.000 HD
ENDBRANCH  24  28
ENDBRANCH   1  25
TORSDOF 6
ENDMDL
MODEL 5
REMARK VINA RESULT:      -7.9      2.816      4.142
REMARK  Name = 
REMARK  6 active torsions:
REMARK  status: ('A' for Active; 'I' for Inactive)
REMARK    1  A    between atoms: N_1  and  N_2
REMARK    2  A    between atoms: C_3  and  C_5
REMARK    3  A    between atoms: N_8  and  C_9
REMARK    4  A    between atoms: C_12  and  S_13
REMARK    5  A    between atoms: S_13  and  N_14
REMARK    6  A    between atoms: C_19  and  C_20
REMARK                            x       y       z     vdW  Elec       q    Type
REMARK                         _______ _______ _______ _____ _____    ______ ____
ROOT
ATOM      1  C   UNL     1       5.167   5.601  16.425  0.00  0.00    +0.000 A 
ATOM      2  N   UNL     1       5.297   6.933  16.112  0.00  0.00    +0.000 NA
ATOM      3  N   UNL     1       4.342   7.603  16.734  0.00  0.00    +0.000 NA
ATOM      4  N   UNL     1       3.687   6.740  17.563  0.00  0.00    +0.000 N 
ATOM      5  C   UNL     1       4.129   5.433  17.332  0.00  0.00    +0.000 A 
ENDROOT
BRANCH   4   6
ATOM      6  C   UNL     1       2.751   7.241  18.512  0.00  0.00    +0.000 A 
ATOM      7  C   UNL     1       2.513   6.536  19.701  0.00  0.00    +0.000 A 
ATOM      8  C   UNL     1       1.754   7.127  20.719  0.00  0.00    +0.000 A 
ATOM      9  C   UNL     1       1.226   8.411  20.534  0.00  0.00    +0.000 A 
ATOM     10  C   UNL     1       1.361   9.065  19.310  0.00  0.00    +0.000 A 
ATOM     11  C   UNL     1       2.103   8.466  18.296  0.00  0.00    +0.000 A 
BRANCH   9  12
ATOM     12  S   UNL     1       0.373   9.230  21.849  0.00  0.00    +0.000 S 
ATOM     13  O   UNL     1      -0.779   8.446  22.233  0.00  0.00    +0.000 OA
ATOM     14  O   UNL     1       1.336   9.723  22.806  0.00  0.00    +0.000 OA
BRANCH  12  15
ATOM     15  N   UNL     1      -0.242  10.586  21.067  0.00  0.00    +0.000 NA
ATOM     16  H   UNL     1      -1.113  10.349  20.593  0.00  0.00    +0.000 HD
ATOM     17  H   UNL     1      -0.327  11.358  21.729  0.00  0.00    +0.000 HD
ENDBRANCH  12  15
ENDBRANCH   9  12
ENDBRANCH   4   6
BRANCH   5  18
ATOM     18  C   UNL     1       3.559   4.236  17.940  0.00  0.00    +0.000 A 
ATOM     19  C   UNL     1       2.361   3.673  17.518  0.00  0.00    +0.000 A 
ATOM     20  C   UNL     1       2.002   2.420  18.014  0.00  0.00    +0.000 A 
ATOM     21  C   UNL     1       2.851   1.762  18.894  0.00  0.00    +0.000 A 
ATOM     22  C   UNL     1       4.003   2.412  19.293  0.00  0.00    +0.000 A 
ATOM     23  N   UNL     1       4.356   3.641  18.856  0.00  0.00    +0.000 NA
ENDBRANCH   5  18
BRANCH   1  25
ATOM     24  N   UNL     1       5.614   4.203  14.551  0.00  0.00    +0.000 N 
ATOM     25  C   UNL     1       6.023   4.585  15.829  0.00  0.00    +0.000 C 
ATOM     26  O   UNL     1       7.024   4.134  16.382  0.00  0.00    +0.000 OA
ATOM     27  H   UNL     1       4.846   4.718  14.123  0.00  0.00    +0.000 HD
BRANCH  24  28
ATOM     28  N   UNL     1       6.453   3.393  13.753  0.00  0.00    +0.000 NA
ATOM     29  H   UNL     1       6.477   3.759  12.798  0.00  0.00    +0.000 HD
ATOM     30  H   UNL     1       6.017   2.466  13.688  0.00  0.00    +0.000 HD
ENDBRANCH  24  28
ENDBRANCH   1  25
TORSDOF 6
ENDMDL
MODEL 6
REMARK VINA RESULT:      -7.8      1.298      1.821
REMARK  Name = 
REMARK  6 active torsions:
REMARK  status: ('A' for Active; 'I' for Inactive)
REMARK    1  A    between atoms: N_1  and  N_2
REMARK    2  A    between atoms: C_3  and  C_5
REMARK    3  A    between atoms: N_8  and  C_9
REMARK    4  A    between atoms: C_12  and  S_13
REMARK    5  A    between atoms: S_13  and  N_14
REMARK    6  A    between atoms: C_19  and  C_20
REMARK                            x       y       z     vdW  Elec       q    Type
REMARK                         _______ _______ _______ _____ _____    ______ ____
ROOT
ATOM      1  C   UNL     1       3.339   3.537  20.023  0.00  0.00    +0.000 A 
ATOM      2  N   UNL     1       2.428   3.664  21.043  0.00  0.00    +0.000 NA
ATOM      3  N   UNL     1       2.020   4.921  21.085  0.00  0.00    +0.000 NA
ATOM      4  N   UNL     1       2.545   5.575  20.008  0.00  0.00    +0.000 N 
ATOM      5  C   UNL     1       3.461   4.747  19.352  0.00  0.00    +0.000 A 
ENDROOT
BRANCH   4   6
ATOM      6  C   UNL     1       2.095   6.887  19.687  0.00  0.00    +0.000 A 
ATOM      7  C   UNL     1       1.493   7.682  20.672  0.00  0.00    +0.000 A 
ATOM      8  C   UNL     1       1.239   9.035  20.414  0.00  0.00    +0.000 A 
ATOM      9  C   UNL     1       1.576   9.578  19.168  0.00  0.00    +0.000 A 
ATOM     10  C   UNL     1       2.067   8.764  18.147  0.00  0.00    +0.000 A 
ATOM     11  C   UNL     1       2.302   7.417  18.404  0.00  0.00    +0.000 A 
BRANCH   9  12
ATOM     12  S   UNL     1       1.385  11.309  18.861  0.00  0.00    +0.000 S 
ATOM     13  O   UNL     1       1.127  11.990  20.110  0.00  0.00    +0.000 OA
ATOM     14  O   UNL     1       2.401  11.743  17.931  0.00  0.00    +0.000 OA
BRANCH  12  15
ATOM     15  N   UNL     1      -0.067  11.349  18.014  0.00  0.00    +0.000 NA
ATOM     16  H   UNL     1       0.098  11.137  17.030  0.00  0.00    +0.000 HD
ATOM     17  H   UNL     1      -0.747  10.733  18.462  0.00  0.00    +0.000 HD
ENDBRANCH  12  15
ENDBRANCH   9  12
ENDBRANCH   4   6
BRANCH   5  18
ATOM     18  C   UNL     1       4.312   5.155  18.239  0.00  0.00    +0.000 A 
ATOM     19  C   UNL     1       5.425   5.970  18.400  0.00  0.00    +0.000 A 
ATOM     20  C   UNL     1       6.292   6.135  17.320  0.00  0.00    +0.000 A 
ATOM     21  C   UNL     1       6.035   5.473  16.127  0.00  0.00    +0.000 A 
ATOM     22  C   UNL     1       4.883   4.715  16.040  0.00  0.00    +0.000 A 
ATOM     23  N   UNL     1       4.008   4.567  17.059  0.00  0.00    +0.000 NA
ENDBRANCH   5  18
BRANCH   1  25
ATOM     24  N   UNL     1       3.548   1.597  18.659  0.00  0.00    +0.000 N 
ATOM     25  C   UNL     1       4.039   2.285  19.769  0.00  0.00    +0.000 C 
ATOM     26  O   UNL     1       4.987   1.891  20.446  0.00  0.00    +0.000 OA
ATOM     27  H   UNL     1       2.843   2.059  18.086  0.00  0.00    +0.000 HD
BRANCH  24  28
ATOM     28  N   UNL     1       4.253   0.482  18.151  0.00  0.00    +0.000 NA
ATOM     29  H   UNL     1       3.639  -0.336  18.138  0.00  0.00    +0.000 HD
ATOM     30  H   UNL     1       5.002   0.260  18.818  0.00  0.00    +0.000 HD
ENDBRANCH  24  28
ENDBRANCH   1  25
TORSDOF 6
ENDMDL
MODEL 7
REMARK VINA RESULT:      -7.7      2.825      4.280
REMARK  Name = 
REMARK  6 active torsions:
REMARK  status: ('A' for Active; 'I' for Inactive)
REMARK    1  A    between atoms: N_1  and  N_2
REMARK    2  A    between atoms: C_3  and  C_5
REMARK    3  A    between atoms: N_8  and  C_9
REMARK    4  A    between atoms: C_12  and  S_13
REMARK    5  A    between atoms: S_13  and  N_14
REMARK    6  A    between atoms: C_19  and  C_20
REMARK                            x       y       z     vdW  Elec       q    Type
REMARK                         _______ _______ _______ _____ _____    ______ ____
ROOT
ATOM      1  C   UNL     1       5.079   5.558  16.389  0.00  0.00    +0.000 A 
ATOM      2  N   UNL     1       5.243   6.881  16.059  0.00  0.00    +0.000 NA
ATOM      3  N   UNL     1       4.313   7.585  16.682  0.00  0.00    +0.000 NA
ATOM      4  N   UNL     1       3.641   6.750  17.527  0.00  0.00    +0.000 N 
ATOM      5  C   UNL     1       4.045   5.429  17.307  0.00  0.00    +0.000 A 
ENDROOT
BRANCH   4   6
ATOM      6  C   UNL     1       2.729   7.287  18.479  0.00  0.00    +0.000 A 
ATOM      7  C   UNL     1       2.550   6.652  19.716  0.00  0.00    +0.000 A 
ATOM      8  C   UNL     1       1.815   7.287  20.724  0.00  0.00    +0.000 A 
ATOM      9  C   UNL     1       1.250   8.545  20.482  0.00  0.00    +0.000 A 
ATOM     10  C   UNL     1       1.326   9.127  19.216  0.00  0.00    +0.000 A 
ATOM     11  C   UNL     1       2.045   8.484  18.214  0.00  0.00    +0.000 A 
BRANCH   9  12
ATOM     12  S   UNL     1       0.426   9.425  21.776  0.00  0.00    +0.000 S 
ATOM     13  O   UNL     1       1.328   9.583  22.895  0.00  0.00    +0.000 OA
ATOM     14  O   UNL     1      -0.313  10.527  21.208  0.00  0.00    +0.000 OA
BRANCH  12  15
ATOM     15  N   UNL     1      -0.723   8.303  22.275  0.00  0.00    +0.000 NA
ATOM     16  H   UNL     1      -0.698   8.208  23.291  0.00  0.00    +0.000 HD
ATOM     17  H   UNL     1      -1.640   8.559  21.906  0.00  0.00    +0.000 HD
ENDBRANCH  12  15
ENDBRANCH   9  12
ENDBRANCH   4   6
BRANCH   5  18
ATOM     18  C   UNL     1       3.448   4.255  17.934  0.00  0.00    +0.000 A 
ATOM     19  C   UNL     1       4.075   3.538  18.944  0.00  0.00    +0.000 A 
ATOM     20  C   UNL     1       3.344   2.565  19.624  0.00  0.00    +0.000 A 
ATOM     21  C   UNL     1       2.013   2.350  19.292  0.00  0.00    +0.000 A 
ATOM     22  C   UNL     1       1.479   3.079  18.246  0.00  0.00    +0.000 A 
ATOM     23  N   UNL     1       2.176   4.002  17.548  0.00  0.00    +0.000 NA
ENDBRANCH   5  18
BRANCH   1  25
ATOM     24  N   UNL     1       5.539   4.205  14.485  0.00  0.00    +0.000 N 
ATOM     25  C   UNL     1       5.901   4.512  15.797  0.00  0.00    +0.000 C 
ATOM     26  O   UNL     1       6.840   3.976  16.383  0.00  0.00    +0.000 OA
ATOM     27  H   UNL     1       4.830   4.785  14.038  0.00  0.00    +0.000 HD
BRANCH  24  28
ATOM     28  N   UNL     1       6.369   3.373  13.699  0.00  0.00    +0.000 NA
ATOM     29  H   UNL     1       7.243   3.190  14.197  0.00  0.00    +0.000 HD
ATOM     30  H   UNL     1       6.630   3.903  12.859  0.00  0.00    +0.000 HD
ENDBRANCH  24  28
ENDBRANCH   1  25
TORSDOF 6
ENDMDL
MODEL 8
REMARK VINA RESULT:      -7.5      2.477      4.034
REMARK  Name = 
REMARK  6 active torsions:
REMARK  status: ('A' for Active; 'I' for Inactive)
REMARK    1  A    between atoms: N_1  and  N_2
REMARK    2  A    between atoms: C_3  and  C_5
REMARK    3  A    between atoms: N_8  and  C_9
REMARK    4  A    between atoms: C_12  and  S_13
REMARK    5  A    between atoms: S_13  and  N_14
REMARK    6  A    between atoms: C_19  and  C_20
REMARK                            x       y       z     vdW  Elec       q    Type
REMARK                         _______ _______ _______ _____ _____    ______ ____
ROOT
ATOM      1  C   UNL     1       4.626   5.897  17.426  0.00  0.00    +0.000 A 
ATOM      2  N   UNL     1       4.859   7.126  16.857  0.00  0.00    +0.000 NA
ATOM      3  N   UNL     1       3.886   7.945  17.219  0.00  0.00    +0.000 NA
ATOM      4  N   UNL     1       3.106   7.301  18.136  0.00  0.00    +0.000 N 
ATOM      5  C   UNL     1       3.497   5.961  18.232  0.00  0.00    +0.000 A 
ENDROOT
BRANCH   4   6
ATOM      6  C   UNL     1       2.111   8.024  18.853  0.00  0.00    +0.000 A 
ATOM      7  C   UNL     1       1.880   7.742  20.207  0.00  0.00    +0.000 A 
ATOM      8  C   UNL     1       1.054   8.585  20.961  0.00  0.00    +0.000 A 
ATOM      9  C   UNL     1       0.453   9.693  20.351  0.00  0.00    +0.000 A 
ATOM     10  C   UNL     1       0.586   9.908  18.979  0.00  0.00    +0.000 A 
ATOM     11  C   UNL     1       1.396   9.058  18.232  0.00  0.00    +0.000 A 
BRANCH   9  12
ATOM     12  S   UNL     1      -0.491  10.843  21.307  0.00  0.00    +0.000 S 
ATOM     13  O   UNL     1      -1.497  11.452  20.466  0.00  0.00    +0.000 OA
ATOM     14  O   UNL     1      -0.798  10.257  22.590  0.00  0.00    +0.000 OA
BRANCH  12  15
ATOM     15  N   UNL     1       0.641  12.050  21.607  0.00  0.00    +0.000 NA
ATOM     16  H   UNL     1       0.378  12.904  21.114  0.00  0.00    +0.000 HD
ATOM     17  H   UNL     1       0.759  12.173  22.613  0.00  0.00    +0.000 HD
ENDBRANCH  12  15
ENDBRANCH   9  12
ENDBRANCH   4   6
BRANCH   5  18
ATOM     18  C   UNL     1       2.805   4.942  19.013  0.00  0.00    +0.000 A 
ATOM     19  C   UNL     1       3.078   4.705  20.354  0.00  0.00    +0.000 A 
ATOM     20  C   UNL     1       2.228   3.862  21.069  0.00  0.00    +0.000 A 
ATOM     21  C   UNL     1       1.129   3.298  20.434  0.00  0.00    +0.000 A 
ATOM     22  C   UNL     1       0.955   3.553  19.087  0.00  0.00    +0.000 A 
ATOM     23  N   UNL     1       1.784   4.337  18.363  0.00  0.00    +0.000 NA
ENDBRANCH   5  18
BRANCH   1  25
ATOM     24  N   UNL     1       6.836   5.073  17.103  0.00  0.00    +0.000 N 
ATOM     25  C   UNL     1       5.479   4.749  17.151  0.00  0.00    +0.000 C 
ATOM     26  O   UNL     1       5.051   3.606  17.009  0.00  0.00    +0.000 OA
ATOM     27  H   UNL     1       7.108   6.023  17.355  0.00  0.00    +0.000 HD
BRANCH  24  28
ATOM     28  N   UNL     1       7.806   4.046  17.063  0.00  0.00    +0.000 NA
ATOM     29  H   UNL     1       8.186   3.969  16.117  0.00  0.00    +0.000 HD
ATOM     30  H   UNL     1       7.324   3.158  17.246  0.00  0.00    +0.000 HD
ENDBRANCH  24  28
ENDBRANCH   1  25
TORSDOF 6
ENDMDL
