MODEL 1
REMARK VINA RESULT:      -7.8      0.000      0.000
REMARK  Name = 
REMARK  9 active torsions:
REMARK  status: ('A' for Active; 'I' for Inactive)
REMARK    1  A    between atoms: C_1  and  O_2
REMARK    2  A    between atoms: O_2  and  C_3
REMARK    3  A    between atoms: C_6  and  C_7
REMARK    4  A    between atoms: C_9  and  C_10
REMARK    5  A    between atoms: C_10  and  N_11
REMARK    6  A    between atoms: N_11  and  C_12
REMARK    7  A    between atoms: C_12  and  C_13
REMARK    8  A    between atoms: C_18  and  O_19
REMARK    9  A    between atoms: O_19  and  C_20
REMARK                            x       y       z     vdW  Elec       q    Type
REMARK                         _______ _______ _______ _____ _____    ______ ____
ROOT
ATOM      1  C   UNL     1       5.847   5.977  16.669  0.00  0.00    +0.000 C 
ENDROOT
BRANCH   1   4
ATOM      2  C   UNL     1       7.981   8.493  18.010  0.00  0.00    +0.000 A 
ATOM      3  N   UNL     1       7.000   8.156  17.198  0.00  0.00    +0.000 NA
ATOM      4  C   UNL     1       6.831   6.798  17.426  0.00  0.00    +0.000 A 
ATOM      5  C   UNL     1       7.739   6.374  18.363  0.00  0.00    +0.000 A 
ATOM      6  O   UNL     1       8.484   7.440  18.746  0.00  0.00    +0.000 OA
BRANCH   2  10
ATOM      7  C   UNL     1       9.644  12.333  18.881  0.00  0.00    +0.000 A 
ATOM      8  C   UNL     1       8.778  12.168  17.799  0.00  0.00    +0.000 A 
ATOM      9  C   UNL     1       8.243  10.909  17.504  0.00  0.00    +0.000 A 
ATOM     10  C   UNL     1       8.582   9.792  18.282  0.00  0.00    +0.000 A 
ATOM     11  C   UNL     1       9.483   9.971  19.344  0.00  0.00    +0.000 A 
ATOM     12  C   UNL     1      10.012  11.226  19.639  0.00  0.00    +0.000 A 
BRANCH   7  14
ATOM     13  C   UNL     1      10.835  13.801  20.289  0.00  0.00    +0.000 C 
ATOM     14  O   UNL     1      10.096  13.608  19.086  0.00  0.00    +0.000 OA
ENDBRANCH   7  14
ENDBRANCH   2  10
ENDBRANCH   1   4
BRANCH   1  15
ATOM     15  N   UNL     1       5.459   4.790  17.435  0.00  0.00    +0.000 NA
ATOM     16  H   UNL     1       5.222   5.128  18.371  0.00  0.00    +0.000 HD
BRANCH  15  17
ATOM     17  C   UNL     1       4.256   4.124  16.901  0.00  0.00    +0.000 C 
BRANCH  17  18
ATOM     18  C   UNL     1       3.165   3.881  17.933  0.00  0.00    +0.000 A 
ATOM     19  C   UNL     1       2.404   2.692  17.816  0.00  0.00    +0.000 A 
ATOM     20  C   UNL     1       1.303   2.424  18.634  0.00  0.00    +0.000 A 
ATOM     21  C   UNL     1       0.941   3.339  19.600  0.00  0.00    +0.000 A 
ATOM     22  C   UNL     1       1.684   4.506  19.759  0.00  0.00    +0.000 A 
ATOM     23  C   UNL     1       2.818   4.783  18.957  0.00  0.00    +0.000 A 
BRANCH  23  24
ATOM     24  O   UNL     1       3.285   6.050  19.158  0.00  0.00    +0.000 OA
BRANCH  24  25
ATOM     25  C   UNL     1       2.694   7.200  18.574  0.00  0.00    +0.000 C 
ATOM     26  F   UNL     1       3.543   8.004  17.917  0.00  0.00    +0.000 F 
ATOM     27  F   UNL     1       1.747   6.780  17.706  0.00  0.00    +0.000 F 
ATOM     28  F   UNL     1       2.082   7.940  19.527  0.00  0.00    +0.000 F 
ENDBRANCH  24  25
ENDBRANCH  23  24
ENDBRANCH  17  18
ENDBRANCH  15  17
ENDBRANCH   1  15
TORSDOF 8
ENDMDL
MODEL 2
REMARK VINA RESULT:      -7.7      1.475      1.755
REMARK  Name = 
REMARK  9 active torsions:
REMARK  status: ('A' for Active; 'I' for Inactive)
REMARK    1  A    between atoms: C_1  and  O_2
REMARK    2  A    between atoms: O_2  and  C_3
REMARK    3  A    between atoms: C_6  and  C_7
REMARK    4  A    between atoms: C_9  and  C_10
REMARK    5  A    between atoms: C_10  and  N_11
REMARK    6  A    between atoms: N_11  and  C_12
REMARK    7  A    between atoms: C_12  and  C_13
REMARK    8  A    between atoms: C_18  and  O_19
REMARK    9  A    between atoms: O_19  and  C_20
REMARK                            x       y       z     vdW  Elec       q    Type
REMARK                         _______ _______ _______ _____ _____    ______ ____
ROOT
ATOM      1  C   UNL     1       7.398   5.219  18.476  0.00  0.00    +0.000 C 
ENDROOT
BRANCH   1   4
ATOM      2  C   UNL     1       8.358   8.647  18.385  0.00  0.00    +0.000 A 
ATOM      3  N   UNL     1       8.441   7.464  18.957  0.00  0.00    +0.000 NA
ATOM      4  C   UNL     1       7.643   6.654  18.163  0.00  0.00    +0.000 A 
ATOM      5  C   UNL     1       7.100   7.400  17.147  0.00  0.00    +0.000 A 
ATOM      6  O   UNL     1       7.541   8.675  17.273  0.00  0.00    +0.000 OA
BRANCH   2  10
ATOM      7  C   UNL     1      10.405  12.276  19.344  0.00  0.00    +0.000 A 
ATOM      8  C   UNL     1       9.914  11.453  20.359  0.00  0.00    +0.000 A 
ATOM      9  C   UNL     1       9.232  10.271  20.047  0.00  0.00    +0.000 A 
ATOM     10  C   UNL     1       9.019   9.905  18.709  0.00  0.00    +0.000 A 
ATOM     11  C   UNL     1       9.488  10.763  17.703  0.00  0.00    +0.000 A 
ATOM     12  C   UNL     1      10.170  11.938  18.015  0.00  0.00    +0.000 A 
BRANCH   7  14
ATOM     13  C   UNL     1      10.518  14.030  20.914  0.00  0.00    +0.000 C 
ATOM     14  O   UNL     1      11.067  13.397  19.762  0.00  0.00    +0.000 OA
ENDBRANCH   7  14
ENDBRANCH   2  10
ENDBRANCH   1   4
BRANCH   1  15
ATOM     15  N   UNL     1       6.241   5.069  19.361  0.00  0.00    +0.000 NA
ATOM     16  H   UNL     1       5.782   5.984  19.377  0.00  0.00    +0.000 HD
BRANCH  15  17
ATOM     17  C   UNL     1       5.249   4.100  18.858  0.00  0.00    +0.000 C 
BRANCH  17  18
ATOM     18  C   UNL     1       3.969   4.031  19.677  0.00  0.00    +0.000 A 
ATOM     19  C   UNL     1       3.570   2.763  20.168  0.00  0.00    +0.000 A 
ATOM     20  C   UNL     1       2.356   2.563  20.828  0.00  0.00    +0.000 A 
ATOM     21  C   UNL     1       1.510   3.634  21.024  0.00  0.00    +0.000 A 
ATOM     22  C   UNL     1       1.883   4.899  20.578  0.00  0.00    +0.000 A 
ATOM     23  C   UNL     1       3.121   5.126  19.931  0.00  0.00    +0.000 A 
BRANCH  23  24
ATOM     24  O   UNL     1       3.204   6.391  19.422  0.00  0.00    +0.000 OA
BRANCH  24  25
ATOM     25  C   UNL     1       2.848   6.719  18.089  0.00  0.00    +0.000 C 
ATOM     26  F   UNL     1       3.864   6.714  17.211  0.00  0.00    +0.000 F 
ATOM     27  F   UNL     1       1.924   5.824  17.677  0.00  0.00    +0.000 F 
ATOM     28  F   UNL     1       2.281   7.947  18.051  0.00  0.00    +0.000 F 
ENDBRANCH  24  25
ENDBRANCH  23  24
ENDBRANCH  17  18
ENDBRANCH  15  17
ENDBRANCH   1  15
TORSDOF 8
ENDMDL
MODEL 3
REMARK VINA RESULT:      -7.7      1.510      1.748
REMARK  Name = 
REMARK  9 active torsions:
REMARK  status: ('A' for Active; 'I' for Inactive)
REMARK    1  A    between atoms: C_1  and  O_2
REMARK    2  A    between atoms: O_2  and  C_3
REMARK    3  A    between atoms: C_6  and  C_7
REMARK    4  A    between atoms: C_9  and  C_10
REMARK    5  A    between atoms: C_10  and  N_11
REMARK    6  A    between atoms: N_11  and  C_12
REMARK    7  A    between atoms: C_12  and  C_13
REMARK    8  A    between atoms: C_18  and  O_19
REMARK    9  A    between atoms: O_19  and  C_20
REMARK                            x       y       z     vdW  Elec       q    Type
REMARK                         _______ _______ _______ _____ _____    ______ ____
ROOT
ATOM      1  C   UNL     1       7.499   5.286  18.567  0.00  0.00    +0.000 C 
ENDROOT
BRANCH   1   4
ATOM      2  C   UNL     1       8.413   8.726  18.447  0.00  0.00    +0.000 A 
ATOM      3  N   UNL     1       8.532   7.543  19.014  0.00  0.00    +0.000 NA
ATOM      4  C   UNL     1       7.714   6.724  18.248  0.00  0.00    +0.000 A 
ATOM      5  C   UNL     1       7.124   7.465  17.255  0.00  0.00    +0.000 A 
ATOM      6  O   UNL     1       7.554   8.745  17.367  0.00  0.00    +0.000 OA
BRANCH   2  10
ATOM      7  C   UNL     1      10.228  12.493  19.332  0.00  0.00    +0.000 A 
ATOM      8  C   UNL     1      10.023  12.102  18.008  0.00  0.00    +0.000 A 
ATOM      9  C   UNL     1       9.441  10.864  17.716  0.00  0.00    +0.000 A 
ATOM     10  C   UNL     1       9.070   9.990  18.749  0.00  0.00    +0.000 A 
ATOM     11  C   UNL     1       9.317  10.385  20.074  0.00  0.00    +0.000 A 
ATOM     12  C   UNL     1       9.894  11.621  20.364  0.00  0.00    +0.000 A 
BRANCH   7  14
ATOM     13  C   UNL     1      10.842  14.537  18.331  0.00  0.00    +0.000 C 
ATOM     14  O   UNL     1      10.790  13.728  19.503  0.00  0.00    +0.000 OA
ENDBRANCH   7  14
ENDBRANCH   2  10
ENDBRANCH   1   4
BRANCH   1  15
ATOM     15  N   UNL     1       6.334   5.114  19.439  0.00  0.00    +0.000 NA
ATOM     16  H   UNL     1       5.985   6.058  19.626  0.00  0.00    +0.000 HD
BRANCH  15  17
ATOM     17  C   UNL     1       5.234   4.370  18.796  0.00  0.00    +0.000 C 
BRANCH  17  18
ATOM     18  C   UNL     1       4.001   4.197  19.669  0.00  0.00    +0.000 A 
ATOM     19  C   UNL     1       3.718   2.896  20.156  0.00  0.00    +0.000 A 
ATOM     20  C   UNL     1       2.553   2.599  20.865  0.00  0.00    +0.000 A 
ATOM     21  C   UNL     1       1.640   3.602  21.115  0.00  0.00    +0.000 A 
ATOM     22  C   UNL     1       1.899   4.897  20.674  0.00  0.00    +0.000 A 
ATOM     23  C   UNL     1       3.087   5.223  19.976  0.00  0.00    +0.000 A 
BRANCH  23  24
ATOM     24  O   UNL     1       3.054   6.497  19.484  0.00  0.00    +0.000 OA
BRANCH  24  25
ATOM     25  C   UNL     1       2.625   6.814  18.170  0.00  0.00    +0.000 C 
ATOM     26  F   UNL     1       1.907   5.858  17.561  0.00  0.00    +0.000 F 
ATOM     27  F   UNL     1       1.871   7.933  18.243  0.00  0.00    +0.000 F 
ATOM     28  F   UNL     1       3.694   7.085  17.388  0.00  0.00    +0.000 F 
ENDBRANCH  24  25
ENDBRANCH  23  24
ENDBRANCH  17  18
ENDBRANCH  15  17
ENDBRANCH   1  15
TORSDOF 8
ENDMDL
MODEL 4
REMARK VINA RESULT:      -7.6      0.627      1.119
REMARK  Name = 
REMARK  9 active torsions:
REMARK  status: ('A' for Active; 'I' for Inactive)
REMARK    1  A    between atoms: C_1  and  O_2
REMARK    2  A    between atoms: O_2  and  C_3
REMARK    3  A    between atoms: C_6  and  C_7
REMARK    4  A    between atoms: C_9  and  C_10
REMARK    5  A    between atoms: C_10  and  N_11
REMARK    6  A    between atoms: N_11  and  C_12
REMARK    7  A    between atoms: C_12  and  C_13
REMARK    8  A    between atoms: C_18  and  O_19
REMARK    9  A    between atoms: O_19  and  C_20
REMARK                            x       y       z     vdW  Elec       q    Type
REMARK                         _______ _______ _______ _____ _____    ______ ____
ROOT
ATOM      1  C   UNL     1       6.130   5.433  16.178  0.00  0.00    +0.000 C 
ENDROOT
BRANCH   1   4
ATOM      2  C   UNL     1       7.862   8.047  17.866  0.00  0.00    +0.000 A 
ATOM      3  N   UNL     1       7.116   7.653  16.855  0.00  0.00    +0.000 NA
ATOM      4  C   UNL     1       6.894   6.308  17.109  0.00  0.00    +0.000 A 
ATOM      5  C   UNL     1       7.537   5.948  18.267  0.00  0.00    +0.000 A 
ATOM      6  O   UNL     1       8.164   7.043  18.763  0.00  0.00    +0.000 OA
BRANCH   2  10
ATOM      7  C   UNL     1       9.472  11.897  18.794  0.00  0.00    +0.000 A 
ATOM      8  C   UNL     1       9.788  10.791  19.584  0.00  0.00    +0.000 A 
ATOM      9  C   UNL     1       9.251   9.532  19.290  0.00  0.00    +0.000 A 
ATOM     10  C   UNL     1       8.376   9.367  18.206  0.00  0.00    +0.000 A 
ATOM     11  C   UNL     1       8.042  10.498  17.444  0.00  0.00    +0.000 A 
ATOM     12  C   UNL     1       8.580  11.751  17.736  0.00  0.00    +0.000 A 
BRANCH   7  14
ATOM     13  C   UNL     1       9.647  14.218  18.421  0.00  0.00    +0.000 C 
ATOM     14  O   UNL     1      10.063  13.074  19.162  0.00  0.00    +0.000 OA
ENDBRANCH   7  14
ENDBRANCH   2  10
ENDBRANCH   1   4
BRANCH   1  15
ATOM     15  N   UNL     1       4.756   5.243  16.650  0.00  0.00    +0.000 NA
ATOM     16  H   UNL     1       4.155   5.474  15.854  0.00  0.00    +0.000 HD
BRANCH  15  17
ATOM     17  C   UNL     1       4.460   3.846  17.021  0.00  0.00    +0.000 C 
BRANCH  17  18
ATOM     18  C   UNL     1       3.318   3.691  18.013  0.00  0.00    +0.000 A 
ATOM     19  C   UNL     1       2.534   2.513  17.935  0.00  0.00    +0.000 A 
ATOM     20  C   UNL     1       1.392   2.319  18.715  0.00  0.00    +0.000 A 
ATOM     21  C   UNL     1       1.007   3.300  19.604  0.00  0.00    +0.000 A 
ATOM     22  C   UNL     1       1.770   4.459  19.726  0.00  0.00    +0.000 A 
ATOM     23  C   UNL     1       2.945   4.662  18.963  0.00  0.00    +0.000 A 
BRANCH  23  24
ATOM     24  O   UNL     1       3.432   5.930  19.106  0.00  0.00    +0.000 OA
BRANCH  24  25
ATOM     25  C   UNL     1       2.790   7.076  18.573  0.00  0.00    +0.000 C 
ATOM     26  F   UNL     1       3.596   7.925  17.917  0.00  0.00    +0.000 F 
ATOM     27  F   UNL     1       1.833   6.652  17.719  0.00  0.00    +0.000 F 
ATOM     28  F   UNL     1       2.184   7.769  19.563  0.00  0.00    +0.000 F 
ENDBRANCH  24  25
ENDBRANCH  23  24
ENDBRANCH  17  18
ENDBRANCH  15  17
ENDBRANCH   1  15
TORSDOF 8
ENDMDL
MODEL 5
REMARK VINA RESULT:      -7.5      2.146      2.760
REMARK  Name = 
REMARK  9 active torsions:
REMARK  status: ('A' for Active; 'I' for Inactive)
REMARK    1  A    between atoms: C_1  and  O_2
REMARK    2  A    between atoms: O_2  and  C_3
REMARK    3  A    between atoms: C_6  and  C_7
REMARK    4  A    between atoms: C_9  and  C_10
REMARK    5  A    between atoms: C_10  and  N_11
REMARK    6  A    between atoms: N_11  and  C_12
REMARK    7  A    between atoms: C_12  and  C_13
REMARK    8  A    between atoms: C_18  and  O_19
REMARK    9  A    between atoms: O_19  and  C_20
REMARK                            x       y       z     vdW  Elec       q    Type
REMARK                         _______ _______ _______ _____ _____    ______ ____
ROOT
ATOM      1  C   UNL     1       6.199   5.983  16.574  0.00  0.00    +0.000 C 
ENDROOT
BRANCH   1   4
ATOM      2  C   UNL     1       8.121   8.574  18.083  0.00  0.00    +0.000 A 
ATOM      3  N   UNL     1       7.255   8.196  17.164  0.00  0.00    +0.000 NA
ATOM      4  C   UNL     1       7.070   6.844  17.419  0.00  0.00    +0.000 A 
ATOM      5  C   UNL     1       7.853   6.467  18.481  0.00  0.00    +0.000 A 
ATOM      6  O   UNL     1       8.534   7.555  18.916  0.00  0.00    +0.000 OA
BRANCH   2  10
ATOM      7  C   UNL     1       9.626  12.464  19.019  0.00  0.00    +0.000 A 
ATOM      8  C   UNL     1       8.866  12.260  17.867  0.00  0.00    +0.000 A 
ATOM      9  C   UNL     1       8.383  10.985  17.551  0.00  0.00    +0.000 A 
ATOM     10  C   UNL     1       8.670   9.890  18.381  0.00  0.00    +0.000 A 
ATOM     11  C   UNL     1       9.466  10.108  19.516  0.00  0.00    +0.000 A 
ATOM     12  C   UNL     1       9.944  11.379  19.831  0.00  0.00    +0.000 A 
BRANCH   7  14
ATOM     13  C   UNL     1      10.391  14.479  18.066  0.00  0.00    +0.000 C 
ATOM     14  O   UNL     1      10.034  13.751  19.238  0.00  0.00    +0.000 OA
ENDBRANCH   7  14
ENDBRANCH   2  10
ENDBRANCH   1   4
BRANCH   1  15
ATOM     15  N   UNL     1       5.147   5.356  17.378  0.00  0.00    +0.000 NA
ATOM     16  H   UNL     1       5.515   5.314  18.332  0.00  0.00    +0.000 HD
BRANCH  15  17
ATOM     17  C   UNL     1       3.906   6.153  17.431  0.00  0.00    +0.000 C 
BRANCH  17  18
ATOM     18  C   UNL     1       2.916   5.699  18.493  0.00  0.00    +0.000 A 
ATOM     19  C   UNL     1       2.561   6.629  19.501  0.00  0.00    +0.000 A 
ATOM     20  C   UNL     1       1.756   6.284  20.589  0.00  0.00    +0.000 A 
ATOM     21  C   UNL     1       1.274   4.995  20.691  0.00  0.00    +0.000 A 
ATOM     22  C   UNL     1       1.582   4.063  19.703  0.00  0.00    +0.000 A 
ATOM     23  C   UNL     1       2.375   4.401  18.580  0.00  0.00    +0.000 A 
BRANCH  23  24
ATOM     24  O   UNL     1       2.699   3.302  17.837  0.00  0.00    +0.000 OA
BRANCH  24  25
ATOM     25  C   UNL     1       3.435   2.204  18.350  0.00  0.00    +0.000 C 
ATOM     26  F   UNL     1       4.366   2.521  19.265  0.00  0.00    +0.000 F 
ATOM     27  F   UNL     1       2.556   1.348  18.916  0.00  0.00    +0.000 F 
ATOM     28  F   UNL     1       4.057   1.552  17.342  0.00  0.00    +0.000 F 
ENDBRANCH  24  25
ENDBRANCH  23  24
ENDBRANCH  17  18
ENDBRANCH  15  17
ENDBRANCH   1  15
TORSDOF 8
ENDMDL
MODEL 6
REMARK VINA RESULT:      -7.5      3.978      6.466
REMARK  Name = 
REMARK  9 active torsions:
REMARK  status: ('A' for Active; 'I' for Inactive)
REMARK    1  A    between atoms: C_1  and  O_2
REMARK    2  A    between atoms: O_2  and  C_3
REMARK    3  A    between atoms: C_6  and  C_7
REMARK    4  A    between atoms: C_9  and  C_10
REMARK    5  A    between atoms: C_10  and  N_11
REMARK    6  A    between atoms: N_11  and  C_12
REMARK    7  A    between atoms: C_12  and  C_13
REMARK    8  A    between atoms: C_18  and  O_19
REMARK    9  A    between atoms: O_19  and  C_20
REMARK                            x       y       z     vdW  Elec       q    Type
REMARK                         _______ _______ _______ _____ _____    ______ ____
ROOT
ATOM      1  C   UNL     1       4.482   3.411  19.259  0.00  0.00    +0.000 C 
ENDROOT
BRANCH   1   4
ATOM      2  C   UNL     1       2.557   6.377  19.684  0.00  0.00    +0.000 A 
ATOM      3  N   UNL     1       3.541   5.744  19.079  0.00  0.00    +0.000 NA
ATOM      4  C   UNL     1       3.497   4.467  19.621  0.00  0.00    +0.000 A 
ATOM      5  C   UNL     1       2.488   4.397  20.547  0.00  0.00    +0.000 A 
ATOM      6  O   UNL     1       1.878   5.606  20.605  0.00  0.00    +0.000 OA
BRANCH   2  10
ATOM      7  C   UNL     1       0.971  10.305  19.107  0.00  0.00    +0.000 A 
ATOM      8  C   UNL     1       1.728   9.695  18.105  0.00  0.00    +0.000 A 
ATOM      9  C   UNL     1       2.260   8.414  18.297  0.00  0.00    +0.000 A 
ATOM     10  C   UNL     1       2.052   7.732  19.505  0.00  0.00    +0.000 A 
ATOM     11  C   UNL     1       1.319   8.376  20.514  0.00  0.00    +0.000 A 
ATOM     12  C   UNL     1       0.787   9.650  20.321  0.00  0.00    +0.000 A 
BRANCH   7  14
ATOM     13  C   UNL     1       1.483  12.545  18.583  0.00  0.00    +0.000 C 
ATOM     14  O   UNL     1       0.489  11.549  18.808  0.00  0.00    +0.000 OA
ENDBRANCH   7  14
ENDBRANCH   2  10
ENDBRANCH   1   4
BRANCH   1  15
ATOM     15  N   UNL     1       5.364   3.867  18.181  0.00  0.00    +0.000 NA
ATOM     16  H   UNL     1       6.249   3.371  18.318  0.00  0.00    +0.000 HD
BRANCH  15  17
ATOM     17  C   UNL     1       4.871   3.503  16.839  0.00  0.00    +0.000 C 
BRANCH  17  18
ATOM     18  C   UNL     1       5.700   4.067  15.695  0.00  0.00    +0.000 A 
ATOM     19  C   UNL     1       5.369   3.656  14.379  0.00  0.00    +0.000 A 
ATOM     20  C   UNL     1       6.133   4.015  13.267  0.00  0.00    +0.000 A 
ATOM     21  C   UNL     1       7.249   4.806  13.442  0.00  0.00    +0.000 A 
ATOM     22  C   UNL     1       7.587   5.250  14.718  0.00  0.00    +0.000 A 
ATOM     23  C   UNL     1       6.810   4.917  15.853  0.00  0.00    +0.000 A 
BRANCH  23  24
ATOM     24  O   UNL     1       7.417   5.302  17.015  0.00  0.00    +0.000 OA
BRANCH  24  25
ATOM     25  C   UNL     1       7.308   6.609  17.555  0.00  0.00    +0.000 C 
ATOM     26  F   UNL     1       8.064   7.539  16.951  0.00  0.00    +0.000 F 
ATOM     27  F   UNL     1       6.014   6.986  17.463  0.00  0.00    +0.000 F 
ATOM     28  F   UNL     1       7.643   6.597  18.866  0.00  0.00    +0.000 F 
ENDBRANCH  24  25
ENDBRANCH  23  24
ENDBRANCH  17  18
ENDBRANCH  15  17
ENDBRANCH   1  15
TORSDOF 8
ENDMDL
MODEL 7
REMARK VINA RESULT:      -7.5      1.294      1.463
REMARK  Name = 
REMARK  9 active torsions:
REMARK  status: ('A' for Active; 'I' for Inactive)
REMARK    1  A    between atoms: C_1  and  O_2
REMARK    2  A    between atoms: O_2  and  C_3
REMARK    3  A    between atoms: C_6  and  C_7
REMARK    4  A    between atoms: C_9  and  C_10
REMARK    5  A    between atoms: C_10  and  N_11
REMARK    6  A    between atoms: N_11  and  C_12
REMARK    7  A    between atoms: C_12  and  C_13
REMARK    8  A    between atoms: C_18  and  O_19
REMARK    9  A    between atoms: O_19  and  C_20
REMARK                            x       y       z     vdW  Elec       q    Type
REMARK                         _______ _______ _______ _____ _____    ______ ____
ROOT
ATOM      1  C   UNL     1       7.238   4.855  18.465  0.00  0.00    +0.000 C 
ENDROOT
BRANCH   1   4
ATOM      2  C   UNL     1       8.044   8.303  18.082  0.00  0.00    +0.000 A 
ATOM      3  N   UNL     1       8.101   7.201  18.801  0.00  0.00    +0.000 NA
ATOM      4  C   UNL     1       7.458   6.256  18.014  0.00  0.00    +0.000 A 
ATOM      5  C   UNL     1       7.027   6.846  16.852  0.00  0.00    +0.000 A 
ATOM      6  O   UNL     1       7.388   8.152  16.878  0.00  0.00    +0.000 OA
BRANCH   2  10
ATOM      7  C   UNL     1       9.562  12.216  18.894  0.00  0.00    +0.000 A 
ATOM      8  C   UNL     1       8.704  12.001  17.814  0.00  0.00    +0.000 A 
ATOM      9  C   UNL     1       8.216  10.719  17.538  0.00  0.00    +0.000 A 
ATOM     10  C   UNL     1       8.595   9.628  18.334  0.00  0.00    +0.000 A 
ATOM     11  C   UNL     1       9.488   9.856  19.394  0.00  0.00    +0.000 A 
ATOM     12  C   UNL     1       9.970  11.135  19.669  0.00  0.00    +0.000 A 
BRANCH   7  14
ATOM     13  C   UNL     1       9.059  14.327  19.813  0.00  0.00    +0.000 C 
ATOM     14  O   UNL     1       9.966  13.509  19.079  0.00  0.00    +0.000 OA
ENDBRANCH   7  14
ENDBRANCH   2  10
ENDBRANCH   1   4
BRANCH   1  15
ATOM     15  N   UNL     1       6.033   4.757  19.292  0.00  0.00    +0.000 NA
ATOM     16  H   UNL     1       5.667   5.710  19.364  0.00  0.00    +0.000 HD
BRANCH  15  17
ATOM     17  C   UNL     1       4.974   3.935  18.676  0.00  0.00    +0.000 C 
BRANCH  17  18
ATOM     18  C   UNL     1       3.693   3.851  19.492  0.00  0.00    +0.000 A 
ATOM     19  C   UNL     1       3.610   2.842  20.483  0.00  0.00    +0.000 A 
ATOM     20  C   UNL     1       2.442   2.597  21.208  0.00  0.00    +0.000 A 
ATOM     21  C   UNL     1       1.323   3.366  20.965  0.00  0.00    +0.000 A 
ATOM     22  C   UNL     1       1.378   4.384  20.016  0.00  0.00    +0.000 A 
ATOM     23  C   UNL     1       2.560   4.664  19.291  0.00  0.00    +0.000 A 
BRANCH  23  24
ATOM     24  O   UNL     1       2.343   5.573  18.295  0.00  0.00    +0.000 OA
BRANCH  24  25
ATOM     25  C   UNL     1       2.743   6.931  18.379  0.00  0.00    +0.000 C 
ATOM     26  F   UNL     1       3.958   7.198  17.874  0.00  0.00    +0.000 F 
ATOM     27  F   UNL     1       1.831   7.671  17.712  0.00  0.00    +0.000 F 
ATOM     28  F   UNL     1       2.739   7.335  19.670  0.00  0.00    +0.000 F 
ENDBRANCH  24  25
ENDBRANCH  23  24
ENDBRANCH  17  18
ENDBRANCH  15  17
ENDBRANCH   1  15
TORSDOF 8
ENDMDL
MODEL 8
REMARK VINA RESULT:      -7.5      4.404      7.290
REMARK  Name = 
REMARK  9 active torsions:
REMARK  status: ('A' for Active; 'I' for Inactive)
REMARK    1  A    between atoms: C_1  and  O_2
REMARK    2  A    between atoms: O_2  and  C_3
REMARK    3  A    between atoms: C_6  and  C_7
REMARK    4  A    between atoms: C_9  and  C_10
REMARK    5  A    between atoms: C_10  and  N_11
REMARK    6  A    between atoms: N_11  and  C_12
REMARK    7  A    between atoms: C_12  and  C_13
REMARK    8  A    between atoms: C_18  and  O_19
REMARK    9  A    between atoms: O_19  and  C_20
REMARK                            x       y       z     vdW  Elec       q    Type
REMARK                         _______ _______ _______ _____ _____    ______ ____
ROOT
ATOM      1  C   UNL     1       2.648   4.623  19.692  0.00  0.00    +0.000 C 
ENDROOT
BRANCH   1   4
ATOM      2  C   UNL     1       1.376   7.873  20.402  0.00  0.00    +0.000 A 
ATOM      3  N   UNL     1       1.504   6.608  20.747  0.00  0.00    +0.000 NA
ATOM      4  C   UNL     1       2.290   6.068  19.739  0.00  0.00    +0.000 A 
ATOM      5  C   UNL     1       2.588   7.041  18.819  0.00  0.00    +0.000 A 
ATOM      6  O   UNL     1       2.011   8.199  19.222  0.00  0.00    +0.000 OA
BRANCH   2  10
ATOM      7  C   UNL     1      -0.464  11.125  22.479  0.00  0.00    +0.000 A 
ATOM      8  C   UNL     1      -0.628   9.815  22.932  0.00  0.00    +0.000 A 
ATOM      9  C   UNL     1      -0.038   8.748  22.246  0.00  0.00    +0.000 A 
ATOM     10  C   UNL     1       0.715   8.978  21.084  0.00  0.00    +0.000 A 
ATOM     11  C   UNL     1       0.838  10.298  20.624  0.00  0.00    +0.000 A 
ATOM     12  C   UNL     1       0.252  11.361  21.310  0.00  0.00    +0.000 A 
BRANCH   7  14
ATOM     13  C   UNL     1      -2.497  12.052  23.232  0.00  0.00    +0.000 C 
ATOM     14  O   UNL     1      -1.072  12.091  23.233  0.00  0.00    +0.000 OA
ENDBRANCH   7  14
ENDBRANCH   2  10
ENDBRANCH   1   4
BRANCH   1  15
ATOM     15  N   UNL     1       4.096   4.440  19.811  0.00  0.00    +0.000 NA
ATOM     16  H   UNL     1       4.243   3.961  20.703  0.00  0.00    +0.000 HD
BRANCH  15  17
ATOM     17  C   UNL     1       4.658   3.570  18.759  0.00  0.00    +0.000 C 
BRANCH  17  18
ATOM     18  C   UNL     1       5.110   4.311  17.510  0.00  0.00    +0.000 A 
ATOM     19  C   UNL     1       4.816   3.723  16.255  0.00  0.00    +0.000 A 
ATOM     20  C   UNL     1       5.285   4.252  15.051  0.00  0.00    +0.000 A 
ATOM     21  C   UNL     1       6.056   5.395  15.071  0.00  0.00    +0.000 A 
ATOM     22  C   UNL     1       6.342   6.014  16.286  0.00  0.00    +0.000 A 
ATOM     23  C   UNL     1       5.853   5.507  17.514  0.00  0.00    +0.000 A 
BRANCH  23  24
ATOM     24  O   UNL     1       6.397   6.158  18.584  0.00  0.00    +0.000 OA
BRANCH  24  25
ATOM     25  C   UNL     1       7.702   5.897  19.074  0.00  0.00    +0.000 C 
ATOM     26  F   UNL     1       7.778   5.659  20.393  0.00  0.00    +0.000 F 
ATOM     27  F   UNL     1       8.180   4.817  18.418  0.00  0.00    +0.000 F 
ATOM     28  F   UNL     1       8.516   6.941  18.798  0.00  0.00    +0.000 F 
ENDBRANCH  24  25
ENDBRANCH  23  24
ENDBRANCH  17  18
ENDBRANCH  15  17
ENDBRANCH   1  15
TORSDOF 8
ENDMDL
MODEL 9
REMARK VINA RESULT:      -7.4      3.916      6.569
REMARK  Name = 
REMARK  9 active torsions:
REMARK  status: ('A' for Active; 'I' for Inactive)
REMARK    1  A    between atoms: C_1  and  O_2
REMARK    2  A    between atoms: O_2  and  C_3
REMARK    3  A    between atoms: C_6  and  C_7
REMARK    4  A    between atoms: C_9  and  C_10
REMARK    5  A    between atoms: C_10  and  N_11
REMARK    6  A    between atoms: N_11  and  C_12
REMARK    7  A    between atoms: C_12  and  C_13
REMARK    8  A    between atoms: C_18  and  O_19
REMARK    9  A    between atoms: O_19  and  C_20
REMARK                            x       y       z     vdW  Elec       q    Type
REMARK                         _______ _______ _______ _____ _____    ______ ____
ROOT
ATOM      1  C   UNL     1       4.909   3.573  19.282  0.00  0.00    +0.000 C 
ENDROOT
BRANCH   1   4
ATOM      2  C   UNL     1       2.605   6.287  19.365  0.00  0.00    +0.000 A 
ATOM      3  N   UNL     1       3.851   5.861  19.360  0.00  0.00    +0.000 NA
ATOM      4  C   UNL     1       3.730   4.482  19.264  0.00  0.00    +0.000 A 
ATOM      5  C   UNL     1       2.402   4.140  19.231  0.00  0.00    +0.000 A 
ATOM      6  O   UNL     1       1.667   5.277  19.298  0.00  0.00    +0.000 OA
BRANCH   2  10
ATOM      7  C   UNL     1       0.918  10.215  19.387  0.00  0.00    +0.000 A 
ATOM      8  C   UNL     1       1.490   9.699  18.224  0.00  0.00    +0.000 A 
ATOM      9  C   UNL     1       2.055   8.419  18.217  0.00  0.00    +0.000 A 
ATOM     10  C   UNL     1       2.068   7.641  19.385  0.00  0.00    +0.000 A 
ATOM     11  C   UNL     1       1.520   8.191  20.555  0.00  0.00    +0.000 A 
ATOM     12  C   UNL     1       0.954   9.465  20.559  0.00  0.00    +0.000 A 
BRANCH   7  14
ATOM     13  C   UNL     1      -0.023  12.064  20.506  0.00  0.00    +0.000 C 
ATOM     14  O   UNL     1       0.383  11.469  19.277  0.00  0.00    +0.000 OA
ENDBRANCH   7  14
ENDBRANCH   2  10
ENDBRANCH   1   4
BRANCH   1  15
ATOM     15  N   UNL     1       5.712   3.736  18.068  0.00  0.00    +0.000 NA
ATOM     16  H   UNL     1       6.247   2.869  17.971  0.00  0.00    +0.000 HD
BRANCH  15  17
ATOM     17  C   UNL     1       4.895   3.875  16.848  0.00  0.00    +0.000 C 
BRANCH  17  18
ATOM     18  C   UNL     1       5.687   4.242  15.603  0.00  0.00    +0.000 A 
ATOM     19  C   UNL     1       5.277   3.674  14.371  0.00  0.00    +0.000 A 
ATOM     20  C   UNL     1       5.999   3.846  13.188  0.00  0.00    +0.000 A 
ATOM     21  C   UNL     1       7.152   4.603  13.205  0.00  0.00    +0.000 A 
ATOM     22  C   UNL     1       7.569   5.198  14.393  0.00  0.00    +0.000 A 
ATOM     23  C   UNL     1       6.836   5.056  15.596  0.00  0.00    +0.000 A 
BRANCH  23  24
ATOM     24  O   UNL     1       7.513   5.566  16.667  0.00  0.00    +0.000 OA
BRANCH  24  25
ATOM     25  C   UNL     1       7.117   6.745  17.350  0.00  0.00    +0.000 C 
ATOM     26  F   UNL     1       6.986   6.614  18.679  0.00  0.00    +0.000 F 
ATOM     27  F   UNL     1       8.045   7.695  17.103  0.00  0.00    +0.000 F 
ATOM     28  F   UNL     1       5.935   7.186  16.863  0.00  0.00    +0.000 F 
ENDBRANCH  24  25
ENDBRANCH  23  24
ENDBRANCH  17  18
ENDBRANCH  15  17
ENDBRANCH   1  15
TORSDOF 8
ENDMDL
