MODEL 1
REMARK VINA RESULT:      -7.8      0.000      0.000
REMARK  Name = 
REMARK  3 active torsions:
REMARK  status: ('A' for Active; 'I' for Inactive)
REMARK    1  A    between atoms: C_2  and  C_3
REMARK    2  A    between atoms: C_2  and  C_9
REMARK    3  A    between atoms: C_11  and  C_12
REMARK                            x       y       z     vdW  Elec       q    Type
REMARK                         _______ _______ _______ _____ _____    ______ ____
ROOT
ATOM      1  C   UNL     1       6.006   4.701  16.879  0.00  0.00    +0.000 C 
ATOM      2  O   UNL     1       5.710   5.492  18.039  0.00  0.00    +0.000 OA
ATOM      3  C   UNL     1       4.622   5.266  17.126  0.00  0.00    +0.000 C 
ENDROOT
BRANCH   3   4
ATOM      4  C   UNL     1       3.519   4.337  17.559  0.00  0.00    +0.000 A 
ATOM      5  C   UNL     1       3.689   2.942  17.562  0.00  0.00    +0.000 A 
ATOM      6  C   UNL     1       2.657   2.086  17.955  0.00  0.00    +0.000 A 
ATOM      7  C   UNL     1       1.443   2.621  18.356  0.00  0.00    +0.000 A 
ATOM      8  F   UNL     1       0.451   1.803  18.729  0.00  0.00    +0.000 F 
ATOM      9  C   UNL     1       1.242   3.994  18.374  0.00  0.00    +0.000 A 
ATOM     10  C   UNL     1       2.275   4.846  17.978  0.00  0.00    +0.000 A 
ENDBRANCH   3   4
BRANCH   1  12
ATOM     11  O   UNL     1       7.603   6.283  16.222  0.00  0.00    +0.000 OA
ATOM     12  C   UNL     1       6.878   5.356  15.884  0.00  0.00    +0.000 C 
BRANCH  12  13
ATOM     13  C   UNL     1       6.855   4.870  14.483  0.00  0.00    +0.000 A 
ATOM     14  C   UNL     1       5.936   3.871  14.138  0.00  0.00    +0.000 A 
ATOM     15  C   UNL     1       5.892   3.385  12.832  0.00  0.00    +0.000 A 
ATOM     16  C   UNL     1       6.775   3.881  11.873  0.00  0.00    +0.000 A 
ATOM     17  C   UNL     1       7.694   4.874  12.213  0.00  0.00    +0.000 A 
ATOM     18  C   UNL     1       7.732   5.376  13.517  0.00  0.00    +0.000 A 
ENDBRANCH  12  13
ENDBRANCH   1  12
TORSDOF 3
ENDMDL
MODEL 2
REMARK VINA RESULT:      -7.8      0.259      1.608
REMARK  Name = 
REMARK  3 active torsions:
REMARK  status: ('A' for Active; 'I' for Inactive)
REMARK    1  A    between atoms: C_2  and  C_3
REMARK    2  A    between atoms: C_2  and  C_9
REMARK    3  A    between atoms: C_11  and  C_12
REMARK                            x       y       z     vdW  Elec       q    Type
REMARK                         _______ _______ _______ _____ _____    ______ ____
ROOT
ATOM      1  C   UNL     1       5.951   4.691  16.942  0.00  0.00    +0.000 C 
ATOM      2  O   UNL     1       5.749   5.447  18.145  0.00  0.00    +0.000 OA
ATOM      3  C   UNL     1       4.620   5.342  17.261  0.00  0.00    +0.000 C 
ENDROOT
BRANCH   3   4
ATOM      4  C   UNL     1       3.466   4.475  17.690  0.00  0.00    +0.000 A 
ATOM      5  C   UNL     1       2.403   4.988  18.455  0.00  0.00    +0.000 A 
ATOM      6  C   UNL     1       1.342   4.174  18.858  0.00  0.00    +0.000 A 
ATOM      7  C   UNL     1       1.330   2.837  18.492  0.00  0.00    +0.000 A 
ATOM      8  F   UNL     1       0.316   2.054  18.880  0.00  0.00    +0.000 F 
ATOM      9  C   UNL     1       2.357   2.299  17.731  0.00  0.00    +0.000 A 
ATOM     10  C   UNL     1       3.418   3.115  17.331  0.00  0.00    +0.000 A 
ENDBRANCH   3   4
BRANCH   1  12
ATOM     11  O   UNL     1       7.568   6.252  16.282  0.00  0.00    +0.000 OA
ATOM     12  C   UNL     1       6.837   5.328  15.947  0.00  0.00    +0.000 C 
BRANCH  12  13
ATOM     13  C   UNL     1       6.820   4.828  14.551  0.00  0.00    +0.000 A 
ATOM     14  C   UNL     1       7.710   5.391  13.630  0.00  0.00    +0.000 A 
ATOM     15  C   UNL     1       7.715   4.951  12.306  0.00  0.00    +0.000 A 
ATOM     16  C   UNL     1       6.821   3.962  11.897  0.00  0.00    +0.000 A 
ATOM     17  C   UNL     1       5.930   3.401  12.812  0.00  0.00    +0.000 A 
ATOM     18  C   UNL     1       5.931   3.827  14.143  0.00  0.00    +0.000 A 
ENDBRANCH  12  13
ENDBRANCH   1  12
TORSDOF 3
ENDMDL
MODEL 3
REMARK VINA RESULT:      -7.6      1.095      1.406
REMARK  Name = 
REMARK  3 active torsions:
REMARK  status: ('A' for Active; 'I' for Inactive)
REMARK    1  A    between atoms: C_2  and  C_3
REMARK    2  A    between atoms: C_2  and  C_9
REMARK    3  A    between atoms: C_11  and  C_12
REMARK                            x       y       z     vdW  Elec       q    Type
REMARK                         _______ _______ _______ _____ _____    ______ ____
ROOT
ATOM      1  C   UNL     1       5.985   5.107  17.217  0.00  0.00    +0.000 C 
ATOM      2  O   UNL     1       6.076   5.914  18.400  0.00  0.00    +0.000 OA
ATOM      3  C   UNL     1       4.820   5.948  17.700  0.00  0.00    +0.000 C 
ENDROOT
BRANCH   3   4
ATOM      4  C   UNL     1       3.639   5.264  18.336  0.00  0.00    +0.000 A 
ATOM      5  C   UNL     1       3.456   5.254  19.731  0.00  0.00    +0.000 A 
ATOM      6  C   UNL     1       2.363   4.608  20.314  0.00  0.00    +0.000 A 
ATOM      7  C   UNL     1       1.437   3.971  19.504  0.00  0.00    +0.000 A 
ATOM      8  F   UNL     1       0.390   3.348  20.061  0.00  0.00    +0.000 F 
ATOM      9  C   UNL     1       1.580   3.968  18.124  0.00  0.00    +0.000 A 
ATOM     10  C   UNL     1       2.675   4.613  17.545  0.00  0.00    +0.000 A 
ENDBRANCH   3   4
BRANCH   1  12
ATOM     11  O   UNL     1       7.584   6.503  16.225  0.00  0.00    +0.000 OA
ATOM     12  C   UNL     1       6.786   5.587  16.072  0.00  0.00    +0.000 C 
BRANCH  12  13
ATOM     13  C   UNL     1       6.600   4.941  14.750  0.00  0.00    +0.000 A 
ATOM     14  C   UNL     1       5.453   4.168  14.540  0.00  0.00    +0.000 A 
ATOM     15  C   UNL     1       5.250   3.539  13.311  0.00  0.00    +0.000 A 
ATOM     16  C   UNL     1       6.199   3.668  12.298  0.00  0.00    +0.000 A 
ATOM     17  C   UNL     1       7.346   4.436  12.504  0.00  0.00    +0.000 A 
ATOM     18  C   UNL     1       7.547   5.080  13.728  0.00  0.00    +0.000 A 
ENDBRANCH  12  13
ENDBRANCH   1  12
TORSDOF 3
ENDMDL
MODEL 4
REMARK VINA RESULT:      -7.6      2.808      3.947
REMARK  Name = 
REMARK  3 active torsions:
REMARK  status: ('A' for Active; 'I' for Inactive)
REMARK    1  A    between atoms: C_2  and  C_3
REMARK    2  A    between atoms: C_2  and  C_9
REMARK    3  A    between atoms: C_11  and  C_12
REMARK                            x       y       z     vdW  Elec       q    Type
REMARK                         _______ _______ _______ _____ _____    ______ ____
ROOT
ATOM      1  C   UNL     1       3.958   4.667  17.303  0.00  0.00    +0.000 C 
ATOM      2  O   UNL     1       3.125   3.687  16.668  0.00  0.00    +0.000 OA
ATOM      3  C   UNL     1       3.804   3.269  17.865  0.00  0.00    +0.000 C 
ENDROOT
BRANCH   3   4
ATOM      4  C   UNL     1       2.981   3.067  19.110  0.00  0.00    +0.000 A 
ATOM      5  C   UNL     1       3.574   2.730  20.339  0.00  0.00    +0.000 A 
ATOM      6  C   UNL     1       2.802   2.534  21.487  0.00  0.00    +0.000 A 
ATOM      7  C   UNL     1       1.426   2.681  21.416  0.00  0.00    +0.000 A 
ATOM      8  F   UNL     1       0.684   2.491  22.515  0.00  0.00    +0.000 F 
ATOM      9  C   UNL     1       0.807   3.022  20.223  0.00  0.00    +0.000 A 
ATOM     10  C   UNL     1       1.581   3.215  19.076  0.00  0.00    +0.000 A 
ENDBRANCH   3   4
BRANCH   1  12
ATOM     11  O   UNL     1       5.322   4.663  15.398  0.00  0.00    +0.000 OA
ATOM     12  C   UNL     1       5.191   5.009  16.566  0.00  0.00    +0.000 C 
BRANCH  12  13
ATOM     13  C   UNL     1       6.254   5.771  17.265  0.00  0.00    +0.000 A 
ATOM     14  C   UNL     1       6.895   5.174  18.357  0.00  0.00    +0.000 A 
ATOM     15  C   UNL     1       7.893   5.865  19.044  0.00  0.00    +0.000 A 
ATOM     16  C   UNL     1       8.241   7.158  18.652  0.00  0.00    +0.000 A 
ATOM     17  C   UNL     1       7.604   7.757  17.566  0.00  0.00    +0.000 A 
ATOM     18  C   UNL     1       6.613   7.064  16.865  0.00  0.00    +0.000 A 
ENDBRANCH  12  13
ENDBRANCH   1  12
TORSDOF 3
ENDMDL
MODEL 5
REMARK VINA RESULT:      -7.6      2.823      4.047
REMARK  Name = 
REMARK  3 active torsions:
REMARK  status: ('A' for Active; 'I' for Inactive)
REMARK    1  A    between atoms: C_2  and  C_3
REMARK    2  A    between atoms: C_2  and  C_9
REMARK    3  A    between atoms: C_11  and  C_12
REMARK                            x       y       z     vdW  Elec       q    Type
REMARK                         _______ _______ _______ _____ _____    ______ ____
ROOT
ATOM      1  C   UNL     1       3.925   4.746  17.299  0.00  0.00    +0.000 C 
ATOM      2  O   UNL     1       3.087   3.781  16.647  0.00  0.00    +0.000 OA
ATOM      3  C   UNL     1       3.766   3.338  17.835  0.00  0.00    +0.000 C 
ENDROOT
BRANCH   3   4
ATOM      4  C   UNL     1       2.944   3.116  19.076  0.00  0.00    +0.000 A 
ATOM      5  C   UNL     1       1.544   3.253  19.067  0.00  0.00    +0.000 A 
ATOM      6  C   UNL     1       0.789   3.056  20.226  0.00  0.00    +0.000 A 
ATOM      7  C   UNL     1       1.430   2.712  21.407  0.00  0.00    +0.000 A 
ATOM      8  F   UNL     1       0.709   2.526  22.520  0.00  0.00    +0.000 F 
ATOM      9  C   UNL     1       2.808   2.559  21.450  0.00  0.00    +0.000 A 
ATOM     10  C   UNL     1       3.560   2.760  20.291  0.00  0.00    +0.000 A 
ENDBRANCH   3   4
BRANCH   1  12
ATOM     11  O   UNL     1       5.278   4.789  15.387  0.00  0.00    +0.000 OA
ATOM     12  C   UNL     1       5.158   5.098  16.566  0.00  0.00    +0.000 C 
BRANCH  12  13
ATOM     13  C   UNL     1       6.234   5.823  17.285  0.00  0.00    +0.000 A 
ATOM     14  C   UNL     1       6.850   5.195  18.374  0.00  0.00    +0.000 A 
ATOM     15  C   UNL     1       7.860   5.850  19.078  0.00  0.00    +0.000 A 
ATOM     16  C   UNL     1       8.244   7.138  18.707  0.00  0.00    +0.000 A 
ATOM     17  C   UNL     1       7.631   7.769  17.624  0.00  0.00    +0.000 A 
ATOM     18  C   UNL     1       6.629   7.111  16.905  0.00  0.00    +0.000 A 
ENDBRANCH  12  13
ENDBRANCH   1  12
TORSDOF 3
ENDMDL
MODEL 6
REMARK VINA RESULT:      -7.6      0.914      1.217
REMARK  Name = 
REMARK  3 active torsions:
REMARK  status: ('A' for Active; 'I' for Inactive)
REMARK    1  A    between atoms: C_2  and  C_3
REMARK    2  A    between atoms: C_2  and  C_9
REMARK    3  A    between atoms: C_11  and  C_12
REMARK                            x       y       z     vdW  Elec       q    Type
REMARK                         _______ _______ _______ _____ _____    ______ ____
ROOT
ATOM      1  C   UNL     1       6.114   4.520  16.845  0.00  0.00    +0.000 C 
ATOM      2  O   UNL     1       6.405   4.947  18.183  0.00  0.00    +0.000 OA
ATOM      3  C   UNL     1       5.112   5.305  17.666  0.00  0.00    +0.000 C 
ENDROOT
BRANCH   3   4
ATOM      4  C   UNL     1       3.907   4.595  18.224  0.00  0.00    +0.000 A 
ATOM      5  C   UNL     1       2.653   4.663  17.591  0.00  0.00    +0.000 A 
ATOM      6  C   UNL     1       1.537   4.010  18.121  0.00  0.00    +0.000 A 
ATOM      7  C   UNL     1       1.669   3.276  19.290  0.00  0.00    +0.000 A 
ATOM      8  F   UNL     1       0.600   2.652  19.802  0.00  0.00    +0.000 F 
ATOM      9  C   UNL     1       2.892   3.180  19.936  0.00  0.00    +0.000 A 
ATOM     10  C   UNL     1       4.005   3.835  19.405  0.00  0.00    +0.000 A 
ENDBRANCH   3   4
BRANCH   1  12
ATOM     11  O   UNL     1       7.579   6.178  16.074  0.00  0.00    +0.000 OA
ATOM     12  C   UNL     1       6.876   5.216  15.788  0.00  0.00    +0.000 C 
BRANCH  12  13
ATOM     13  C   UNL     1       6.769   4.730  14.391  0.00  0.00    +0.000 A 
ATOM     14  C   UNL     1       5.747   3.827  14.076  0.00  0.00    +0.000 A 
ATOM     15  C   UNL     1       5.621   3.342  12.774  0.00  0.00    +0.000 A 
ATOM     16  C   UNL     1       6.525   3.745  11.791  0.00  0.00    +0.000 A 
ATOM     17  C   UNL     1       7.546   4.643  12.102  0.00  0.00    +0.000 A 
ATOM     18  C   UNL     1       7.668   5.143  13.401  0.00  0.00    +0.000 A 
ENDBRANCH  12  13
ENDBRANCH   1  12
TORSDOF 3
ENDMDL
MODEL 7
REMARK VINA RESULT:      -7.4      1.609      1.993
REMARK  Name = 
REMARK  3 active torsions:
REMARK  status: ('A' for Active; 'I' for Inactive)
REMARK    1  A    between atoms: C_2  and  C_3
REMARK    2  A    between atoms: C_2  and  C_9
REMARK    3  A    between atoms: C_11  and  C_12
REMARK                            x       y       z     vdW  Elec       q    Type
REMARK                         _______ _______ _______ _____ _____    ______ ____
ROOT
ATOM      1  C   UNL     1       6.093   4.556  17.087  0.00  0.00    +0.000 C 
ATOM      2  O   UNL     1       6.818   4.284  18.295  0.00  0.00    +0.000 OA
ATOM      3  C   UNL     1       5.748   5.240  18.394  0.00  0.00    +0.000 C 
ENDROOT
BRANCH   3   4
ATOM      4  C   UNL     1       4.500   4.828  19.128  0.00  0.00    +0.000 A 
ATOM      5  C   UNL     1       4.300   3.504  19.556  0.00  0.00    +0.000 A 
ATOM      6  C   UNL     1       3.134   3.127  20.228  0.00  0.00    +0.000 A 
ATOM      7  C   UNL     1       2.157   4.077  20.483  0.00  0.00    +0.000 A 
ATOM      8  F   UNL     1       1.037   3.718  21.124  0.00  0.00    +0.000 F 
ATOM      9  C   UNL     1       2.325   5.394  20.084  0.00  0.00    +0.000 A 
ATOM     10  C   UNL     1       3.490   5.767  19.411  0.00  0.00    +0.000 A 
ENDBRANCH   3   4
BRANCH   1  12
ATOM     11  O   UNL     1       7.482   6.306  16.382  0.00  0.00    +0.000 OA
ATOM     12  C   UNL     1       6.846   5.308  16.063  0.00  0.00    +0.000 C 
BRANCH  12  13
ATOM     13  C   UNL     1       6.813   4.834  14.659  0.00  0.00    +0.000 A 
ATOM     14  C   UNL     1       7.697   5.410  13.739  0.00  0.00    +0.000 A 
ATOM     15  C   UNL     1       7.687   4.994  12.407  0.00  0.00    +0.000 A 
ATOM     16  C   UNL     1       6.784   4.016  11.990  0.00  0.00    +0.000 A 
ATOM     17  C   UNL     1       5.900   3.441  12.903  0.00  0.00    +0.000 A 
ATOM     18  C   UNL     1       5.916   3.844  14.242  0.00  0.00    +0.000 A 
ENDBRANCH  12  13
ENDBRANCH   1  12
TORSDOF 3
ENDMDL
MODEL 8
REMARK VINA RESULT:      -7.3      2.395      3.123
REMARK  Name = 
REMARK  3 active torsions:
REMARK  status: ('A' for Active; 'I' for Inactive)
REMARK    1  A    between atoms: C_2  and  C_3
REMARK    2  A    between atoms: C_2  and  C_9
REMARK    3  A    between atoms: C_11  and  C_12
REMARK                            x       y       z     vdW  Elec       q    Type
REMARK                         _______ _______ _______ _____ _____    ______ ____
ROOT
ATOM      1  C   UNL     1       6.120   6.001  16.641  0.00  0.00    +0.000 C 
ATOM      2  O   UNL     1       5.224   6.591  15.688  0.00  0.00    +0.000 OA
ATOM      3  C   UNL     1       4.638   5.684  16.637  0.00  0.00    +0.000 C 
ENDROOT
BRANCH   3   4
ATOM      4  C   UNL     1       3.763   6.261  17.717  0.00  0.00    +0.000 A 
ATOM      5  C   UNL     1       3.190   7.540  17.597  0.00  0.00    +0.000 A 
ATOM      6  C   UNL     1       2.388   8.073  18.609  0.00  0.00    +0.000 A 
ATOM      7  C   UNL     1       2.145   7.326  19.751  0.00  0.00    +0.000 A 
ATOM      8  F   UNL     1       1.378   7.836  20.724  0.00  0.00    +0.000 F 
ATOM      9  C   UNL     1       2.685   6.057  19.899  0.00  0.00    +0.000 A 
ATOM     10  C   UNL     1       3.489   5.528  18.887  0.00  0.00    +0.000 A 
ENDBRANCH   3   4
BRANCH   1  12
ATOM     11  O   UNL     1       7.882   4.468  16.813  0.00  0.00    +0.000 OA
ATOM     12  C   UNL     1       7.065   5.014  16.082  0.00  0.00    +0.000 C 
BRANCH  12  13
ATOM     13  C   UNL     1       7.001   4.705  14.633  0.00  0.00    +0.000 A 
ATOM     14  C   UNL     1       7.806   5.442  13.757  0.00  0.00    +0.000 A 
ATOM     15  C   UNL     1       7.765   5.184  12.387  0.00  0.00    +0.000 A 
ATOM     16  C   UNL     1       6.909   4.202  11.889  0.00  0.00    +0.000 A 
ATOM     17  C   UNL     1       6.104   3.467  12.758  0.00  0.00    +0.000 A 
ATOM     18  C   UNL     1       6.151   3.711  14.133  0.00  0.00    +0.000 A 
ENDBRANCH  12  13
ENDBRANCH   1  12
TORSDOF 3
ENDMDL
MODEL 9
REMARK VINA RESULT:      -7.3      2.411      2.996
REMARK  Name = 
REMARK  3 active torsions:
REMARK  status: ('A' for Active; 'I' for Inactive)
REMARK    1  A    between atoms: C_2  and  C_3
REMARK    2  A    between atoms: C_2  and  C_9
REMARK    3  A    between atoms: C_11  and  C_12
REMARK                            x       y       z     vdW  Elec       q    Type
REMARK                         _______ _______ _______ _____ _____    ______ ____
ROOT
ATOM      1  C   UNL     1       6.139   5.990  16.672  0.00  0.00    +0.000 C 
ATOM      2  O   UNL     1       5.262   6.613  15.722  0.00  0.00    +0.000 OA
ATOM      3  C   UNL     1       4.652   5.698  16.649  0.00  0.00    +0.000 C 
ENDROOT
BRANCH   3   4
ATOM      4  C   UNL     1       3.777   6.270  17.732  0.00  0.00    +0.000 A 
ATOM      5  C   UNL     1       3.510   5.559  18.916  0.00  0.00    +0.000 A 
ATOM      6  C   UNL     1       2.689   6.093  19.912  0.00  0.00    +0.000 A 
ATOM      7  C   UNL     1       2.131   7.349  19.735  0.00  0.00    +0.000 A 
ATOM      8  F   UNL     1       1.340   7.861  20.687  0.00  0.00    +0.000 F 
ATOM      9  C   UNL     1       2.380   8.082  18.584  0.00  0.00    +0.000 A 
ATOM     10  C   UNL     1       3.199   7.545  17.589  0.00  0.00    +0.000 A 
ENDBRANCH   3   4
BRANCH   1  12
ATOM     11  O   UNL     1       7.888   4.440  16.825  0.00  0.00    +0.000 OA
ATOM     12  C   UNL     1       7.072   4.997  16.102  0.00  0.00    +0.000 C 
BRANCH  12  13
ATOM     13  C   UNL     1       6.997   4.696  14.652  0.00  0.00    +0.000 A 
ATOM     14  C   UNL     1       7.806   5.428  13.775  0.00  0.00    +0.000 A 
ATOM     15  C   UNL     1       7.755   5.177  12.404  0.00  0.00    +0.000 A 
ATOM     16  C   UNL     1       6.885   4.208  11.905  0.00  0.00    +0.000 A 
ATOM     17  C   UNL     1       6.075   3.477  12.775  0.00  0.00    +0.000 A 
ATOM     18  C   UNL     1       6.133   3.714  14.152  0.00  0.00    +0.000 A 
ENDBRANCH  12  13
ENDBRANCH   1  12
TORSDOF 3
ENDMDL
