MODEL 1
REMARK VINA RESULT:      -8.3      0.000      0.000
REMARK  Name = 
REMARK  2 active torsions:
REMARK  status: ('A' for Active; 'I' for Inactive)
REMARK    1  A    between atoms: C_3  and  C_4
REMARK    2  A    between atoms: C_4  and  C_5
REMARK                            x       y       z     vdW  Elec       q    Type
REMARK                         _______ _______ _______ _____ _____    ______ ____
ROOT
ATOM      1  C   UNL     1       1.897   9.496  17.703  0.00  0.00    +0.000 A 
ATOM      2  C   UNL     1       2.290   8.225  18.099  0.00  0.00    +0.000 A 
ATOM      3  C   UNL     1       1.995   7.754  19.377  0.00  0.00    +0.000 A 
ATOM      4  C   UNL     1       1.272   8.587  20.283  0.00  0.00    +0.000 A 
ATOM      5  C   UNL     1       0.815   9.873  19.880  0.00  0.00    +0.000 A 
ATOM      6  C   UNL     1       1.172  10.294  18.583  0.00  0.00    +0.000 A 
ATOM      7  N   UNL     1       0.042  10.678  20.728  0.00  0.00    +0.000 N 
ATOM      8  C   UNL     1      -0.060  12.115  20.478  0.00  0.00    +0.000 C 
ATOM      9  C   UNL     1      -1.051  12.906  21.352  0.00  0.00    +0.000 C 
ATOM     10  N   UNL     1      -1.509  12.413  22.642  0.00  0.00    +0.000 NA
ATOM     11  C   UNL     1      -0.987  11.110  23.024  0.00  0.00    +0.000 C 
ATOM     12  C   UNL     1      -0.502  10.095  21.956  0.00  0.00    +0.000 C 
ATOM     13  C   UNL     1       0.571   9.227  22.614  0.00  0.00    +0.000 C 
ATOM     14  C   UNL     1       0.981   8.104  21.684  0.00  0.00    +0.000 C 
ATOM     15  H   UNL     1      -2.526  12.422  22.676  0.00  0.00    +0.000 HD
ENDROOT
BRANCH   3  16
ATOM     16  C   UNL     1       2.447   6.349  19.734  0.00  0.00    +0.000 C 
BRANCH  16  17
ATOM     17  C   UNL     1       3.524   5.729  18.861  0.00  0.00    +0.000 A 
ATOM     18  C   UNL     1       3.242   5.068  17.642  0.00  0.00    +0.000 A 
ATOM     19  C   UNL     1       4.249   4.433  16.906  0.00  0.00    +0.000 A 
ATOM     20  C   UNL     1       5.532   4.495  17.395  0.00  0.00    +0.000 A 
ATOM     21  C   UNL     1       5.826   5.140  18.573  0.00  0.00    +0.000 A 
ATOM     22  C   UNL     1       4.850   5.749  19.331  0.00  0.00    +0.000 A 
ATOM     23  O   UNL     1       7.154   5.100  18.867  0.00  0.00    +0.000 OA
ATOM     24  C   UNL     1       7.669   4.533  17.643  0.00  0.00    +0.000 C 
ATOM     25  O   UNL     1       6.640   3.969  16.805  0.00  0.00    +0.000 OA
ENDBRANCH  16  17
ENDBRANCH   3  16
TORSDOF 2
ENDMDL
MODEL 2
REMARK VINA RESULT:      -8.3      4.660      8.383
REMARK  Name = 
REMARK  2 active torsions:
REMARK  status: ('A' for Active; 'I' for Inactive)
REMARK    1  A    between atoms: C_3  and  C_4
REMARK    2  A    between atoms: C_4  and  C_5
REMARK                            x       y       z     vdW  Elec       q    Type
REMARK                         _______ _______ _______ _____ _____    ______ ____
ROOT
ATOM      1  C   UNL     1       1.041   7.507  21.278  0.00  0.00    +0.000 A 
ATOM      2  C   UNL     1       0.901   8.685  20.557  0.00  0.00    +0.000 A 
ATOM      3  C   UNL     1       1.538   8.849  19.328  0.00  0.00    +0.000 A 
ATOM      4  C   UNL     1       2.333   7.785  18.803  0.00  0.00    +0.000 A 
ATOM      5  C   UNL     1       2.447   6.551  19.501  0.00  0.00    +0.000 A 
ATOM      6  C   UNL     1       1.798   6.467  20.749  0.00  0.00    +0.000 A 
ATOM      7  N   UNL     1       3.164   5.470  18.969  0.00  0.00    +0.000 N 
ATOM      8  C   UNL     1       3.617   4.391  19.848  0.00  0.00    +0.000 C 
ATOM      9  C   UNL     1       4.256   3.163  19.172  0.00  0.00    +0.000 C 
ATOM     10  N   UNL     1       4.822   3.225  17.834  0.00  0.00    +0.000 NA
ATOM     11  C   UNL     1       4.711   4.517  17.176  0.00  0.00    +0.000 C 
ATOM     12  C   UNL     1       3.604   5.528  17.574  0.00  0.00    +0.000 C 
ATOM     13  C   UNL     1       4.144   6.928  17.281  0.00  0.00    +0.000 C 
ATOM     14  C   UNL     1       3.061   7.965  17.491  0.00  0.00    +0.000 C 
ATOM     15  H   UNL     1       4.427   2.487  17.255  0.00  0.00    +0.000 HD
ENDROOT
BRANCH   3  16
ATOM     16  C   UNL     1       1.329  10.160  18.593  0.00  0.00    +0.000 C 
BRANCH  16  17
ATOM     17  C   UNL     1      -0.084  10.717  18.563  0.00  0.00    +0.000 A 
ATOM     18  C   UNL     1      -0.486  11.838  19.326  0.00  0.00    +0.000 A 
ATOM     19  C   UNL     1      -1.817  12.272  19.340  0.00  0.00    +0.000 A 
ATOM     20  C   UNL     1      -2.720  11.585  18.564  0.00  0.00    +0.000 A 
ATOM     21  C   UNL     1      -2.345  10.498  17.811  0.00  0.00    +0.000 A 
ATOM     22  C   UNL     1      -1.048  10.033  17.800  0.00  0.00    +0.000 A 
ATOM     23  O   UNL     1      -3.384   9.975  17.105  0.00  0.00    +0.000 OA
ATOM     24  C   UNL     1      -4.392  10.978  17.354  0.00  0.00    +0.000 C 
ATOM     25  O   UNL     1      -4.042  11.877  18.426  0.00  0.00    +0.000 OA
ENDBRANCH  16  17
ENDBRANCH   3  16
TORSDOF 2
ENDMDL
MODEL 3
REMARK VINA RESULT:      -8.2      2.184      2.722
REMARK  Name = 
REMARK  2 active torsions:
REMARK  status: ('A' for Active; 'I' for Inactive)
REMARK    1  A    between atoms: C_3  and  C_4
REMARK    2  A    between atoms: C_4  and  C_5
REMARK                            x       y       z     vdW  Elec       q    Type
REMARK                         _______ _______ _______ _____ _____    ______ ____
ROOT
ATOM      1  C   UNL     1       2.294   8.680  17.779  0.00  0.00    +0.000 A 
ATOM      2  C   UNL     1       2.384   7.666  18.723  0.00  0.00    +0.000 A 
ATOM      3  C   UNL     1       1.772   7.797  19.969  0.00  0.00    +0.000 A 
ATOM      4  C   UNL     1       1.036   8.983  20.268  0.00  0.00    +0.000 A 
ATOM      5  C   UNL     1       0.888  10.011  19.295  0.00  0.00    +0.000 A 
ATOM      6  C   UNL     1       1.555   9.823  18.069  0.00  0.00    +0.000 A 
ATOM      7  N   UNL     1       0.110  11.150  19.543  0.00  0.00    +0.000 N 
ATOM      8  C   UNL     1       0.300  12.354  18.734  0.00  0.00    +0.000 C 
ATOM      9  C   UNL     1      -0.696  13.508  18.956  0.00  0.00    +0.000 C 
ATOM     10  N   UNL     1      -1.472  13.635  20.180  0.00  0.00    +0.000 NA
ATOM     11  C   UNL     1      -1.259  12.578  21.157  0.00  0.00    +0.000 C 
ATOM     12  C   UNL     1      -0.752  11.177  20.726  0.00  0.00    +0.000 C 
ATOM     13  C   UNL     1       0.012  10.589  21.913  0.00  0.00    +0.000 C 
ATOM     14  C   UNL     1       0.401   9.154  21.629  0.00  0.00    +0.000 C 
ATOM     15  H   UNL     1      -2.460  13.730  19.957  0.00  0.00    +0.000 HD
ENDROOT
BRANCH   3  16
ATOM     16  C   UNL     1       1.905   6.642  20.946  0.00  0.00    +0.000 C 
BRANCH  16  17
ATOM     17  C   UNL     1       1.931   5.242  20.359  0.00  0.00    +0.000 A 
ATOM     18  C   UNL     1       0.802   4.389  20.351  0.00  0.00    +0.000 A 
ATOM     19  C   UNL     1       0.885   3.074  19.879  0.00  0.00    +0.000 A 
ATOM     20  C   UNL     1       2.098   2.643  19.398  0.00  0.00    +0.000 A 
ATOM     21  C   UNL     1       3.203   3.461  19.391  0.00  0.00    +0.000 A 
ATOM     22  C   UNL     1       3.157   4.750  19.874  0.00  0.00    +0.000 A 
ATOM     23  O   UNL     1       4.295   2.849  18.857  0.00  0.00    +0.000 OA
ATOM     24  C   UNL     1       3.691   1.637  18.358  0.00  0.00    +0.000 C 
ATOM     25  O   UNL     1       2.361   1.416  18.872  0.00  0.00    +0.000 OA
ENDBRANCH  16  17
ENDBRANCH   3  16
TORSDOF 2
ENDMDL
MODEL 4
REMARK VINA RESULT:      -8.1      4.792      8.437
REMARK  Name = 
REMARK  2 active torsions:
REMARK  status: ('A' for Active; 'I' for Inactive)
REMARK    1  A    between atoms: C_3  and  C_4
REMARK    2  A    between atoms: C_4  and  C_5
REMARK                            x       y       z     vdW  Elec       q    Type
REMARK                         _______ _______ _______ _____ _____    ______ ____
ROOT
ATOM      1  C   UNL     1       1.027   7.515  21.403  0.00  0.00    +0.000 A 
ATOM      2  C   UNL     1       0.756   8.677  20.694  0.00  0.00    +0.000 A 
ATOM      3  C   UNL     1       1.326   8.898  19.442  0.00  0.00    +0.000 A 
ATOM      4  C   UNL     1       2.190   7.909  18.880  0.00  0.00    +0.000 A 
ATOM      5  C   UNL     1       2.439   6.688  19.567  0.00  0.00    +0.000 A 
ATOM      6  C   UNL     1       1.850   6.545  20.839  0.00  0.00    +0.000 A 
ATOM      7  N   UNL     1       3.225   5.674  19.001  0.00  0.00    +0.000 N 
ATOM      8  C   UNL     1       3.806   4.638  19.856  0.00  0.00    +0.000 C 
ATOM      9  C   UNL     1       4.521   3.472  19.149  0.00  0.00    +0.000 C 
ATOM     10  N   UNL     1       5.027   3.585  17.789  0.00  0.00    +0.000 NA
ATOM     11  C   UNL     1       4.776   4.864  17.143  0.00  0.00    +0.000 C 
ATOM     12  C   UNL     1       3.602   5.773  17.590  0.00  0.00    +0.000 C 
ATOM     13  C   UNL     1       4.006   7.215  17.283  0.00  0.00    +0.000 C 
ATOM     14  C   UNL     1       2.846   8.153  17.541  0.00  0.00    +0.000 C 
ATOM     15  H   UNL     1       4.674   2.816  17.223  0.00  0.00    +0.000 HD
ENDROOT
BRANCH   3  16
ATOM     16  C   UNL     1       0.975  10.187  18.722  0.00  0.00    +0.000 C 
BRANCH  16  17
ATOM     17  C   UNL     1      -0.500  10.467  18.490  0.00  0.00    +0.000 A 
ATOM     18  C   UNL     1      -1.237   9.884  17.433  0.00  0.00    +0.000 A 
ATOM     19  C   UNL     1      -2.573  10.230  17.197  0.00  0.00    +0.000 A 
ATOM     20  C   UNL     1      -3.156  11.141  18.046  0.00  0.00    +0.000 A 
ATOM     21  C   UNL     1      -2.457  11.712  19.082  0.00  0.00    +0.000 A 
ATOM     22  C   UNL     1      -1.133  11.410  19.320  0.00  0.00    +0.000 A 
ATOM     23  O   UNL     1      -3.221  12.570  19.810  0.00  0.00    +0.000 OA
ATOM     24  C   UNL     1      -4.517  12.314  19.228  0.00  0.00    +0.000 C 
ATOM     25  O   UNL     1      -4.445  11.573  17.993  0.00  0.00    +0.000 OA
ENDBRANCH  16  17
ENDBRANCH   3  16
TORSDOF 2
ENDMDL
MODEL 5
REMARK VINA RESULT:      -7.9      0.892      1.450
REMARK  Name = 
REMARK  2 active torsions:
REMARK  status: ('A' for Active; 'I' for Inactive)
REMARK    1  A    between atoms: C_3  and  C_4
REMARK    2  A    between atoms: C_4  and  C_5
REMARK                            x       y       z     vdW  Elec       q    Type
REMARK                         _______ _______ _______ _____ _____    ______ ____
ROOT
ATOM      1  C   UNL     1       2.212   9.644  17.587  0.00  0.00    +0.000 A 
ATOM      2  C   UNL     1       2.533   8.309  17.797  0.00  0.00    +0.000 A 
ATOM      3  C   UNL     1       2.179   7.670  18.984  0.00  0.00    +0.000 A 
ATOM      4  C   UNL     1       1.470   8.397  19.988  0.00  0.00    +0.000 A 
ATOM      5  C   UNL     1       1.087   9.750  19.772  0.00  0.00    +0.000 A 
ATOM      6  C   UNL     1       1.501  10.339  18.560  0.00  0.00    +0.000 A 
ATOM      7  N   UNL     1       0.329  10.458  20.714  0.00  0.00    +0.000 N 
ATOM      8  C   UNL     1       0.302  11.921  20.679  0.00  0.00    +0.000 C 
ATOM      9  C   UNL     1      -0.675  12.624  21.640  0.00  0.00    +0.000 C 
ATOM     10  N   UNL     1      -1.193  11.969  22.831  0.00  0.00    +0.000 NA
ATOM     11  C   UNL     1      -0.745  10.599  23.025  0.00  0.00    +0.000 C 
ATOM     12  C   UNL     1      -0.278   9.729  21.829  0.00  0.00    +0.000 C 
ATOM     13  C   UNL     1       0.734   8.719  22.373  0.00  0.00    +0.000 C 
ATOM     14  C   UNL     1       1.116   7.727  21.295  0.00  0.00    +0.000 C 
ATOM     15  H   UNL     1      -2.209  12.025  22.844  0.00  0.00    +0.000 HD
ENDROOT
BRANCH   3  16
ATOM     16  C   UNL     1       2.553   6.207  19.137  0.00  0.00    +0.000 C 
BRANCH  16  17
ATOM     17  C   UNL     1       3.904   5.780  18.590  0.00  0.00    +0.000 A 
ATOM     18  C   UNL     1       5.029   5.543  19.415  0.00  0.00    +0.000 A 
ATOM     19  C   UNL     1       6.281   5.235  18.871  0.00  0.00    +0.000 A 
ATOM     20  C   UNL     1       6.377   5.143  17.502  0.00  0.00    +0.000 A 
ATOM     21  C   UNL     1       5.293   5.362  16.687  0.00  0.00    +0.000 A 
ATOM     22  C   UNL     1       4.056   5.694  17.194  0.00  0.00    +0.000 A 
ATOM     23  O   UNL     1       5.597   5.204  15.369  0.00  0.00    +0.000 OA
ATOM     24  C   UNL     1       6.935   4.673  15.479  0.00  0.00    +0.000 C 
ATOM     25  O   UNL     1       7.497   4.823  16.798  0.00  0.00    +0.000 OA
ENDBRANCH  16  17
ENDBRANCH   3  16
TORSDOF 2
ENDMDL
MODEL 6
REMARK VINA RESULT:      -7.9      4.230      8.056
REMARK  Name = 
REMARK  2 active torsions:
REMARK  status: ('A' for Active; 'I' for Inactive)
REMARK    1  A    between atoms: C_3  and  C_4
REMARK    2  A    between atoms: C_4  and  C_5
REMARK                            x       y       z     vdW  Elec       q    Type
REMARK                         _______ _______ _______ _____ _____    ______ ____
ROOT
ATOM      1  C   UNL     1       1.562   3.491  17.832  0.00  0.00    +0.000 A 
ATOM      2  C   UNL     1       1.378   4.279  18.960  0.00  0.00    +0.000 A 
ATOM      3  C   UNL     1       2.358   5.184  19.365  0.00  0.00    +0.000 A 
ATOM      4  C   UNL     1       3.558   5.307  18.602  0.00  0.00    +0.000 A 
ATOM      5  C   UNL     1       3.744   4.546  17.413  0.00  0.00    +0.000 A 
ATOM      6  C   UNL     1       2.724   3.634  17.080  0.00  0.00    +0.000 A 
ATOM      7  N   UNL     1       4.883   4.705  16.611  0.00  0.00    +0.000 N 
ATOM      8  C   UNL     1       5.255   3.659  15.658  0.00  0.00    +0.000 C 
ATOM      9  C   UNL     1       6.421   3.971  14.701  0.00  0.00    +0.000 C 
ATOM     10  N   UNL     1       7.409   4.997  14.995  0.00  0.00    +0.000 NA
ATOM     11  C   UNL     1       7.193   5.722  16.237  0.00  0.00    +0.000 C 
ATOM     12  C   UNL     1       5.781   5.831  16.869  0.00  0.00    +0.000 C 
ATOM     13  C   UNL     1       5.972   5.980  18.379  0.00  0.00    +0.000 C 
ATOM     14  C   UNL     1       4.645   6.255  19.052  0.00  0.00    +0.000 C 
ATOM     15  H   UNL     1       7.488   5.638  14.208  0.00  0.00    +0.000 HD
ENDROOT
BRANCH   3  16
ATOM     16  C   UNL     1       2.081   6.018  20.603  0.00  0.00    +0.000 C 
BRANCH  16  17
ATOM     17  C   UNL     1       1.623   7.449  20.381  0.00  0.00    +0.000 A 
ATOM     18  C   UNL     1       1.657   8.081  19.115  0.00  0.00    +0.000 A 
ATOM     19  C   UNL     1       1.309   9.428  18.963  0.00  0.00    +0.000 A 
ATOM     20  C   UNL     1       0.905  10.114  20.084  0.00  0.00    +0.000 A 
ATOM     21  C   UNL     1       0.858   9.514  21.319  0.00  0.00    +0.000 A 
ATOM     22  C   UNL     1       1.222   8.197  21.503  0.00  0.00    +0.000 A 
ATOM     23  O   UNL     1       0.415  10.360  22.289  0.00  0.00    +0.000 OA
ATOM     24  C   UNL     1       0.009  11.484  21.480  0.00  0.00    +0.000 C 
ATOM     25  O   UNL     1       0.500  11.412  20.126  0.00  0.00    +0.000 OA
ENDBRANCH  16  17
ENDBRANCH   3  16
TORSDOF 2
ENDMDL
MODEL 7
REMARK VINA RESULT:      -7.9      3.026      4.513
REMARK  Name = 
REMARK  2 active torsions:
REMARK  status: ('A' for Active; 'I' for Inactive)
REMARK    1  A    between atoms: C_3  and  C_4
REMARK    2  A    between atoms: C_4  and  C_5
REMARK                            x       y       z     vdW  Elec       q    Type
REMARK                         _______ _______ _______ _____ _____    ______ ____
ROOT
ATOM      1  C   UNL     1       0.166  12.306  20.804  0.00  0.00    +0.000 A 
ATOM      2  C   UNL     1       1.031  11.503  20.072  0.00  0.00    +0.000 A 
ATOM      3  C   UNL     1       0.570  10.770  18.980  0.00  0.00    +0.000 A 
ATOM      4  C   UNL     1      -0.805  10.857  18.606  0.00  0.00    +0.000 A 
ATOM      5  C   UNL     1      -1.697  11.714  19.311  0.00  0.00    +0.000 A 
ATOM      6  C   UNL     1      -1.167  12.404  20.419  0.00  0.00    +0.000 A 
ATOM      7  N   UNL     1      -3.033  11.869  18.916  0.00  0.00    +0.000 N 
ATOM      8  C   UNL     1      -4.016  12.400  19.860  0.00  0.00    +0.000 C 
ATOM      9  C   UNL     1      -5.424  12.692  19.309  0.00  0.00    +0.000 C 
ATOM     10  N   UNL     1      -5.926  12.064  18.096  0.00  0.00    +0.000 NA
ATOM     11  C   UNL     1      -4.989  11.171  17.432  0.00  0.00    +0.000 C 
ATOM     12  C   UNL     1      -3.458  11.326  17.624  0.00  0.00    +0.000 C 
ATOM     13  C   UNL     1      -2.837   9.941  17.437  0.00  0.00    +0.000 C 
ATOM     14  C   UNL     1      -1.326  10.036  17.449  0.00  0.00    +0.000 C 
ATOM     15  H   UNL     1      -6.269  12.775  17.453  0.00  0.00    +0.000 HD
ENDROOT
BRANCH   3  16
ATOM     16  C   UNL     1       1.576   9.922  18.222  0.00  0.00    +0.000 C 
BRANCH  16  17
ATOM     17  C   UNL     1       1.844   8.526  18.757  0.00  0.00    +0.000 A 
ATOM     18  C   UNL     1       1.531   8.136  20.081  0.00  0.00    +0.000 A 
ATOM     19  C   UNL     1       1.870   6.868  20.566  0.00  0.00    +0.000 A 
ATOM     20  C   UNL     1       2.496   6.000  19.704  0.00  0.00    +0.000 A 
ATOM     21  C   UNL     1       2.800   6.360  18.413  0.00  0.00    +0.000 A 
ATOM     22  C   UNL     1       2.504   7.611  17.917  0.00  0.00    +0.000 A 
ATOM     23  O   UNL     1       3.401   5.352  17.723  0.00  0.00    +0.000 OA
ATOM     24  C   UNL     1       3.253   4.272  18.669  0.00  0.00    +0.000 C 
ATOM     25  O   UNL     1       2.870   4.722  19.985  0.00  0.00    +0.000 OA
ENDBRANCH  16  17
ENDBRANCH   3  16
TORSDOF 2
ENDMDL
MODEL 8
REMARK VINA RESULT:      -7.8      3.976      7.950
REMARK  Name = 
REMARK  2 active torsions:
REMARK  status: ('A' for Active; 'I' for Inactive)
REMARK    1  A    between atoms: C_3  and  C_4
REMARK    2  A    between atoms: C_4  and  C_5
REMARK                            x       y       z     vdW  Elec       q    Type
REMARK                         _______ _______ _______ _____ _____    ______ ____
ROOT
ATOM      1  C   UNL     1       1.480   3.520  17.832  0.00  0.00    +0.000 A 
ATOM      2  C   UNL     1       1.324   4.239  19.009  0.00  0.00    +0.000 A 
ATOM      3  C   UNL     1       2.351   5.051  19.489  0.00  0.00    +0.000 A 
ATOM      4  C   UNL     1       3.570   5.149  18.752  0.00  0.00    +0.000 A 
ATOM      5  C   UNL     1       3.730   4.461  17.517  0.00  0.00    +0.000 A 
ATOM      6  C   UNL     1       2.661   3.639  17.107  0.00  0.00    +0.000 A 
ATOM      7  N   UNL     1       4.891   4.601  16.743  0.00  0.00    +0.000 N 
ATOM      8  C   UNL     1       5.215   3.601  15.726  0.00  0.00    +0.000 C 
ATOM      9  C   UNL     1       6.414   3.903  14.809  0.00  0.00    +0.000 C 
ATOM     10  N   UNL     1       7.459   4.842  15.186  0.00  0.00    +0.000 NA
ATOM     11  C   UNL     1       7.267   5.493  16.472  0.00  0.00    +0.000 C 
ATOM     12  C   UNL     1       5.853   5.648  17.091  0.00  0.00    +0.000 C 
ATOM     13  C   UNL     1       6.025   5.682  18.610  0.00  0.00    +0.000 C 
ATOM     14  C   UNL     1       4.705   5.993  19.282  0.00  0.00    +0.000 C 
ATOM     15  H   UNL     1       7.592   5.529  14.447  0.00  0.00    +0.000 HD
ENDROOT
BRANCH   3  16
ATOM     16  C   UNL     1       2.104   5.815  20.777  0.00  0.00    +0.000 C 
BRANCH  16  17
ATOM     17  C   UNL     1       1.544   7.221  20.648  0.00  0.00    +0.000 A 
ATOM     18  C   UNL     1       0.651   7.784  21.590  0.00  0.00    +0.000 A 
ATOM     19  C   UNL     1       0.087   9.050  21.395  0.00  0.00    +0.000 A 
ATOM     20  C   UNL     1       0.451   9.743  20.266  0.00  0.00    +0.000 A 
ATOM     21  C   UNL     1       1.323   9.215  19.344  0.00  0.00    +0.000 A 
ATOM     22  C   UNL     1       1.871   7.960  19.496  0.00  0.00    +0.000 A 
ATOM     23  O   UNL     1       1.563  10.069  18.311  0.00  0.00    +0.000 OA
ATOM     24  C   UNL     1       0.899  11.253  18.800  0.00  0.00    +0.000 C 
ATOM     25  O   UNL     1       0.035  10.993  19.925  0.00  0.00    +0.000 OA
ENDBRANCH  16  17
ENDBRANCH   3  16
TORSDOF 2
ENDMDL
MODEL 9
REMARK VINA RESULT:      -7.7      2.124      4.458
REMARK  Name = 
REMARK  2 active torsions:
REMARK  status: ('A' for Active; 'I' for Inactive)
REMARK    1  A    between atoms: C_3  and  C_4
REMARK    2  A    between atoms: C_4  and  C_5
REMARK                            x       y       z     vdW  Elec       q    Type
REMARK                         _______ _______ _______ _____ _____    ______ ____
ROOT
ATOM      1  C   UNL     1       2.422   3.469  21.286  0.00  0.00    +0.000 A 
ATOM      2  C   UNL     1       2.905   2.909  20.111  0.00  0.00    +0.000 A 
ATOM      3  C   UNL     1       3.005   3.669  18.947  0.00  0.00    +0.000 A 
ATOM      4  C   UNL     1       2.616   5.043  18.971  0.00  0.00    +0.000 A 
ATOM      5  C   UNL     1       2.168   5.650  20.178  0.00  0.00    +0.000 A 
ATOM      6  C   UNL     1       2.067   4.814  21.308  0.00  0.00    +0.000 A 
ATOM      7  N   UNL     1       1.850   7.014  20.240  0.00  0.00    +0.000 N 
ATOM      8  C   UNL     1       1.016   7.520  21.330  0.00  0.00    +0.000 C 
ATOM      9  C   UNL     1       0.842   9.048  21.423  0.00  0.00    +0.000 C 
ATOM     10  N   UNL     1       1.060   9.922  20.281  0.00  0.00    +0.000 NA
ATOM     11  C   UNL     1       1.484   9.249  19.063  0.00  0.00    +0.000 C 
ATOM     12  C   UNL     1       2.206   7.877  19.112  0.00  0.00    +0.000 C 
ATOM     13  C   UNL     1       1.882   7.150  17.807  0.00  0.00    +0.000 C 
ATOM     14  C   UNL     1       2.682   5.868  17.707  0.00  0.00    +0.000 C 
ATOM     15  H   UNL     1       1.709  10.665  20.531  0.00  0.00    +0.000 HD
ENDROOT
BRANCH   3  16
ATOM     16  C   UNL     1       3.552   2.991  17.704  0.00  0.00    +0.000 C 
BRANCH  16  17
ATOM     17  C   UNL     1       4.757   3.635  17.041  0.00  0.00    +0.000 A 
ATOM     18  C   UNL     1       5.788   4.274  17.771  0.00  0.00    +0.000 A 
ATOM     19  C   UNL     1       6.840   4.931  17.124  0.00  0.00    +0.000 A 
ATOM     20  C   UNL     1       6.855   4.914  15.749  0.00  0.00    +0.000 A 
ATOM     21  C   UNL     1       5.866   4.291  15.025  0.00  0.00    +0.000 A 
ATOM     22  C   UNL     1       4.804   3.661  15.635  0.00  0.00    +0.000 A 
ATOM     23  O   UNL     1       6.078   4.375  13.683  0.00  0.00    +0.000 OA
ATOM     24  C   UNL     1       7.404   4.945  13.669  0.00  0.00    +0.000 C 
ATOM     25  O   UNL     1       7.808   5.468  14.952  0.00  0.00    +0.000 OA
ENDBRANCH  16  17
ENDBRANCH   3  16
TORSDOF 2
ENDMDL
