MODEL 1
REMARK VINA RESULT:      -8.6      0.000      0.000
REMARK  Name = 
REMARK  9 active torsions:
REMARK  status: ('A' for Active; 'I' for Inactive)
REMARK    1  A    between atoms: C_1  and  O_2
REMARK    2  A    between atoms: O_2  and  C_3
REMARK    3  A    between atoms: C_5  and  N_6
REMARK    4  A    between atoms: C_7  and  N_8
REMARK    5  A    between atoms: C_12  and  C_13
REMARK    6  A    between atoms: N_15  and  C_16
REMARK    7  A    between atoms: C_16  and  C_17
REMARK    8  A    between atoms: N_19  and  C_20
REMARK    9  A    between atoms: C_20  and  C_21
REMARK                            x       y       z     vdW  Elec       q    Type
REMARK                         _______ _______ _______ _____ _____    ______ ____
ROOT
ATOM      1  C   UNL     1       2.266   5.993  20.214  0.00  0.00    +0.000 C 
ATOM      2  O   UNL     1       1.774   5.263  21.069  0.00  0.00    +0.000 OA
ATOM      3  N   UNL     1       2.003   7.344  20.194  0.00  0.00    +0.000 N 
ATOM      4  H   UNL     1       2.421   7.924  19.478  0.00  0.00    +0.000 HD
ENDROOT
BRANCH   1  10
ATOM      5  C   UNL     1       2.865   4.560  18.124  0.00  0.00    +0.000 A 
ATOM      6  C   UNL     1       3.881   4.116  17.248  0.00  0.00    +0.000 A 
ATOM      7  C   UNL     1       5.238   4.425  17.429  0.00  0.00    +0.000 A 
ATOM      8  C   UNL     1       5.578   5.177  18.560  0.00  0.00    +0.000 A 
ATOM      9  C   UNL     1       4.576   5.675  19.414  0.00  0.00    +0.000 A 
ATOM     10  C   UNL     1       3.210   5.382  19.209  0.00  0.00    +0.000 A 
BRANCH   7  11
ATOM     11  N   UNL     1       6.165   3.762  16.607  0.00  0.00    +0.000 N 
ATOM     12  H   UNL     1       6.535   4.302  15.828  0.00  0.00    +0.000 HD
ATOM     13  H   UNL     1       6.909   3.275  17.118  0.00  0.00    +0.000 HD
ENDBRANCH   7  11
BRANCH   8  14
ATOM     14  N   UNL     1       6.980   5.521  18.863  0.00  0.00    +0.000 N 
ATOM     15  O   UNL     1       7.689   5.960  17.945  0.00  0.00    +0.000 OA
ATOM     16  O   UNL     1       7.373   5.361  20.026  0.00  0.00    +0.000 OA
ENDBRANCH   8  14
BRANCH   5  18
ATOM     17  C   UNL     1       1.181   2.938  18.457  0.00  0.00    +0.000 C 
ATOM     18  O   UNL     1       1.547   4.217  17.920  0.00  0.00    +0.000 OA
ENDBRANCH   5  18
ENDBRANCH   1  10
BRANCH   3  19
ATOM     19  C   UNL     1       1.203   7.992  21.242  0.00  0.00    +0.000 C 
BRANCH  19  20
ATOM     20  C   UNL     1       0.609   9.366  20.848  0.00  0.00    +0.000 C 
ATOM     21  C   UNL     1       0.669   9.598  19.329  0.00  0.00    +0.000 C 
ATOM     22  N   UNL     1       0.013  10.849  18.873  0.00  0.00    +0.000 NA
ATOM     23  C   UNL     1       0.667  11.950  19.626  0.00  0.00    +0.000 C 
ATOM     24  C   UNL     1       0.774  11.716  21.153  0.00  0.00    +0.000 C 
ATOM     25  O   UNL     1       1.332  10.435  21.497  0.00  0.00    +0.000 OA
BRANCH  22  26
ATOM     26  C   UNL     1      -1.448  10.890  19.072  0.00  0.00    +0.000 C 
BRANCH  26  27
ATOM     27  C   UNL     1      -2.362  10.779  17.857  0.00  0.00    +0.000 A 
ATOM     28  C   UNL     1      -3.580  11.452  17.704  0.00  0.00    +0.000 A 
ATOM     29  C   UNL     1      -4.300  11.387  16.507  0.00  0.00    +0.000 A 
ATOM     30  C   UNL     1      -3.855  10.577  15.468  0.00  0.00    +0.000 A 
ATOM     31  C   UNL     1      -2.691   9.832  15.625  0.00  0.00    +0.000 A 
ATOM     32  C   UNL     1      -1.946   9.941  16.803  0.00  0.00    +0.000 A 
ENDBRANCH  26  27
ENDBRANCH  22  26
ENDBRANCH  19  20
ENDBRANCH   3  19
TORSDOF 8
ENDMDL
MODEL 2
REMARK VINA RESULT:      -8.2      1.230      1.356
REMARK  Name = 
REMARK  9 active torsions:
REMARK  status: ('A' for Active; 'I' for Inactive)
REMARK    1  A    between atoms: C_1  and  O_2
REMARK    2  A    between atoms: O_2  and  C_3
REMARK    3  A    between atoms: C_5  and  N_6
REMARK    4  A    between atoms: C_7  and  N_8
REMARK    5  A    between atoms: C_12  and  C_13
REMARK    6  A    between atoms: N_15  and  C_16
REMARK    7  A    between atoms: C_16  and  C_17
REMARK    8  A    between atoms: N_19  and  C_20
REMARK    9  A    between atoms: C_20  and  C_21
REMARK                            x       y       z     vdW  Elec       q    Type
REMARK                         _______ _______ _______ _____ _____    ______ ____
ROOT
ATOM      1  C   UNL     1       2.110   6.061  20.008  0.00  0.00    +0.000 C 
ATOM      2  O   UNL     1       1.260   5.391  20.588  0.00  0.00    +0.000 OA
ATOM      3  N   UNL     1       2.260   7.404  20.271  0.00  0.00    +0.000 N 
ATOM      4  H   UNL     1       2.968   7.932  19.779  0.00  0.00    +0.000 HD
ENDROOT
BRANCH   1  10
ATOM      5  C   UNL     1       3.198   3.979  18.886  0.00  0.00    +0.000 A 
ATOM      6  C   UNL     1       4.065   3.498  17.879  0.00  0.00    +0.000 A 
ATOM      7  C   UNL     1       4.801   4.342  17.033  0.00  0.00    +0.000 A 
ATOM      8  C   UNL     1       4.682   5.721  17.243  0.00  0.00    +0.000 A 
ATOM      9  C   UNL     1       3.782   6.222  18.204  0.00  0.00    +0.000 A 
ATOM     10  C   UNL     1       3.026   5.364  19.033  0.00  0.00    +0.000 A 
BRANCH   7  11
ATOM     11  N   UNL     1       5.771   3.744  16.211  0.00  0.00    +0.000 N 
ATOM     12  H   UNL     1       6.030   4.265  15.377  0.00  0.00    +0.000 HD
ATOM     13  H   UNL     1       6.595   3.399  16.715  0.00  0.00    +0.000 HD
ENDBRANCH   7  11
BRANCH   8  14
ATOM     14  N   UNL     1       5.443   6.692  16.435  0.00  0.00    +0.000 N 
ATOM     15  O   UNL     1       5.194   6.770  15.222  0.00  0.00    +0.000 OA
ATOM     16  O   UNL     1       6.286   7.387  17.016  0.00  0.00    +0.000 OA
ENDBRANCH   8  14
BRANCH   5  18
ATOM     17  C   UNL     1       1.564   2.279  19.024  0.00  0.00    +0.000 C 
ATOM     18  O   UNL     1       2.510   3.114  19.708  0.00  0.00    +0.000 OA
ENDBRANCH   5  18
ENDBRANCH   1  10
BRANCH   3  19
ATOM     19  C   UNL     1       1.480   8.079  21.317  0.00  0.00    +0.000 C 
BRANCH  19  20
ATOM     20  C   UNL     1       0.794   9.392  20.868  0.00  0.00    +0.000 C 
ATOM     21  C   UNL     1       0.827   9.558  19.339  0.00  0.00    +0.000 C 
ATOM     22  N   UNL     1       0.086  10.742  18.835  0.00  0.00    +0.000 NA
ATOM     23  C   UNL     1       0.673  11.917  19.531  0.00  0.00    +0.000 C 
ATOM     24  C   UNL     1       0.806  11.759  21.066  0.00  0.00    +0.000 C 
ATOM     25  O   UNL     1       1.450  10.534  21.460  0.00  0.00    +0.000 OA
BRANCH  22  26
ATOM     26  C   UNL     1      -1.373  10.696  19.046  0.00  0.00    +0.000 C 
BRANCH  26  27
ATOM     27  C   UNL     1      -2.294  10.649  17.833  0.00  0.00    +0.000 A 
ATOM     28  C   UNL     1      -3.502  11.347  17.714  0.00  0.00    +0.000 A 
ATOM     29  C   UNL     1      -4.227  11.342  16.519  0.00  0.00    +0.000 A 
ATOM     30  C   UNL     1      -3.801  10.566  15.446  0.00  0.00    +0.000 A 
ATOM     31  C   UNL     1      -2.648   9.797  15.568  0.00  0.00    +0.000 A 
ATOM     32  C   UNL     1      -1.897   9.846  16.745  0.00  0.00    +0.000 A 
ENDBRANCH  26  27
ENDBRANCH  22  26
ENDBRANCH  19  20
ENDBRANCH   3  19
TORSDOF 8
ENDMDL
MODEL 3
REMARK VINA RESULT:      -8.1      1.319      1.765
REMARK  Name = 
REMARK  9 active torsions:
REMARK  status: ('A' for Active; 'I' for Inactive)
REMARK    1  A    between atoms: C_1  and  O_2
REMARK    2  A    between atoms: O_2  and  C_3
REMARK    3  A    between atoms: C_5  and  N_6
REMARK    4  A    between atoms: C_7  and  N_8
REMARK    5  A    between atoms: C_12  and  C_13
REMARK    6  A    between atoms: N_15  and  C_16
REMARK    7  A    between atoms: C_16  and  C_17
REMARK    8  A    between atoms: N_19  and  C_20
REMARK    9  A    between atoms: C_20  and  C_21
REMARK                            x       y       z     vdW  Elec       q    Type
REMARK                         _______ _______ _______ _____ _____    ______ ____
ROOT
ATOM      1  C   UNL     1       2.150   6.016  20.037  0.00  0.00    +0.000 C 
ATOM      2  O   UNL     1       1.413   5.320  20.729  0.00  0.00    +0.000 OA
ATOM      3  N   UNL     1       2.195   7.383  20.195  0.00  0.00    +0.000 N 
ATOM      4  H   UNL     1       2.812   7.932  19.612  0.00  0.00    +0.000 HD
ENDROOT
BRANCH   1  10
ATOM      5  C   UNL     1       3.204   3.947  18.858  0.00  0.00    +0.000 A 
ATOM      6  C   UNL     1       4.056   3.478  17.832  0.00  0.00    +0.000 A 
ATOM      7  C   UNL     1       4.794   4.333  16.999  0.00  0.00    +0.000 A 
ATOM      8  C   UNL     1       4.693   5.708  17.241  0.00  0.00    +0.000 A 
ATOM      9  C   UNL     1       3.808   6.197  18.221  0.00  0.00    +0.000 A 
ATOM     10  C   UNL     1       3.049   5.330  19.037  0.00  0.00    +0.000 A 
BRANCH   7  11
ATOM     11  N   UNL     1       5.749   3.742  16.154  0.00  0.00    +0.000 N 
ATOM     12  H   UNL     1       5.689   3.992  15.171  0.00  0.00    +0.000 HD
ATOM     13  H   UNL     1       6.712   3.799  16.504  0.00  0.00    +0.000 HD
ENDBRANCH   7  11
BRANCH   8  14
ATOM     14  N   UNL     1       5.458   6.688  16.448  0.00  0.00    +0.000 N 
ATOM     15  O   UNL     1       6.364   7.321  17.013  0.00  0.00    +0.000 OA
ATOM     16  O   UNL     1       5.162   6.819  15.254  0.00  0.00    +0.000 OA
ENDBRANCH   8  14
BRANCH   5  18
ATOM     17  C   UNL     1       3.311   2.460  20.690  0.00  0.00    +0.000 C 
ATOM     18  O   UNL     1       2.513   3.072  19.667  0.00  0.00    +0.000 OA
ENDBRANCH   5  18
ENDBRANCH   1  10
BRANCH   3  19
ATOM     19  C   UNL     1       1.440   8.064  21.255  0.00  0.00    +0.000 C 
BRANCH  19  20
ATOM     20  C   UNL     1       0.739   9.371  20.812  0.00  0.00    +0.000 C 
ATOM     21  C   UNL     1       0.843   9.588  19.293  0.00  0.00    +0.000 C 
ATOM     22  N   UNL     1       0.095  10.767  18.788  0.00  0.00    +0.000 NA
ATOM     23  C   UNL     1       0.612  11.934  19.550  0.00  0.00    +0.000 C 
ATOM     24  C   UNL     1       0.673  11.730  21.084  0.00  0.00    +0.000 C 
ATOM     25  O   UNL     1       1.332  10.511  21.472  0.00  0.00    +0.000 OA
BRANCH  22  26
ATOM     26  C   UNL     1      -1.371  10.674  18.925  0.00  0.00    +0.000 C 
BRANCH  26  27
ATOM     27  C   UNL     1      -2.229  10.637  17.665  0.00  0.00    +0.000 A 
ATOM     28  C   UNL     1      -1.955   9.866  16.530  0.00  0.00    +0.000 A 
ATOM     29  C   UNL     1      -2.857   9.798  15.464  0.00  0.00    +0.000 A 
ATOM     30  C   UNL     1      -4.014  10.570  15.478  0.00  0.00    +0.000 A 
ATOM     31  C   UNL     1      -4.269  11.409  16.558  0.00  0.00    +0.000 A 
ATOM     32  C   UNL     1      -3.391  11.434  17.645  0.00  0.00    +0.000 A 
ENDBRANCH  26  27
ENDBRANCH  22  26
ENDBRANCH  19  20
ENDBRANCH   3  19
TORSDOF 8
ENDMDL
MODEL 4
REMARK VINA RESULT:      -7.8      2.722      9.003
REMARK  Name = 
REMARK  9 active torsions:
REMARK  status: ('A' for Active; 'I' for Inactive)
REMARK    1  A    between atoms: C_1  and  O_2
REMARK    2  A    between atoms: O_2  and  C_3
REMARK    3  A    between atoms: C_5  and  N_6
REMARK    4  A    between atoms: C_7  and  N_8
REMARK    5  A    between atoms: C_12  and  C_13
REMARK    6  A    between atoms: N_15  and  C_16
REMARK    7  A    between atoms: C_16  and  C_17
REMARK    8  A    between atoms: N_19  and  C_20
REMARK    9  A    between atoms: C_20  and  C_21
REMARK                            x       y       z     vdW  Elec       q    Type
REMARK                         _______ _______ _______ _____ _____    ______ ____
ROOT
ATOM      1  C   UNL     1       1.091   9.338  18.508  0.00  0.00    +0.000 C 
ATOM      2  O   UNL     1       1.735   9.502  17.476  0.00  0.00    +0.000 OA
ATOM      3  N   UNL     1       1.490   8.426  19.459  0.00  0.00    +0.000 N 
ATOM      4  H   UNL     1       0.941   8.310  20.301  0.00  0.00    +0.000 HD
ENDROOT
BRANCH   1  10
ATOM      5  C   UNL     1      -0.420  10.953  19.882  0.00  0.00    +0.000 A 
ATOM      6  C   UNL     1      -1.589  11.747  19.901  0.00  0.00    +0.000 A 
ATOM      7  C   UNL     1      -2.502  11.793  18.836  0.00  0.00    +0.000 A 
ATOM      8  C   UNL     1      -2.240  10.974  17.732  0.00  0.00    +0.000 A 
ATOM      9  C   UNL     1      -1.054  10.217  17.670  0.00  0.00    +0.000 A 
ATOM     10  C   UNL     1      -0.127  10.199  18.735  0.00  0.00    +0.000 A 
BRANCH   7  11
ATOM     11  N   UNL     1      -3.717  12.464  19.058  0.00  0.00    +0.000 N 
ATOM     12  H   UNL     1      -3.742  13.085  19.863  0.00  0.00    +0.000 HD
ATOM     13  H   UNL     1      -4.111  12.908  18.222  0.00  0.00    +0.000 HD
ENDBRANCH   7  11
BRANCH   8  14
ATOM     14  N   UNL     1      -3.158  10.918  16.579  0.00  0.00    +0.000 N 
ATOM     15  O   UNL     1      -4.378  10.879  16.801  0.00  0.00    +0.000 OA
ATOM     16  O   UNL     1      -2.660  10.922  15.446  0.00  0.00    +0.000 OA
ENDBRANCH   8  14
BRANCH   5  18
ATOM     17  C   UNL     1      -0.138  10.392  22.159  0.00  0.00    +0.000 C 
ATOM     18  O   UNL     1       0.440  10.923  20.957  0.00  0.00    +0.000 OA
ENDBRANCH   5  18
ENDBRANCH   1  10
BRANCH   3  19
ATOM     19  C   UNL     1       2.747   7.676  19.334  0.00  0.00    +0.000 C 
BRANCH  19  20
ATOM     20  C   UNL     1       2.605   6.143  19.488  0.00  0.00    +0.000 C 
ATOM     21  C   UNL     1       2.270   5.464  18.149  0.00  0.00    +0.000 C 
ATOM     22  N   UNL     1       2.231   3.981  18.206  0.00  0.00    +0.000 NA
ATOM     23  C   UNL     1       1.242   3.639  19.261  0.00  0.00    +0.000 C 
ATOM     24  C   UNL     1       1.432   4.400  20.597  0.00  0.00    +0.000 C 
ATOM     25  O   UNL     1       1.557   5.824  20.430  0.00  0.00    +0.000 OA
BRANCH  22  26
ATOM     26  C   UNL     1       3.528   3.338  18.492  0.00  0.00    +0.000 C 
BRANCH  26  27
ATOM     27  C   UNL     1       4.780   3.862  17.799  0.00  0.00    +0.000 A 
ATOM     28  C   UNL     1       5.852   4.490  18.445  0.00  0.00    +0.000 A 
ATOM     29  C   UNL     1       7.016   4.834  17.752  0.00  0.00    +0.000 A 
ATOM     30  C   UNL     1       7.096   4.633  16.378  0.00  0.00    +0.000 A 
ATOM     31  C   UNL     1       6.012   4.087  15.698  0.00  0.00    +0.000 A 
ATOM     32  C   UNL     1       4.871   3.695  16.403  0.00  0.00    +0.000 A 
ENDBRANCH  26  27
ENDBRANCH  22  26
ENDBRANCH  19  20
ENDBRANCH   3  19
TORSDOF 8
ENDMDL
MODEL 5
REMARK VINA RESULT:      -7.8      2.142      3.674
REMARK  Name = 
REMARK  9 active torsions:
REMARK  status: ('A' for Active; 'I' for Inactive)
REMARK    1  A    between atoms: C_1  and  O_2
REMARK    2  A    between atoms: O_2  and  C_3
REMARK    3  A    between atoms: C_5  and  N_6
REMARK    4  A    between atoms: C_7  and  N_8
REMARK    5  A    between atoms: C_12  and  C_13
REMARK    6  A    between atoms: N_15  and  C_16
REMARK    7  A    between atoms: C_16  and  C_17
REMARK    8  A    between atoms: N_19  and  C_20
REMARK    9  A    between atoms: C_20  and  C_21
REMARK                            x       y       z     vdW  Elec       q    Type
REMARK                         _______ _______ _______ _____ _____    ______ ____
ROOT
ATOM      1  C   UNL     1       2.563   5.781  19.898  0.00  0.00    +0.000 C 
ATOM      2  O   UNL     1       2.308   5.104  20.890  0.00  0.00    +0.000 OA
ATOM      3  N   UNL     1       2.142   7.088  19.800  0.00  0.00    +0.000 N 
ATOM      4  H   UNL     1       2.365   7.623  18.971  0.00  0.00    +0.000 HD
ENDROOT
BRANCH   1  10
ATOM      5  C   UNL     1       2.944   4.309  17.784  0.00  0.00    +0.000 A 
ATOM      6  C   UNL     1       3.862   3.860  16.808  0.00  0.00    +0.000 A 
ATOM      7  C   UNL     1       5.225   4.193  16.825  0.00  0.00    +0.000 A 
ATOM      8  C   UNL     1       5.679   4.976  17.893  0.00  0.00    +0.000 A 
ATOM      9  C   UNL     1       4.772   5.479  18.845  0.00  0.00    +0.000 A 
ATOM     10  C   UNL     1       3.397   5.160  18.804  0.00  0.00    +0.000 A 
BRANCH   7  11
ATOM     11  N   UNL     1       6.063   3.525  15.916  0.00  0.00    +0.000 N 
ATOM     12  H   UNL     1       5.957   2.515  15.872  0.00  0.00    +0.000 HD
ATOM     13  H   UNL     1       6.089   3.946  14.981  0.00  0.00    +0.000 HD
ENDBRANCH   7  11
BRANCH   8  14
ATOM     14  N   UNL     1       7.100   5.348  18.026  0.00  0.00    +0.000 N 
ATOM     15  O   UNL     1       7.916   4.456  18.305  0.00  0.00    +0.000 OA
ATOM     16  O   UNL     1       7.404   6.533  17.842  0.00  0.00    +0.000 OA
ENDBRANCH   8  14
BRANCH   5  18
ATOM     17  C   UNL     1       1.321   2.720  18.433  0.00  0.00    +0.000 C 
ATOM     18  O   UNL     1       1.618   3.941  17.740  0.00  0.00    +0.000 OA
ENDBRANCH   5  18
ENDBRANCH   1  10
BRANCH   3  19
ATOM     19  C   UNL     1       1.452   7.764  20.907  0.00  0.00    +0.000 C 
BRANCH  19  20
ATOM     20  C   UNL     1       1.055   9.232  20.622  0.00  0.00    +0.000 C 
ATOM     21  C   UNL     1      -0.439   9.480  20.889  0.00  0.00    +0.000 C 
ATOM     22  N   UNL     1      -0.862  10.896  20.743  0.00  0.00    +0.000 NA
ATOM     23  C   UNL     1      -0.473  11.298  19.366  0.00  0.00    +0.000 C 
ATOM     24  C   UNL     1       0.984  10.944  18.977  0.00  0.00    +0.000 C 
ATOM     25  O   UNL     1       1.330   9.573  19.246  0.00  0.00    +0.000 OA
BRANCH  22  26
ATOM     26  C   UNL     1      -0.278  11.822  21.732  0.00  0.00    +0.000 C 
BRANCH  26  27
ATOM     27  C   UNL     1      -1.209  12.604  22.651  0.00  0.00    +0.000 A 
ATOM     28  C   UNL     1      -0.969  13.900  23.123  0.00  0.00    +0.000 A 
ATOM     29  C   UNL     1      -1.931  14.591  23.866  0.00  0.00    +0.000 A 
ATOM     30  C   UNL     1      -3.119  13.964  24.225  0.00  0.00    +0.000 A 
ATOM     31  C   UNL     1      -3.346  12.647  23.840  0.00  0.00    +0.000 A 
ATOM     32  C   UNL     1      -2.406  11.977  23.052  0.00  0.00    +0.000 A 
ENDBRANCH  26  27
ENDBRANCH  22  26
ENDBRANCH  19  20
ENDBRANCH   3  19
TORSDOF 8
ENDMDL
MODEL 6
REMARK VINA RESULT:      -7.6      2.849      4.365
REMARK  Name = 
REMARK  9 active torsions:
REMARK  status: ('A' for Active; 'I' for Inactive)
REMARK    1  A    between atoms: C_1  and  O_2
REMARK    2  A    between atoms: O_2  and  C_3
REMARK    3  A    between atoms: C_5  and  N_6
REMARK    4  A    between atoms: C_7  and  N_8
REMARK    5  A    between atoms: C_12  and  C_13
REMARK    6  A    between atoms: N_15  and  C_16
REMARK    7  A    between atoms: C_16  and  C_17
REMARK    8  A    between atoms: N_19  and  C_20
REMARK    9  A    between atoms: C_20  and  C_21
REMARK                            x       y       z     vdW  Elec       q    Type
REMARK                         _______ _______ _______ _____ _____    ______ ____
ROOT
ATOM      1  C   UNL     1       2.201   8.329  18.197  0.00  0.00    +0.000 C 
ATOM      2  O   UNL     1       2.091   8.865  17.098  0.00  0.00    +0.000 OA
ATOM      3  N   UNL     1       1.436   8.735  19.267  0.00  0.00    +0.000 N 
ATOM      4  H   UNL     1       1.547   8.277  20.162  0.00  0.00    +0.000 HD
ENDROOT
BRANCH   1  10
ATOM      5  C   UNL     1       3.145   6.182  19.327  0.00  0.00    +0.000 A 
ATOM      6  C   UNL     1       4.100   5.141  19.273  0.00  0.00    +0.000 A 
ATOM      7  C   UNL     1       5.102   5.070  18.293  0.00  0.00    +0.000 A 
ATOM      8  C   UNL     1       5.160   6.111  17.360  0.00  0.00    +0.000 A 
ATOM      9  C   UNL     1       4.185   7.127  17.362  0.00  0.00    +0.000 A 
ATOM     10  C   UNL     1       3.164   7.176  18.337  0.00  0.00    +0.000 A 
BRANCH   7  11
ATOM     11  N   UNL     1       6.104   4.100  18.466  0.00  0.00    +0.000 N 
ATOM     12  H   UNL     1       6.584   4.111  19.362  0.00  0.00    +0.000 HD
ATOM     13  H   UNL     1       5.822   3.151  18.198  0.00  0.00    +0.000 HD
ENDBRANCH   7  11
BRANCH   8  14
ATOM     14  N   UNL     1       6.199   6.151  16.314  0.00  0.00    +0.000 N 
ATOM     15  O   UNL     1       7.383   6.267  16.667  0.00  0.00    +0.000 OA
ATOM     16  O   UNL     1       5.833   6.057  15.135  0.00  0.00    +0.000 OA
ENDBRANCH   8  14
BRANCH   5  18
ATOM     17  C   UNL     1       1.638   4.944  20.660  0.00  0.00    +0.000 C 
ATOM     18  O   UNL     1       2.191   6.224  20.319  0.00  0.00    +0.000 OA
ENDBRANCH   5  18
ENDBRANCH   1  10
BRANCH   3  19
ATOM     19  C   UNL     1       0.390   9.757  19.127  0.00  0.00    +0.000 C 
BRANCH  19  20
ATOM     20  C   UNL     1       0.695  11.097  19.838  0.00  0.00    +0.000 C 
ATOM     21  C   UNL     1      -0.529  12.028  19.847  0.00  0.00    +0.000 C 
ATOM     22  N   UNL     1      -0.337  13.286  20.613  0.00  0.00    +0.000 NA
ATOM     23  C   UNL     1       0.855  13.946  20.021  0.00  0.00    +0.000 C 
ATOM     24  C   UNL     1       2.086  13.022  19.846  0.00  0.00    +0.000 C 
ATOM     25  O   UNL     1       1.780  11.784  19.179  0.00  0.00    +0.000 OA
BRANCH  22  26
ATOM     26  C   UNL     1      -0.154  13.105  22.066  0.00  0.00    +0.000 C 
BRANCH  26  27
ATOM     27  C   UNL     1      -1.357  13.268  22.988  0.00  0.00    +0.000 A 
ATOM     28  C   UNL     1      -1.579  14.362  23.832  0.00  0.00    +0.000 A 
ATOM     29  C   UNL     1      -2.768  14.490  24.557  0.00  0.00    +0.000 A 
ATOM     30  C   UNL     1      -3.723  13.480  24.516  0.00  0.00    +0.000 A 
ATOM     31  C   UNL     1      -3.490  12.343  23.749  0.00  0.00    +0.000 A 
ATOM     32  C   UNL     1      -2.324  12.243  22.985  0.00  0.00    +0.000 A 
ENDBRANCH  26  27
ENDBRANCH  22  26
ENDBRANCH  19  20
ENDBRANCH   3  19
TORSDOF 8
ENDMDL
MODEL 7
REMARK VINA RESULT:      -7.6      2.168      3.116
REMARK  Name = 
REMARK  9 active torsions:
REMARK  status: ('A' for Active; 'I' for Inactive)
REMARK    1  A    between atoms: C_1  and  O_2
REMARK    2  A    between atoms: O_2  and  C_3
REMARK    3  A    between atoms: C_5  and  N_6
REMARK    4  A    between atoms: C_7  and  N_8
REMARK    5  A    between atoms: C_12  and  C_13
REMARK    6  A    between atoms: N_15  and  C_16
REMARK    7  A    between atoms: C_16  and  C_17
REMARK    8  A    between atoms: N_19  and  C_20
REMARK    9  A    between atoms: C_20  and  C_21
REMARK                            x       y       z     vdW  Elec       q    Type
REMARK                         _______ _______ _______ _____ _____    ______ ____
ROOT
ATOM      1  C   UNL     1       2.387   5.993  19.851  0.00  0.00    +0.000 C 
ATOM      2  O   UNL     1       1.976   5.351  20.813  0.00  0.00    +0.000 OA
ATOM      3  N   UNL     1       2.130   7.340  19.730  0.00  0.00    +0.000 N 
ATOM      4  H   UNL     1       2.481   7.844  18.927  0.00  0.00    +0.000 HD
ENDROOT
BRANCH   1  10
ATOM      5  C   UNL     1       2.780   4.358  17.863  0.00  0.00    +0.000 A 
ATOM      6  C   UNL     1       3.707   3.821  16.940  0.00  0.00    +0.000 A 
ATOM      7  C   UNL     1       5.075   4.134  16.957  0.00  0.00    +0.000 A 
ATOM      8  C   UNL     1       5.523   4.990  17.970  0.00  0.00    +0.000 A 
ATOM      9  C   UNL     1       4.609   5.578  18.865  0.00  0.00    +0.000 A 
ATOM     10  C   UNL     1       3.229   5.278  18.823  0.00  0.00    +0.000 A 
BRANCH   7  11
ATOM     11  N   UNL     1       5.917   3.386  16.117  0.00  0.00    +0.000 N 
ATOM     12  H   UNL     1       5.658   3.363  15.134  0.00  0.00    +0.000 HD
ATOM     13  H   UNL     1       6.916   3.580  16.243  0.00  0.00    +0.000 HD
ENDBRANCH   7  11
BRANCH   8  14
ATOM     14  N   UNL     1       6.947   5.349  18.101  0.00  0.00    +0.000 N 
ATOM     15  O   UNL     1       7.256   6.550  18.062  0.00  0.00    +0.000 OA
ATOM     16  O   UNL     1       7.761   4.429  18.252  0.00  0.00    +0.000 OA
ENDBRANCH   8  14
BRANCH   5  18
ATOM     17  C   UNL     1       1.139   2.787  18.511  0.00  0.00    +0.000 C 
ATOM     18  O   UNL     1       1.449   4.008  17.823  0.00  0.00    +0.000 OA
ENDBRANCH   5  18
ENDBRANCH   1  10
BRANCH   3  19
ATOM     19  C   UNL     1       1.437   8.093  20.783  0.00  0.00    +0.000 C 
BRANCH  19  20
ATOM     20  C   UNL     1       0.958   9.503  20.363  0.00  0.00    +0.000 C 
ATOM     21  C   UNL     1      -0.567   9.553  20.170  0.00  0.00    +0.000 C 
ATOM     22  N   UNL     1      -1.104  10.906  19.876  0.00  0.00    +0.000 NA
ATOM     23  C   UNL     1      -0.379  11.379  18.668  0.00  0.00    +0.000 C 
ATOM     24  C   UNL     1       1.160  11.221  18.734  0.00  0.00    +0.000 C 
ATOM     25  O   UNL     1       1.582   9.901  19.122  0.00  0.00    +0.000 OA
BRANCH  22  26
ATOM     26  C   UNL     1      -0.961  11.882  20.973  0.00  0.00    +0.000 C 
BRANCH  26  27
ATOM     27  C   UNL     1      -2.208  12.339  21.722  0.00  0.00    +0.000 A 
ATOM     28  C   UNL     1      -3.272  13.047  21.151  0.00  0.00    +0.000 A 
ATOM     29  C   UNL     1      -4.433  13.324  21.881  0.00  0.00    +0.000 A 
ATOM     30  C   UNL     1      -4.515  12.972  23.224  0.00  0.00    +0.000 A 
ATOM     31  C   UNL     1      -3.437  12.342  23.837  0.00  0.00    +0.000 A 
ATOM     32  C   UNL     1      -2.300  12.019  23.091  0.00  0.00    +0.000 A 
ENDBRANCH  26  27
ENDBRANCH  22  26
ENDBRANCH  19  20
ENDBRANCH   3  19
TORSDOF 8
ENDMDL
MODEL 8
REMARK VINA RESULT:      -7.6      0.792      1.210
REMARK  Name = 
REMARK  9 active torsions:
REMARK  status: ('A' for Active; 'I' for Inactive)
REMARK    1  A    between atoms: C_1  and  O_2
REMARK    2  A    between atoms: O_2  and  C_3
REMARK    3  A    between atoms: C_5  and  N_6
REMARK    4  A    between atoms: C_7  and  N_8
REMARK    5  A    between atoms: C_12  and  C_13
REMARK    6  A    between atoms: N_15  and  C_16
REMARK    7  A    between atoms: C_16  and  C_17
REMARK    8  A    between atoms: N_19  and  C_20
REMARK    9  A    between atoms: C_20  and  C_21
REMARK                            x       y       z     vdW  Elec       q    Type
REMARK                         _______ _______ _______ _____ _____    ______ ____
ROOT
ATOM      1  C   UNL     1       2.562   5.942  19.842  0.00  0.00    +0.000 C 
ATOM      2  O   UNL     1       2.113   5.239  20.743  0.00  0.00    +0.000 OA
ATOM      3  N   UNL     1       2.378   7.306  19.845  0.00  0.00    +0.000 N 
ATOM      4  H   UNL     1       2.758   7.862  19.090  0.00  0.00    +0.000 HD
ENDROOT
BRANCH   1  10
ATOM      5  C   UNL     1       2.936   4.257  17.893  0.00  0.00    +0.000 A 
ATOM      6  C   UNL     1       3.813   3.788  16.889  0.00  0.00    +0.000 A 
ATOM      7  C   UNL     1       5.122   4.269  16.728  0.00  0.00    +0.000 A 
ATOM      8  C   UNL     1       5.567   5.230  17.643  0.00  0.00    +0.000 A 
ATOM      9  C   UNL     1       4.692   5.750  18.615  0.00  0.00    +0.000 A 
ATOM     10  C   UNL     1       3.367   5.279  18.752  0.00  0.00    +0.000 A 
BRANCH   7  11
ATOM     11  N   UNL     1       5.953   3.584  15.825  0.00  0.00    +0.000 N 
ATOM     12  H   UNL     1       6.039   3.996  14.900  0.00  0.00    +0.000 HD
ATOM     13  H   UNL     1       6.866   3.321  16.211  0.00  0.00    +0.000 HD
ENDBRANCH   7  11
BRANCH   8  14
ATOM     14  N   UNL     1       6.938   5.770  17.586  0.00  0.00    +0.000 N 
ATOM     15  O   UNL     1       7.357   6.198  16.499  0.00  0.00    +0.000 OA
ATOM     16  O   UNL     1       7.598   5.777  18.633  0.00  0.00    +0.000 OA
ENDBRANCH   8  14
BRANCH   5  18
ATOM     17  C   UNL     1       1.626   2.352  18.377  0.00  0.00    +0.000 C 
ATOM     18  O   UNL     1       1.665   3.743  18.027  0.00  0.00    +0.000 OA
ENDBRANCH   5  18
ENDBRANCH   1  10
BRANCH   3  19
ATOM     19  C   UNL     1       1.723   7.996  20.964  0.00  0.00    +0.000 C 
BRANCH  19  20
ATOM     20  C   UNL     1       0.629   9.010  20.548  0.00  0.00    +0.000 C 
ATOM     21  C   UNL     1       0.868   9.557  19.131  0.00  0.00    +0.000 C 
ATOM     22  N   UNL     1      -0.207  10.449  18.628  0.00  0.00    +0.000 NA
ATOM     23  C   UNL     1      -0.332  11.541  19.629  0.00  0.00    +0.000 C 
ATOM     24  C   UNL     1      -0.430  11.064  21.099  0.00  0.00    +0.000 C 
ATOM     25  O   UNL     1       0.599  10.126  21.464  0.00  0.00    +0.000 OA
BRANCH  22  26
ATOM     26  C   UNL     1      -1.512   9.792  18.422  0.00  0.00    +0.000 C 
BRANCH  26  27
ATOM     27  C   UNL     1      -2.534  10.451  17.504  0.00  0.00    +0.000 A 
ATOM     28  C   UNL     1      -2.516  10.389  16.106  0.00  0.00    +0.000 A 
ATOM     29  C   UNL     1      -3.560  10.922  15.342  0.00  0.00    +0.000 A 
ATOM     30  C   UNL     1      -4.600  11.605  15.963  0.00  0.00    +0.000 A 
ATOM     31  C   UNL     1      -4.599  11.754  17.346  0.00  0.00    +0.000 A 
ATOM     32  C   UNL     1      -3.582  11.174  18.109  0.00  0.00    +0.000 A 
ENDBRANCH  26  27
ENDBRANCH  22  26
ENDBRANCH  19  20
ENDBRANCH   3  19
TORSDOF 8
ENDMDL
MODEL 9
REMARK VINA RESULT:      -7.5      2.945      8.184
REMARK  Name = 
REMARK  9 active torsions:
REMARK  status: ('A' for Active; 'I' for Inactive)
REMARK    1  A    between atoms: C_1  and  O_2
REMARK    2  A    between atoms: O_2  and  C_3
REMARK    3  A    between atoms: C_5  and  N_6
REMARK    4  A    between atoms: C_7  and  N_8
REMARK    5  A    between atoms: C_12  and  C_13
REMARK    6  A    between atoms: N_15  and  C_16
REMARK    7  A    between atoms: C_16  and  C_17
REMARK    8  A    between atoms: N_19  and  C_20
REMARK    9  A    between atoms: C_20  and  C_21
REMARK                            x       y       z     vdW  Elec       q    Type
REMARK                         _______ _______ _______ _____ _____    ______ ____
ROOT
ATOM      1  C   UNL     1       2.234   8.731  18.203  0.00  0.00    +0.000 C 
ATOM      2  O   UNL     1       2.006   9.561  17.328  0.00  0.00    +0.000 OA
ATOM      3  N   UNL     1       3.171   7.740  18.019  0.00  0.00    +0.000 N 
ATOM      4  H   UNL     1       3.340   7.069  18.756  0.00  0.00    +0.000 HD
ENDROOT
BRANCH   1  10
ATOM      5  C   UNL     1       1.529   7.946  20.584  0.00  0.00    +0.000 A 
ATOM      6  C   UNL     1       0.812   8.250  21.763  0.00  0.00    +0.000 A 
ATOM      7  C   UNL     1       0.030   9.406  21.910  0.00  0.00    +0.000 A 
ATOM      8  C   UNL     1      -0.058  10.263  20.806  0.00  0.00    +0.000 A 
ATOM      9  C   UNL     1       0.691  10.007  19.642  0.00  0.00    +0.000 A 
ATOM     10  C   UNL     1       1.497   8.854  19.514  0.00  0.00    +0.000 A 
BRANCH   7  11
ATOM     11  N   UNL     1      -0.785   9.492  23.051  0.00  0.00    +0.000 N 
ATOM     12  H   UNL     1      -0.312   9.389  23.945  0.00  0.00    +0.000 HD
ATOM     13  H   UNL     1      -1.427  10.292  23.050  0.00  0.00    +0.000 HD
ENDBRANCH   7  11
BRANCH   8  14
ATOM     14  N   UNL     1      -0.885  11.483  20.843  0.00  0.00    +0.000 N 
ATOM     15  O   UNL     1      -1.643  11.708  19.886  0.00  0.00    +0.000 OA
ATOM     16  O   UNL     1      -0.787  12.215  21.836  0.00  0.00    +0.000 OA
ENDBRANCH   8  14
BRANCH   5  18
ATOM     17  C   UNL     1       1.564   5.601  20.863  0.00  0.00    +0.000 C 
ATOM     18  O   UNL     1       2.269   6.790  20.476  0.00  0.00    +0.000 OA
ENDBRANCH   5  18
ENDBRANCH   1  10
BRANCH   3  19
ATOM     19  C   UNL     1       4.006   7.679  16.811  0.00  0.00    +0.000 C 
BRANCH  19  20
ATOM     20  C   UNL     1       4.776   6.350  16.622  0.00  0.00    +0.000 C 
ATOM     21  C   UNL     1       5.062   5.661  17.967  0.00  0.00    +0.000 C 
ATOM     22  N   UNL     1       5.699   4.325  17.849  0.00  0.00    +0.000 NA
ATOM     23  C   UNL     1       6.942   4.535  17.061  0.00  0.00    +0.000 C 
ATOM     24  C   UNL     1       6.753   5.353  15.760  0.00  0.00    +0.000 C 
ATOM     25  O   UNL     1       6.038   6.587  15.960  0.00  0.00    +0.000 OA
BRANCH  22  26
ATOM     26  C   UNL     1       4.859   3.291  17.215  0.00  0.00    +0.000 C 
BRANCH  26  27
ATOM     27  C   UNL     1       3.506   2.959  17.832  0.00  0.00    +0.000 A 
ATOM     28  C   UNL     1       3.291   1.991  18.821  0.00  0.00    +0.000 A 
ATOM     29  C   UNL     1       2.037   1.832  19.419  0.00  0.00    +0.000 A 
ATOM     30  C   UNL     1       0.952   2.581  18.977  0.00  0.00    +0.000 A 
ATOM     31  C   UNL     1       1.121   3.490  17.938  0.00  0.00    +0.000 A 
ATOM     32  C   UNL     1       2.386   3.685  17.379  0.00  0.00    +0.000 A 
ENDBRANCH  26  27
ENDBRANCH  22  26
ENDBRANCH  19  20
ENDBRANCH   3  19
TORSDOF 8
ENDMDL
