MODEL 1
REMARK VINA RESULT:      -9.1      0.000      0.000
REMARK  Name = 
REMARK  13 active torsions:
REMARK  status: ('A' for Active; 'I' for Inactive)
REMARK    1  A    between atoms: C_2  and  C_3
REMARK    2  A    between atoms: C_2  and  C_9
REMARK    3  A    between atoms: C_12  and  O_13
REMARK    4  A    between atoms: O_13  and  C_14
REMARK    5  A    between atoms: C_14  and  C_15
REMARK    6  A    between atoms: C_15  and  O_16
REMARK    7  A    between atoms: C_15  and  C_17
REMARK    8  A    between atoms: C_17  and  O_18
REMARK    9  A    between atoms: O_18  and  C_19
REMARK   10  A    between atoms: C_22  and  C_23
REMARK   11  A    between atoms: C_23  and  C_25
REMARK   12  A    between atoms: C_31  and  O_32
REMARK   13  A    between atoms: C_35  and  O_36
REMARK                            x       y       z     vdW  Elec       q    Type
REMARK                         _______ _______ _______ _____ _____    ______ ____
ROOT
ATOM      1  C   UNL     1       1.561   3.798  20.864  0.00  0.00    +0.000 C 
ENDROOT
BRANCH   1   2
ATOM      2  O   UNL     1       2.027   2.924  21.901  0.00  0.00    +0.000 OA
ATOM      3  H   UNL     1       2.267   3.462  22.675  0.00  0.00    +0.000 HD
ENDBRANCH   1   2
BRANCH   1   4
ATOM      4  C   UNL     1       1.908   3.252  19.471  0.00  0.00    +0.000 C 
BRANCH   4   5
ATOM      5  O   UNL     1       3.220   2.687  19.497  0.00  0.00    +0.000 OA
BRANCH   5   9
ATOM      6  C   UNL     1       5.882   4.583  16.906  0.00  0.00    +0.000 A 
ATOM      7  C   UNL     1       4.686   3.998  16.463  0.00  0.00    +0.000 A 
ATOM      8  C   UNL     1       3.822   3.386  17.371  0.00  0.00    +0.000 A 
ATOM      9  C   UNL     1       4.162   3.298  18.719  0.00  0.00    +0.000 A 
ATOM     10  C   UNL     1       5.381   3.824  19.158  0.00  0.00    +0.000 A 
ATOM     11  C   UNL     1       6.232   4.472  18.254  0.00  0.00    +0.000 A 
BRANCH   6  13
ATOM     12  O   UNL     1       7.470   6.220  16.276  0.00  0.00    +0.000 OA
ATOM     13  C   UNL     1       6.755   5.290  15.923  0.00  0.00    +0.000 C 
BRANCH  13  14
ATOM     14  C   UNL     1       6.824   4.819  14.509  0.00  0.00    +0.000 A 
ATOM     15  C   UNL     1       5.926   3.831  14.089  0.00  0.00    +0.000 A 
ATOM     16  C   UNL     1       5.916   3.416  12.757  0.00  0.00    +0.000 A 
ATOM     17  C   UNL     1       6.801   3.985  11.841  0.00  0.00    +0.000 A 
ATOM     18  C   UNL     1       7.714   4.953  12.259  0.00  0.00    +0.000 A 
ATOM     19  C   UNL     1       7.741   5.357  13.595  0.00  0.00    +0.000 A 
ENDBRANCH  13  14
ENDBRANCH   6  13
BRANCH  11  20
ATOM     20  O   UNL     1       7.380   5.040  18.728  0.00  0.00    +0.000 OA
ATOM     21  H   UNL     1       7.908   4.376  19.195  0.00  0.00    +0.000 HD
ENDBRANCH  11  20
ENDBRANCH   5   9
ENDBRANCH   4   5
ENDBRANCH   1   4
BRANCH   1  22
ATOM     22  C   UNL     1       2.192   5.175  21.066  0.00  0.00    +0.000 C 
BRANCH  22  23
ATOM     23  O   UNL     1       2.463   5.790  19.807  0.00  0.00    +0.000 OA
BRANCH  23  24
ATOM     24  C   UNL     1       2.016   7.073  19.656  0.00  0.00    +0.000 A 
ATOM     25  C   UNL     1       1.387   7.623  20.773  0.00  0.00    +0.000 A 
ATOM     26  C   UNL     1       0.908   8.936  20.740  0.00  0.00    +0.000 A 
ATOM     27  C   UNL     1       1.048   9.726  19.584  0.00  0.00    +0.000 A 
ATOM     28  C   UNL     1       1.700   9.172  18.476  0.00  0.00    +0.000 A 
ATOM     29  C   UNL     1       2.154   7.847  18.507  0.00  0.00    +0.000 A 
BRANCH  27  30
ATOM     30  C   UNL     1       0.535  11.120  19.679  0.00  0.00    +0.000 C 
ATOM     31  O   UNL     1       1.343  12.039  19.796  0.00  0.00    +0.000 OA
BRANCH  30  32
ATOM     32  C   UNL     1      -0.909  11.467  19.616  0.00  0.00    +0.000 A 
ATOM     33  C   UNL     1      -1.440  12.261  20.643  0.00  0.00    +0.000 A 
ATOM     34  C   UNL     1      -2.770  12.677  20.590  0.00  0.00    +0.000 A 
ATOM     35  C   UNL     1      -3.577  12.295  19.519  0.00  0.00    +0.000 A 
ATOM     36  C   UNL     1      -3.064  11.471  18.517  0.00  0.00    +0.000 A 
ATOM     37  C   UNL     1      -1.737  11.040  18.572  0.00  0.00    +0.000 A 
ENDBRANCH  30  32
ENDBRANCH  27  30
BRANCH  28  38
ATOM     38  O   UNL     1       1.996   9.822  17.307  0.00  0.00    +0.000 OA
ATOM     39  H   UNL     1       2.468   9.233  16.696  0.00  0.00    +0.000 HD
ENDBRANCH  28  38
ENDBRANCH  23  24
ENDBRANCH  22  23
ENDBRANCH   1  22
TORSDOF 13
ENDMDL
MODEL 2
REMARK VINA RESULT:      -8.8      1.640      8.982
REMARK  Name = 
REMARK  13 active torsions:
REMARK  status: ('A' for Active; 'I' for Inactive)
REMARK    1  A    between atoms: C_2  and  C_3
REMARK    2  A    between atoms: C_2  and  C_9
REMARK    3  A    between atoms: C_12  and  O_13
REMARK    4  A    between atoms: O_13  and  C_14
REMARK    5  A    between atoms: C_14  and  C_15
REMARK    6  A    between atoms: C_15  and  O_16
REMARK    7  A    between atoms: C_15  and  C_17
REMARK    8  A    between atoms: C_17  and  O_18
REMARK    9  A    between atoms: O_18  and  C_19
REMARK   10  A    between atoms: C_22  and  C_23
REMARK   11  A    between atoms: C_23  and  C_25
REMARK   12  A    between atoms: C_31  and  O_32
REMARK   13  A    between atoms: C_35  and  O_36
REMARK                            x       y       z     vdW  Elec       q    Type
REMARK                         _______ _______ _______ _____ _____    ______ ____
ROOT
ATOM      1  C   UNL     1       1.632   3.440  21.058  0.00  0.00    +0.000 C 
ENDROOT
BRANCH   1   2
ATOM      2  O   UNL     1       0.500   3.483  20.178  0.00  0.00    +0.000 OA
ATOM      3  H   UNL     1       0.385   4.397  19.867  0.00  0.00    +0.000 HD
ENDBRANCH   1   2
BRANCH   1   4
ATOM      4  C   UNL     1       2.128   4.852  21.404  0.00  0.00    +0.000 C 
BRANCH   4   5
ATOM      5  O   UNL     1       2.495   5.532  20.204  0.00  0.00    +0.000 OA
BRANCH   5   9
ATOM      6  C   UNL     1       1.064   9.372  19.429  0.00  0.00    +0.000 A 
ATOM      7  C   UNL     1       1.890   8.680  18.531  0.00  0.00    +0.000 A 
ATOM      8  C   UNL     1       2.334   7.393  18.830  0.00  0.00    +0.000 A 
ATOM      9  C   UNL     1       2.008   6.800  20.048  0.00  0.00    +0.000 A 
ATOM     10  C   UNL     1       1.236   7.506  20.974  0.00  0.00    +0.000 A 
ATOM     11  C   UNL     1       0.758   8.785  20.659  0.00  0.00    +0.000 A 
BRANCH   6  13
ATOM     12  O   UNL     1      -0.621  10.877  18.722  0.00  0.00    +0.000 OA
ATOM     13  C   UNL     1       0.549  10.722  19.053  0.00  0.00    +0.000 C 
BRANCH  13  14
ATOM     14  C   UNL     1       1.438  11.916  19.151  0.00  0.00    +0.000 A 
ATOM     15  C   UNL     1       1.414  12.671  20.330  0.00  0.00    +0.000 A 
ATOM     16  C   UNL     1       2.281  13.753  20.483  0.00  0.00    +0.000 A 
ATOM     17  C   UNL     1       3.173  14.085  19.463  0.00  0.00    +0.000 A 
ATOM     18  C   UNL     1       3.184  13.351  18.277  0.00  0.00    +0.000 A 
ATOM     19  C   UNL     1       2.305  12.280  18.111  0.00  0.00    +0.000 A 
ENDBRANCH  13  14
ENDBRANCH   6  13
BRANCH  11  20
ATOM     20  O   UNL     1      -0.055   9.420  21.555  0.00  0.00    +0.000 OA
ATOM     21  H   UNL     1      -0.842   9.759  21.104  0.00  0.00    +0.000 HD
ENDBRANCH  11  20
ENDBRANCH   5   9
ENDBRANCH   4   5
ENDBRANCH   1   4
BRANCH   1  22
ATOM     22  C   UNL     1       2.744   2.638  20.383  0.00  0.00    +0.000 C 
BRANCH  22  23
ATOM     23  O   UNL     1       2.634   2.728  18.963  0.00  0.00    +0.000 OA
BRANCH  23  24
ATOM     24  C   UNL     1       3.694   3.297  18.314  0.00  0.00    +0.000 A 
ATOM     25  C   UNL     1       3.487   3.584  16.966  0.00  0.00    +0.000 A 
ATOM     26  C   UNL     1       4.495   4.186  16.207  0.00  0.00    +0.000 A 
ATOM     27  C   UNL     1       5.736   4.511  16.785  0.00  0.00    +0.000 A 
ATOM     28  C   UNL     1       5.926   4.238  18.146  0.00  0.00    +0.000 A 
ATOM     29  C   UNL     1       4.921   3.612  18.893  0.00  0.00    +0.000 A 
BRANCH  27  30
ATOM     30  C   UNL     1       6.718   5.183  15.892  0.00  0.00    +0.000 C 
ATOM     31  O   UNL     1       7.436   6.064  16.360  0.00  0.00    +0.000 OA
BRANCH  30  32
ATOM     32  C   UNL     1       6.897   4.829  14.459  0.00  0.00    +0.000 A 
ATOM     33  C   UNL     1       6.177   3.735  13.956  0.00  0.00    +0.000 A 
ATOM     34  C   UNL     1       6.252   3.410  12.602  0.00  0.00    +0.000 A 
ATOM     35  C   UNL     1       7.053   4.166  11.748  0.00  0.00    +0.000 A 
ATOM     36  C   UNL     1       7.803   5.229  12.252  0.00  0.00    +0.000 A 
ATOM     37  C   UNL     1       7.742   5.552  13.609  0.00  0.00    +0.000 A 
ENDBRANCH  30  32
ENDBRANCH  27  30
BRANCH  28  38
ATOM     38  O   UNL     1       7.033   4.563  18.886  0.00  0.00    +0.000 OA
ATOM     39  H   UNL     1       7.601   5.183  18.401  0.00  0.00    +0.000 HD
ENDBRANCH  28  38
ENDBRANCH  23  24
ENDBRANCH  22  23
ENDBRANCH   1  22
TORSDOF 13
ENDMDL
MODEL 3
REMARK VINA RESULT:      -8.6      1.520      8.997
REMARK  Name = 
REMARK  13 active torsions:
REMARK  status: ('A' for Active; 'I' for Inactive)
REMARK    1  A    between atoms: C_2  and  C_3
REMARK    2  A    between atoms: C_2  and  C_9
REMARK    3  A    between atoms: C_12  and  O_13
REMARK    4  A    between atoms: O_13  and  C_14
REMARK    5  A    between atoms: C_14  and  C_15
REMARK    6  A    between atoms: C_15  and  O_16
REMARK    7  A    between atoms: C_15  and  C_17
REMARK    8  A    between atoms: C_17  and  O_18
REMARK    9  A    between atoms: O_18  and  C_19
REMARK   10  A    between atoms: C_22  and  C_23
REMARK   11  A    between atoms: C_23  and  C_25
REMARK   12  A    between atoms: C_31  and  O_32
REMARK   13  A    between atoms: C_35  and  O_36
REMARK                            x       y       z     vdW  Elec       q    Type
REMARK                         _______ _______ _______ _____ _____    ______ ____
ROOT
ATOM      1  C   UNL     1       1.338   3.935  20.411  0.00  0.00    +0.000 C 
ENDROOT
BRANCH   1   2
ATOM      2  O   UNL     1       1.080   4.062  19.006  0.00  0.00    +0.000 OA
ATOM      3  H   UNL     1       1.150   3.182  18.598  0.00  0.00    +0.000 HD
ENDBRANCH   1   2
BRANCH   1   4
ATOM      4  C   UNL     1       1.661   5.295  21.047  0.00  0.00    +0.000 C 
BRANCH   4   5
ATOM      5  O   UNL     1       2.519   6.033  20.177  0.00  0.00    +0.000 OA
BRANCH   5   9
ATOM      6  C   UNL     1       1.125   9.863  19.291  0.00  0.00    +0.000 A 
ATOM      7  C   UNL     1       0.856   9.227  20.512  0.00  0.00    +0.000 A 
ATOM      8  C   UNL     1       1.354   7.949  20.766  0.00  0.00    +0.000 A 
ATOM      9  C   UNL     1       2.078   7.268  19.790  0.00  0.00    +0.000 A 
ATOM     10  C   UNL     1       2.299   7.871  18.548  0.00  0.00    +0.000 A 
ATOM     11  C   UNL     1       1.830   9.169  18.306  0.00  0.00    +0.000 A 
BRANCH   6  13
ATOM     12  O   UNL     1      -0.542  11.474  18.815  0.00  0.00    +0.000 OA
ATOM     13  C   UNL     1       0.636  11.257  19.073  0.00  0.00    +0.000 C 
BRANCH  13  14
ATOM     14  C   UNL     1       1.566  12.412  19.242  0.00  0.00    +0.000 A 
ATOM     15  C   UNL     1       1.785  12.908  20.532  0.00  0.00    +0.000 A 
ATOM     16  C   UNL     1       2.700  13.941  20.737  0.00  0.00    +0.000 A 
ATOM     17  C   UNL     1       3.397  14.483  19.656  0.00  0.00    +0.000 A 
ATOM     18  C   UNL     1       3.164  14.008  18.365  0.00  0.00    +0.000 A 
ATOM     19  C   UNL     1       2.235  12.987  18.154  0.00  0.00    +0.000 A 
ENDBRANCH  13  14
ENDBRANCH   6  13
BRANCH  11  20
ATOM     20  O   UNL     1       2.126   9.758  17.109  0.00  0.00    +0.000 OA
ATOM     21  H   UNL     1       1.946   9.141  16.384  0.00  0.00    +0.000 HD
ENDBRANCH  11  20
ENDBRANCH   5   9
ENDBRANCH   4   5
ENDBRANCH   1   4
BRANCH   1  22
ATOM     22  C   UNL     1       2.506   2.968  20.607  0.00  0.00    +0.000 C 
BRANCH  22  23
ATOM     23  O   UNL     1       2.896   2.397  19.358  0.00  0.00    +0.000 OA
BRANCH  23  24
ATOM     24  C   UNL     1       3.826   3.100  18.642  0.00  0.00    +0.000 A 
ATOM     25  C   UNL     1       3.520   3.300  17.297  0.00  0.00    +0.000 A 
ATOM     26  C   UNL     1       4.388   4.023  16.474  0.00  0.00    +0.000 A 
ATOM     27  C   UNL     1       5.586   4.559  16.982  0.00  0.00    +0.000 A 
ATOM     28  C   UNL     1       5.873   4.370  18.340  0.00  0.00    +0.000 A 
ATOM     29  C   UNL     1       5.011   3.623  19.153  0.00  0.00    +0.000 A 
BRANCH  27  30
ATOM     30  C   UNL     1       6.411   5.342  16.024  0.00  0.00    +0.000 C 
ATOM     31  O   UNL     1       6.923   6.392  16.405  0.00  0.00    +0.000 OA
BRANCH  30  32
ATOM     32  C   UNL     1       6.673   4.909  14.626  0.00  0.00    +0.000 A 
ATOM     33  C   UNL     1       5.909   3.852  14.110  0.00  0.00    +0.000 A 
ATOM     34  C   UNL     1       6.064   3.459  12.780  0.00  0.00    +0.000 A 
ATOM     35  C   UNL     1       6.988   4.111  11.966  0.00  0.00    +0.000 A 
ATOM     36  C   UNL     1       7.780   5.135  12.486  0.00  0.00    +0.000 A 
ATOM     37  C   UNL     1       7.638   5.524  13.820  0.00  0.00    +0.000 A 
ENDBRANCH  30  32
ENDBRANCH  27  30
BRANCH  28  38
ATOM     38  O   UNL     1       6.945   4.891  19.017  0.00  0.00    +0.000 OA
ATOM     39  H   UNL     1       6.658   5.321  19.838  0.00  0.00    +0.000 HD
ENDBRANCH  28  38
ENDBRANCH  23  24
ENDBRANCH  22  23
ENDBRANCH   1  22
TORSDOF 13
ENDMDL
MODEL 4
REMARK VINA RESULT:      -8.5      1.157      1.524
REMARK  Name = 
REMARK  13 active torsions:
REMARK  status: ('A' for Active; 'I' for Inactive)
REMARK    1  A    between atoms: C_2  and  C_3
REMARK    2  A    between atoms: C_2  and  C_9
REMARK    3  A    between atoms: C_12  and  O_13
REMARK    4  A    between atoms: O_13  and  C_14
REMARK    5  A    between atoms: C_14  and  C_15
REMARK    6  A    between atoms: C_15  and  O_16
REMARK    7  A    between atoms: C_15  and  C_17
REMARK    8  A    between atoms: C_17  and  O_18
REMARK    9  A    between atoms: O_18  and  C_19
REMARK   10  A    between atoms: C_22  and  C_23
REMARK   11  A    between atoms: C_23  and  C_25
REMARK   12  A    between atoms: C_31  and  O_32
REMARK   13  A    between atoms: C_35  and  O_36
REMARK                            x       y       z     vdW  Elec       q    Type
REMARK                         _______ _______ _______ _____ _____    ______ ____
ROOT
ATOM      1  C   UNL     1       1.688   3.799  19.511  0.00  0.00    +0.000 C 
ENDROOT
BRANCH   1   2
ATOM      2  O   UNL     1       0.502   2.996  19.587  0.00  0.00    +0.000 OA
ATOM      3  H   UNL     1       0.744   2.118  19.929  0.00  0.00    +0.000 HD
ENDBRANCH   1   2
BRANCH   1   4
ATOM      4  C   UNL     1       2.940   2.934  19.306  0.00  0.00    +0.000 C 
BRANCH   4   5
ATOM      5  O   UNL     1       4.106   3.745  19.449  0.00  0.00    +0.000 OA
BRANCH   5   9
ATOM      6  C   UNL     1       6.029   4.459  15.818  0.00  0.00    +0.000 A 
ATOM      7  C   UNL     1       4.792   3.803  15.900  0.00  0.00    +0.000 A 
ATOM      8  C   UNL     1       4.183   3.598  17.137  0.00  0.00    +0.000 A 
ATOM      9  C   UNL     1       4.821   3.992  18.311  0.00  0.00    +0.000 A 
ATOM     10  C   UNL     1       6.082   4.592  18.243  0.00  0.00    +0.000 A 
ATOM     11  C   UNL     1       6.678   4.832  16.998  0.00  0.00    +0.000 A 
BRANCH   6  13
ATOM     12  O   UNL     1       7.488   5.584  14.332  0.00  0.00    +0.000 OA
ATOM     13  C   UNL     1       6.626   4.725  14.476  0.00  0.00    +0.000 C 
BRANCH  13  14
ATOM     14  C   UNL     1       6.234   3.889  13.304  0.00  0.00    +0.000 A 
ATOM     15  C   UNL     1       4.888   3.864  12.922  0.00  0.00    +0.000 A 
ATOM     16  C   UNL     1       4.496   3.149  11.789  0.00  0.00    +0.000 A 
ATOM     17  C   UNL     1       5.445   2.457  11.036  0.00  0.00    +0.000 A 
ATOM     18  C   UNL     1       6.784   2.459  11.427  0.00  0.00    +0.000 A 
ATOM     19  C   UNL     1       7.178   3.157  12.569  0.00  0.00    +0.000 A 
ENDBRANCH  13  14
ENDBRANCH   6  13
BRANCH  11  20
ATOM     20  O   UNL     1       7.877   5.486  16.961  0.00  0.00    +0.000 OA
ATOM     21  H   UNL     1       8.596   4.849  16.833  0.00  0.00    +0.000 HD
ENDBRANCH  11  20
ENDBRANCH   5   9
ENDBRANCH   4   5
ENDBRANCH   1   4
BRANCH   1  22
ATOM     22  C   UNL     1       1.811   4.610  20.801  0.00  0.00    +0.000 C 
BRANCH  22  23
ATOM     23  O   UNL     1       2.726   5.691  20.625  0.00  0.00    +0.000 OA
BRANCH  23  24
ATOM     24  C   UNL     1       2.204   6.839  20.098  0.00  0.00    +0.000 A 
ATOM     25  C   UNL     1       1.384   7.574  20.954  0.00  0.00    +0.000 A 
ATOM     26  C   UNL     1       0.813   8.776  20.527  0.00  0.00    +0.000 A 
ATOM     27  C   UNL     1       1.049   9.268  19.231  0.00  0.00    +0.000 A 
ATOM     28  C   UNL     1       1.891   8.534  18.386  0.00  0.00    +0.000 A 
ATOM     29  C   UNL     1       2.440   7.317  18.811  0.00  0.00    +0.000 A 
BRANCH  27  30
ATOM     30  C   UNL     1       0.419  10.575  18.902  0.00  0.00    +0.000 C 
ATOM     31  O   UNL     1       1.096  11.596  18.997  0.00  0.00    +0.000 OA
BRANCH  30  32
ATOM     32  C   UNL     1      -0.986  10.714  18.438  0.00  0.00    +0.000 A 
ATOM     33  C   UNL     1      -1.810  11.636  19.101  0.00  0.00    +0.000 A 
ATOM     34  C   UNL     1      -3.113  11.859  18.656  0.00  0.00    +0.000 A 
ATOM     35  C   UNL     1      -3.602  11.154  17.557  0.00  0.00    +0.000 A 
ATOM     36  C   UNL     1      -2.801  10.206  16.921  0.00  0.00    +0.000 A 
ATOM     37  C   UNL     1      -1.499   9.970  17.371  0.00  0.00    +0.000 A 
ENDBRANCH  30  32
ENDBRANCH  27  30
BRANCH  28  38
ATOM     38  O   UNL     1       2.295   8.905  17.130  0.00  0.00    +0.000 OA
ATOM     39  H   UNL     1       3.112   8.443  16.881  0.00  0.00    +0.000 HD
ENDBRANCH  28  38
ENDBRANCH  23  24
ENDBRANCH  22  23
ENDBRANCH   1  22
TORSDOF 13
ENDMDL
MODEL 5
REMARK VINA RESULT:      -8.5      1.485      9.986
REMARK  Name = 
REMARK  13 active torsions:
REMARK  status: ('A' for Active; 'I' for Inactive)
REMARK    1  A    between atoms: C_2  and  C_3
REMARK    2  A    between atoms: C_2  and  C_9
REMARK    3  A    between atoms: C_12  and  O_13
REMARK    4  A    between atoms: O_13  and  C_14
REMARK    5  A    between atoms: C_14  and  C_15
REMARK    6  A    between atoms: C_15  and  O_16
REMARK    7  A    between atoms: C_15  and  C_17
REMARK    8  A    between atoms: C_17  and  O_18
REMARK    9  A    between atoms: O_18  and  C_19
REMARK   10  A    between atoms: C_22  and  C_23
REMARK   11  A    between atoms: C_23  and  C_25
REMARK   12  A    between atoms: C_31  and  O_32
REMARK   13  A    between atoms: C_35  and  O_36
REMARK                            x       y       z     vdW  Elec       q    Type
REMARK                         _______ _______ _______ _____ _____    ______ ____
ROOT
ATOM      1  C   UNL     1       2.219   4.417  20.809  0.00  0.00    +0.000 C 
ENDROOT
BRANCH   1   2
ATOM      2  O   UNL     1       2.086   3.486  21.891  0.00  0.00    +0.000 OA
ATOM      3  H   UNL     1       1.767   3.966  22.675  0.00  0.00    +0.000 HD
ENDBRANCH   1   2
BRANCH   1   4
ATOM      4  C   UNL     1       1.537   5.755  21.133  0.00  0.00    +0.000 C 
BRANCH   4   5
ATOM      5  O   UNL     1       2.225   6.811  20.461  0.00  0.00    +0.000 OA
BRANCH   5   9
ATOM      6  C   UNL     1      -0.048  10.274  19.976  0.00  0.00    +0.000 A 
ATOM      7  C   UNL     1      -0.175   9.440  21.097  0.00  0.00    +0.000 A 
ATOM      8  C   UNL     1       0.616   8.298  21.219  0.00  0.00    +0.000 A 
ATOM      9  C   UNL     1       1.502   7.943  20.205  0.00  0.00    +0.000 A 
ATOM     10  C   UNL     1       1.590   8.735  19.057  0.00  0.00    +0.000 A 
ATOM     11  C   UNL     1       0.823   9.903  18.950  0.00  0.00    +0.000 A 
BRANCH   6  13
ATOM     12  O   UNL     1      -1.505  11.796  18.897  0.00  0.00    +0.000 OA
ATOM     13  C   UNL     1      -0.860  11.525  19.903  0.00  0.00    +0.000 C 
BRANCH  13  14
ATOM     14  C   UNL     1      -0.957  12.425  21.090  0.00  0.00    +0.000 A 
ATOM     15  C   UNL     1       0.018  13.414  21.259  0.00  0.00    +0.000 A 
ATOM     16  C   UNL     1      -0.079  14.316  22.319  0.00  0.00    +0.000 A 
ATOM     17  C   UNL     1      -1.149  14.234  23.211  0.00  0.00    +0.000 A 
ATOM     18  C   UNL     1      -2.110  13.235  23.061  0.00  0.00    +0.000 A 
ATOM     19  C   UNL     1      -2.006  12.318  22.014  0.00  0.00    +0.000 A 
ENDBRANCH  13  14
ENDBRANCH   6  13
BRANCH  11  20
ATOM     20  O   UNL     1       0.986  10.694  17.848  0.00  0.00    +0.000 OA
ATOM     21  H   UNL     1       1.371  11.545  18.107  0.00  0.00    +0.000 HD
ENDBRANCH  11  20
ENDBRANCH   5   9
ENDBRANCH   4   5
ENDBRANCH   1   4
BRANCH   1  22
ATOM     22  C   UNL     1       1.601   3.798  19.555  0.00  0.00    +0.000 C 
BRANCH  22  23
ATOM     23  O   UNL     1       1.712   4.695  18.450  0.00  0.00    +0.000 OA
BRANCH  23  24
ATOM     24  C   UNL     1       2.944   4.771  17.861  0.00  0.00    +0.000 A 
ATOM     25  C   UNL     1       3.461   3.563  17.394  0.00  0.00    +0.000 A 
ATOM     26  C   UNL     1       4.704   3.525  16.755  0.00  0.00    +0.000 A 
ATOM     27  C   UNL     1       5.458   4.699  16.572  0.00  0.00    +0.000 A 
ATOM     28  C   UNL     1       4.919   5.910  17.026  0.00  0.00    +0.000 A 
ATOM     29  C   UNL     1       3.685   5.937  17.688  0.00  0.00    +0.000 A 
BRANCH  27  30
ATOM     30  C   UNL     1       6.746   4.543  15.846  0.00  0.00    +0.000 C 
ATOM     31  O   UNL     1       7.782   4.438  16.498  0.00  0.00    +0.000 OA
BRANCH  30  32
ATOM     32  C   UNL     1       6.849   4.481  14.364  0.00  0.00    +0.000 A 
ATOM     33  C   UNL     1       7.705   5.391  13.726  0.00  0.00    +0.000 A 
ATOM     34  C   UNL     1       7.894   5.324  12.345  0.00  0.00    +0.000 A 
ATOM     35  C   UNL     1       7.222   4.359  11.597  0.00  0.00    +0.000 A 
ATOM     36  C   UNL     1       6.338   3.480  12.222  0.00  0.00    +0.000 A 
ATOM     37  C   UNL     1       6.135   3.550  13.602  0.00  0.00    +0.000 A 
ENDBRANCH  30  32
ENDBRANCH  27  30
BRANCH  28  38
ATOM     38  O   UNL     1       5.474   7.152  16.857  0.00  0.00    +0.000 OA
ATOM     39  H   UNL     1       5.516   7.627  17.702  0.00  0.00    +0.000 HD
ENDBRANCH  28  38
ENDBRANCH  23  24
ENDBRANCH  22  23
ENDBRANCH   1  22
TORSDOF 13
ENDMDL
MODEL 6
REMARK VINA RESULT:      -8.5      1.121      1.806
REMARK  Name = 
REMARK  13 active torsions:
REMARK  status: ('A' for Active; 'I' for Inactive)
REMARK    1  A    between atoms: C_2  and  C_3
REMARK    2  A    between atoms: C_2  and  C_9
REMARK    3  A    between atoms: C_12  and  O_13
REMARK    4  A    between atoms: O_13  and  C_14
REMARK    5  A    between atoms: C_14  and  C_15
REMARK    6  A    between atoms: C_15  and  O_16
REMARK    7  A    between atoms: C_15  and  C_17
REMARK    8  A    between atoms: C_17  and  O_18
REMARK    9  A    between atoms: O_18  and  C_19
REMARK   10  A    between atoms: C_22  and  C_23
REMARK   11  A    between atoms: C_23  and  C_25
REMARK   12  A    between atoms: C_31  and  O_32
REMARK   13  A    between atoms: C_35  and  O_36
REMARK                            x       y       z     vdW  Elec       q    Type
REMARK                         _______ _______ _______ _____ _____    ______ ____
ROOT
ATOM      1  C   UNL     1       2.540   5.156  20.653  0.00  0.00    +0.000 C 
ENDROOT
BRANCH   1   2
ATOM      2  O   UNL     1       3.573   5.970  20.081  0.00  0.00    +0.000 OA
ATOM      3  H   UNL     1       4.356   5.927  20.657  0.00  0.00    +0.000 HD
ENDBRANCH   1   2
BRANCH   1   4
ATOM      4  C   UNL     1       2.104   4.042  19.690  0.00  0.00    +0.000 C 
BRANCH   4   5
ATOM      5  O   UNL     1       3.210   3.174  19.439  0.00  0.00    +0.000 OA
BRANCH   5   9
ATOM      6  C   UNL     1       5.909   4.707  16.654  0.00  0.00    +0.000 A 
ATOM      7  C   UNL     1       4.552   4.507  16.358  0.00  0.00    +0.000 A 
ATOM      8  C   UNL     1       3.686   4.003  17.327  0.00  0.00    +0.000 A 
ATOM      9  C   UNL     1       4.168   3.639  18.583  0.00  0.00    +0.000 A 
ATOM     10  C   UNL     1       5.530   3.777  18.865  0.00  0.00    +0.000 A 
ATOM     11  C   UNL     1       6.394   4.319  17.905  0.00  0.00    +0.000 A 
BRANCH   6  13
ATOM     12  O   UNL     1       7.607   6.183  15.919  0.00  0.00    +0.000 OA
ATOM     13  C   UNL     1       6.800   5.311  15.619  0.00  0.00    +0.000 C 
BRANCH  13  14
ATOM     14  C   UNL     1       6.770   4.802  14.217  0.00  0.00    +0.000 A 
ATOM     15  C   UNL     1       7.661   5.352  13.288  0.00  0.00    +0.000 A 
ATOM     16  C   UNL     1       7.708   4.853  11.986  0.00  0.00    +0.000 A 
ATOM     17  C   UNL     1       6.868   3.806  11.607  0.00  0.00    +0.000 A 
ATOM     18  C   UNL     1       5.962   3.271  12.522  0.00  0.00    +0.000 A 
ATOM     19  C   UNL     1       5.897   3.779  13.820  0.00  0.00    +0.000 A 
ENDBRANCH  13  14
ENDBRANCH   6  13
BRANCH  11  20
ATOM     20  O   UNL     1       7.706   4.509  18.238  0.00  0.00    +0.000 OA
ATOM     21  H   UNL     1       7.771   5.124  18.983  0.00  0.00    +0.000 HD
ENDBRANCH  11  20
ENDBRANCH   5   9
ENDBRANCH   4   5
ENDBRANCH   1   4
BRANCH   1  22
ATOM     22  C   UNL     1       1.351   6.051  21.001  0.00  0.00    +0.000 C 
BRANCH  22  23
ATOM     23  O   UNL     1       1.788   7.385  21.259  0.00  0.00    +0.000 OA
BRANCH  23  24
ATOM     24  C   UNL     1       1.223   8.361  20.486  0.00  0.00    +0.000 A 
ATOM     25  C   UNL     1       0.122   9.007  21.047  0.00  0.00    +0.000 A 
ATOM     26  C   UNL     1      -0.523  10.036  20.356  0.00  0.00    +0.000 A 
ATOM     27  C   UNL     1      -0.079  10.440  19.083  0.00  0.00    +0.000 A 
ATOM     28  C   UNL     1       1.041   9.800  18.538  0.00  0.00    +0.000 A 
ATOM     29  C   UNL     1       1.667   8.752  19.225  0.00  0.00    +0.000 A 
BRANCH  27  30
ATOM     30  C   UNL     1      -0.819  11.570  18.460  0.00  0.00    +0.000 C 
ATOM     31  O   UNL     1      -0.276  12.672  18.405  0.00  0.00    +0.000 OA
BRANCH  30  32
ATOM     32  C   UNL     1      -2.178  11.436  17.875  0.00  0.00    +0.000 A 
ATOM     33  C   UNL     1      -3.277  11.782  18.675  0.00  0.00    +0.000 A 
ATOM     34  C   UNL     1      -4.568  11.746  18.148  0.00  0.00    +0.000 A 
ATOM     35  C   UNL     1      -4.768  11.354  16.825  0.00  0.00    +0.000 A 
ATOM     36  C   UNL     1      -3.682  10.969  16.038  0.00  0.00    +0.000 A 
ATOM     37  C   UNL     1      -2.389  10.991  16.565  0.00  0.00    +0.000 A 
ENDBRANCH  30  32
ENDBRANCH  27  30
BRANCH  28  38
ATOM     38  O   UNL     1       1.656  10.120  17.356  0.00  0.00    +0.000 OA
ATOM     39  H   UNL     1       2.567  10.416  17.512  0.00  0.00    +0.000 HD
ENDBRANCH  28  38
ENDBRANCH  23  24
ENDBRANCH  22  23
ENDBRANCH   1  22
TORSDOF 13
ENDMDL
MODEL 7
REMARK VINA RESULT:      -8.5      1.351      9.560
REMARK  Name = 
REMARK  13 active torsions:
REMARK  status: ('A' for Active; 'I' for Inactive)
REMARK    1  A    between atoms: C_2  and  C_3
REMARK    2  A    between atoms: C_2  and  C_9
REMARK    3  A    between atoms: C_12  and  O_13
REMARK    4  A    between atoms: O_13  and  C_14
REMARK    5  A    between atoms: C_14  and  C_15
REMARK    6  A    between atoms: C_15  and  O_16
REMARK    7  A    between atoms: C_15  and  C_17
REMARK    8  A    between atoms: C_17  and  O_18
REMARK    9  A    between atoms: O_18  and  C_19
REMARK   10  A    between atoms: C_22  and  C_23
REMARK   11  A    between atoms: C_23  and  C_25
REMARK   12  A    between atoms: C_31  and  O_32
REMARK   13  A    between atoms: C_35  and  O_36
REMARK                            x       y       z     vdW  Elec       q    Type
REMARK                         _______ _______ _______ _____ _____    ______ ____
ROOT
ATOM      1  C   UNL     1       2.659   3.608  20.201  0.00  0.00    +0.000 C 
ENDROOT
BRANCH   1   2
ATOM      2  O   UNL     1       1.964   2.390  19.903  0.00  0.00    +0.000 OA
ATOM      3  H   UNL     1       1.025   2.506  20.128  0.00  0.00    +0.000 HD
ENDBRANCH   1   2
BRANCH   1   4
ATOM      4  C   UNL     1       1.802   4.839  19.868  0.00  0.00    +0.000 C 
BRANCH   4   5
ATOM      5  O   UNL     1       2.350   5.987  20.516  0.00  0.00    +0.000 OA
BRANCH   5   9
ATOM      6  C   UNL     1       0.916   9.767  19.492  0.00  0.00    +0.000 A 
ATOM      7  C   UNL     1       0.615   9.153  20.717  0.00  0.00    +0.000 A 
ATOM      8  C   UNL     1       1.129   7.892  21.018  0.00  0.00    +0.000 A 
ATOM      9  C   UNL     1       1.900   7.204  20.085  0.00  0.00    +0.000 A 
ATOM     10  C   UNL     1       2.153   7.782  18.838  0.00  0.00    +0.000 A 
ATOM     11  C   UNL     1       1.669   9.065  18.548  0.00  0.00    +0.000 A 
BRANCH   6  13
ATOM     12  O   UNL     1       1.183  12.087  19.105  0.00  0.00    +0.000 OA
ATOM     13  C   UNL     1       0.408  11.145  19.223  0.00  0.00    +0.000 C 
BRANCH  13  14
ATOM     14  C   UNL     1      -1.052  11.378  19.018  0.00  0.00    +0.000 A 
ATOM     15  C   UNL     1      -1.720  10.620  18.050  0.00  0.00    +0.000 A 
ATOM     16  C   UNL     1      -3.097  10.763  17.879  0.00  0.00    +0.000 A 
ATOM     17  C   UNL     1      -3.811  11.661  18.673  0.00  0.00    +0.000 A 
ATOM     18  C   UNL     1      -3.146  12.437  19.622  0.00  0.00    +0.000 A 
ATOM     19  C   UNL     1      -1.765  12.311  19.784  0.00  0.00    +0.000 A 
ENDBRANCH  13  14
ENDBRANCH   6  13
BRANCH  11  20
ATOM     20  O   UNL     1       1.996   9.633  17.350  0.00  0.00    +0.000 OA
ATOM     21  H   UNL     1       1.968  10.598  17.423  0.00  0.00    +0.000 HD
ENDBRANCH  11  20
ENDBRANCH   5   9
ENDBRANCH   4   5
ENDBRANCH   1   4
BRANCH   1  22
ATOM     22  C   UNL     1       3.960   3.636  19.399  0.00  0.00    +0.000 C 
BRANCH  22  23
ATOM     23  O   UNL     1       4.188   4.939  18.862  0.00  0.00    +0.000 OA
BRANCH  23  24
ATOM     24  C   UNL     1       4.759   4.985  17.621  0.00  0.00    +0.000 A 
ATOM     25  C   UNL     1       5.311   3.787  17.171  0.00  0.00    +0.000 A 
ATOM     26  C   UNL     1       5.903   3.712  15.907  0.00  0.00    +0.000 A 
ATOM     27  C   UNL     1       5.956   4.838  15.066  0.00  0.00    +0.000 A 
ATOM     28  C   UNL     1       5.379   6.031  15.519  0.00  0.00    +0.000 A 
ATOM     29  C   UNL     1       4.810   6.107  16.797  0.00  0.00    +0.000 A 
BRANCH  27  30
ATOM     30  C   UNL     1       6.575   4.629  13.730  0.00  0.00    +0.000 C 
ATOM     31  O   UNL     1       7.577   5.277  13.436  0.00  0.00    +0.000 OA
BRANCH  30  32
ATOM     32  C   UNL     1       6.060   3.655  12.732  0.00  0.00    +0.000 A 
ATOM     33  C   UNL     1       4.728   3.786  12.312  0.00  0.00    +0.000 A 
ATOM     34  C   UNL     1       4.219   2.945  11.322  0.00  0.00    +0.000 A 
ATOM     35  C   UNL     1       5.033   1.966  10.756  0.00  0.00    +0.000 A 
ATOM     36  C   UNL     1       6.346   1.805  11.199  0.00  0.00    +0.000 A 
ATOM     37  C   UNL     1       6.856   2.635  12.200  0.00  0.00    +0.000 A 
ENDBRANCH  30  32
ENDBRANCH  27  30
BRANCH  28  38
ATOM     38  O   UNL     1       5.266   7.195  14.803  0.00  0.00    +0.000 OA
ATOM     39  H   UNL     1       5.212   7.009  13.852  0.00  0.00    +0.000 HD
ENDBRANCH  28  38
ENDBRANCH  23  24
ENDBRANCH  22  23
ENDBRANCH   1  22
TORSDOF 13
ENDMDL
MODEL 8
REMARK VINA RESULT:      -8.5      1.132      9.801
REMARK  Name = 
REMARK  13 active torsions:
REMARK  status: ('A' for Active; 'I' for Inactive)
REMARK    1  A    between atoms: C_2  and  C_3
REMARK    2  A    between atoms: C_2  and  C_9
REMARK    3  A    between atoms: C_12  and  O_13
REMARK    4  A    between atoms: O_13  and  C_14
REMARK    5  A    between atoms: C_14  and  C_15
REMARK    6  A    between atoms: C_15  and  O_16
REMARK    7  A    between atoms: C_15  and  C_17
REMARK    8  A    between atoms: C_17  and  O_18
REMARK    9  A    between atoms: O_18  and  C_19
REMARK   10  A    between atoms: C_22  and  C_23
REMARK   11  A    between atoms: C_23  and  C_25
REMARK   12  A    between atoms: C_31  and  O_32
REMARK   13  A    between atoms: C_35  and  O_36
REMARK                            x       y       z     vdW  Elec       q    Type
REMARK                         _______ _______ _______ _____ _____    ______ ____
ROOT
ATOM      1  C   UNL     1       2.720   4.060  20.552  0.00  0.00    +0.000 C 
ENDROOT
BRANCH   1   2
ATOM      2  O   UNL     1       2.110   2.771  20.401  0.00  0.00    +0.000 OA
ATOM      3  H   UNL     1       1.659   2.741  19.540  0.00  0.00    +0.000 HD
ENDBRANCH   1   2
BRANCH   1   4
ATOM      4  C   UNL     1       1.785   5.182  20.078  0.00  0.00    +0.000 C 
BRANCH   4   5
ATOM      5  O   UNL     1       1.984   6.339  20.892  0.00  0.00    +0.000 OA
BRANCH   5   9
ATOM      6  C   UNL     1       0.674  10.066  19.557  0.00  0.00    +0.000 A 
ATOM      7  C   UNL     1       0.258   9.514  20.777  0.00  0.00    +0.000 A 
ATOM      8  C   UNL     1       0.733   8.268  21.186  0.00  0.00    +0.000 A 
ATOM      9  C   UNL     1       1.583   7.533  20.362  0.00  0.00    +0.000 A 
ATOM     10  C   UNL     1       1.954   8.050  19.117  0.00  0.00    +0.000 A 
ATOM     11  C   UNL     1       1.506   9.317  18.722  0.00  0.00    +0.000 A 
BRANCH   6  13
ATOM     12  O   UNL     1       0.951  12.218  18.610  0.00  0.00    +0.000 OA
ATOM     13  C   UNL     1       0.201  11.430  19.175  0.00  0.00    +0.000 C 
BRANCH  13  14
ATOM     14  C   UNL     1      -1.219  11.823  19.409  0.00  0.00    +0.000 A 
ATOM     15  C   UNL     1      -1.502  12.716  20.450  0.00  0.00    +0.000 A 
ATOM     16  C   UNL     1      -2.810  13.158  20.654  0.00  0.00    +0.000 A 
ATOM     17  C   UNL     1      -3.837  12.712  19.822  0.00  0.00    +0.000 A 
ATOM     18  C   UNL     1      -3.564  11.804  18.799  0.00  0.00    +0.000 A 
ATOM     19  C   UNL     1      -2.261  11.344  18.603  0.00  0.00    +0.000 A 
ENDBRANCH  13  14
ENDBRANCH   6  13
BRANCH  11  20
ATOM     20  O   UNL     1       1.946   9.824  17.532  0.00  0.00    +0.000 OA
ATOM     21  H   UNL     1       2.877   9.595  17.399  0.00  0.00    +0.000 HD
ENDBRANCH  11  20
ENDBRANCH   5   9
ENDBRANCH   4   5
ENDBRANCH   1   4
BRANCH   1  22
ATOM     22  C   UNL     1       4.022   4.080  19.750  0.00  0.00    +0.000 C 
BRANCH  22  23
ATOM     23  O   UNL     1       4.145   5.307  19.031  0.00  0.00    +0.000 OA
BRANCH  23  24
ATOM     24  C   UNL     1       4.910   5.264  17.899  0.00  0.00    +0.000 A 
ATOM     25  C   UNL     1       4.452   4.409  16.898  0.00  0.00    +0.000 A 
ATOM     26  C   UNL     1       5.143   4.300  15.688  0.00  0.00    +0.000 A 
ATOM     27  C   UNL     1       6.313   5.047  15.456  0.00  0.00    +0.000 A 
ATOM     28  C   UNL     1       6.753   5.919  16.459  0.00  0.00    +0.000 A 
ATOM     29  C   UNL     1       6.070   6.003  17.679  0.00  0.00    +0.000 A 
BRANCH  27  30
ATOM     30  C   UNL     1       6.941   4.879  14.118  0.00  0.00    +0.000 C 
ATOM     31  O   UNL     1       7.995   5.465  13.883  0.00  0.00    +0.000 OA
BRANCH  30  32
ATOM     32  C   UNL     1       6.374   4.015  13.049  0.00  0.00    +0.000 A 
ATOM     33  C   UNL     1       7.256   3.200  12.324  0.00  0.00    +0.000 A 
ATOM     34  C   UNL     1       6.764   2.317  11.363  0.00  0.00    +0.000 A 
ATOM     35  C   UNL     1       5.394   2.251  11.115  0.00  0.00    +0.000 A 
ATOM     36  C   UNL     1       4.517   3.089  11.805  0.00  0.00    +0.000 A 
ATOM     37  C   UNL     1       5.006   3.985  12.758  0.00  0.00    +0.000 A 
ENDBRANCH  30  32
ENDBRANCH  27  30
BRANCH  28  38
ATOM     38  O   UNL     1       7.817   6.778  16.370  0.00  0.00    +0.000 OA
ATOM     39  H   UNL     1       8.534   6.500  16.963  0.00  0.00    +0.000 HD
ENDBRANCH  28  38
ENDBRANCH  23  24
ENDBRANCH  22  23
ENDBRANCH   1  22
TORSDOF 13
ENDMDL
MODEL 9
REMARK VINA RESULT:      -8.4      1.553      2.107
REMARK  Name = 
REMARK  13 active torsions:
REMARK  status: ('A' for Active; 'I' for Inactive)
REMARK    1  A    between atoms: C_2  and  C_3
REMARK    2  A    between atoms: C_2  and  C_9
REMARK    3  A    between atoms: C_12  and  O_13
REMARK    4  A    between atoms: O_13  and  C_14
REMARK    5  A    between atoms: C_14  and  C_15
REMARK    6  A    between atoms: C_15  and  O_16
REMARK    7  A    between atoms: C_15  and  C_17
REMARK    8  A    between atoms: C_17  and  O_18
REMARK    9  A    between atoms: O_18  and  C_19
REMARK   10  A    between atoms: C_22  and  C_23
REMARK   11  A    between atoms: C_23  and  C_25
REMARK   12  A    between atoms: C_31  and  O_32
REMARK   13  A    between atoms: C_35  and  O_36
REMARK                            x       y       z     vdW  Elec       q    Type
REMARK                         _______ _______ _______ _____ _____    ______ ____
ROOT
ATOM      1  C   UNL     1       2.059   3.798  19.786  0.00  0.00    +0.000 C 
ENDROOT
BRANCH   1   2
ATOM      2  O   UNL     1       0.804   3.283  19.322  0.00  0.00    +0.000 OA
ATOM      3  H   UNL     1       0.134   3.983  19.400  0.00  0.00    +0.000 HD
ENDBRANCH   1   2
BRANCH   1   4
ATOM      4  C   UNL     1       2.784   2.784  20.684  0.00  0.00    +0.000 C 
BRANCH   4   5
ATOM      5  O   UNL     1       4.042   2.447  20.099  0.00  0.00    +0.000 OA
BRANCH   5   9
ATOM      6  C   UNL     1       5.113   4.779  16.811  0.00  0.00    +0.000 A 
ATOM      7  C   UNL     1       4.246   3.680  16.707  0.00  0.00    +0.000 A 
ATOM      8  C   UNL     1       3.909   2.938  17.838  0.00  0.00    +0.000 A 
ATOM      9  C   UNL     1       4.471   3.244  19.075  0.00  0.00    +0.000 A 
ATOM     10  C   UNL     1       5.383   4.299  19.177  0.00  0.00    +0.000 A 
ATOM     11  C   UNL     1       5.693   5.069  18.048  0.00  0.00    +0.000 A 
BRANCH   6  13
ATOM     12  O   UNL     1       5.215   6.807  15.595  0.00  0.00    +0.000 OA
ATOM     13  C   UNL     1       5.404   5.596  15.596  0.00  0.00    +0.000 C 
BRANCH  13  14
ATOM     14  C   UNL     1       6.003   4.955  14.389  0.00  0.00    +0.000 A 
ATOM     15  C   UNL     1       5.249   4.002  13.695  0.00  0.00    +0.000 A 
ATOM     16  C   UNL     1       5.750   3.433  12.523  0.00  0.00    +0.000 A 
ATOM     17  C   UNL     1       7.003   3.813  12.042  0.00  0.00    +0.000 A 
ATOM     18  C   UNL     1       7.769   4.744  12.743  0.00  0.00    +0.000 A 
ATOM     19  C   UNL     1       7.280   5.301  13.926  0.00  0.00    +0.000 A 
ENDBRANCH  13  14
ENDBRANCH   6  13
BRANCH  11  20
ATOM     20  O   UNL     1       6.531   6.138  18.195  0.00  0.00    +0.000 OA
ATOM     21  H   UNL     1       6.896   6.150  19.092  0.00  0.00    +0.000 HD
ENDBRANCH  11  20
ENDBRANCH   5   9
ENDBRANCH   4   5
ENDBRANCH   1   4
BRANCH   1  22
ATOM     22  C   UNL     1       1.801   5.095  20.552  0.00  0.00    +0.000 C 
BRANCH  22  23
ATOM     23  O   UNL     1       2.669   6.129  20.089  0.00  0.00    +0.000 OA
BRANCH  23  24
ATOM     24  C   UNL     1       2.083   7.340  19.845  0.00  0.00    +0.000 A 
ATOM     25  C   UNL     1       1.344   7.872  20.901  0.00  0.00    +0.000 A 
ATOM     26  C   UNL     1       0.718   9.115  20.771  0.00  0.00    +0.000 A 
ATOM     27  C   UNL     1       0.817   9.852  19.577  0.00  0.00    +0.000 A 
ATOM     28  C   UNL     1       1.579   9.318  18.530  0.00  0.00    +0.000 A 
ATOM     29  C   UNL     1       2.183   8.061  18.658  0.00  0.00    +0.000 A 
BRANCH  27  30
ATOM     30  C   UNL     1       0.142  11.177  19.568  0.00  0.00    +0.000 C 
ATOM     31  O   UNL     1      -1.054  11.229  19.292  0.00  0.00    +0.000 OA
BRANCH  30  32
ATOM     32  C   UNL     1       0.834  12.450  19.901  0.00  0.00    +0.000 A 
ATOM     33  C   UNL     1       0.508  13.079  21.112  0.00  0.00    +0.000 A 
ATOM     34  C   UNL     1       1.182  14.234  21.506  0.00  0.00    +0.000 A 
ATOM     35  C   UNL     1       2.176  14.772  20.689  0.00  0.00    +0.000 A 
ATOM     36  C   UNL     1       2.475  14.174  19.465  0.00  0.00    +0.000 A 
ATOM     37  C   UNL     1       1.792  13.024  19.059  0.00  0.00    +0.000 A 
ENDBRANCH  30  32
ENDBRANCH  27  30
BRANCH  28  38
ATOM     38  O   UNL     1       1.850   9.934  17.336  0.00  0.00    +0.000 OA
ATOM     39  H   UNL     1       1.972   9.278  16.631  0.00  0.00    +0.000 HD
ENDBRANCH  28  38
ENDBRANCH  23  24
ENDBRANCH  22  23
ENDBRANCH   1  22
TORSDOF 13
ENDMDL
