MODEL 1
REMARK VINA RESULT:      -7.0      0.000      0.000
REMARK  Name = 
REMARK  3 active torsions:
REMARK  status: ('A' for Active; 'I' for Inactive)
REMARK    1  A    between atoms: N_4  and  C_5
REMARK    2  A    between atoms: N_12  and  C_13
REMARK    3  A    between atoms: C_13  and  C_14
REMARK                            x       y       z     vdW  Elec       q    Type
REMARK                         _______ _______ _______ _____ _____    ______ ____
ROOT
ATOM      1  O   UNL     1       8.056   4.613  18.822  0.00  0.00    +0.000 OA
ATOM      2  C   UNL     1       7.335   4.827  17.858  0.00  0.00    +0.000 C 
ATOM      3  C   UNL     1       7.724   4.553  16.421  0.00  0.00    +0.000 C 
ATOM      4  N   UNL     1       6.528   4.970  15.728  0.00  0.00    +0.000 N 
ATOM      5  C   UNL     1       5.578   5.473  16.613  0.00  0.00    +0.000 C 
ATOM      6  O   UNL     1       4.503   5.950  16.298  0.00  0.00    +0.000 OA
ATOM      7  N   UNL     1       6.074   5.344  17.883  0.00  0.00    +0.000 N 
ENDROOT
BRANCH   4   8
ATOM      8  C   UNL     1       6.387   4.962  14.278  0.00  0.00    +0.000 C 
ATOM      9  C   UNL     1       7.692   5.116  13.498  0.00  0.00    +0.000 C 
ATOM     10  C   UNL     1       7.353   4.633  12.098  0.00  0.00    +0.000 C 
ATOM     11  C   UNL     1       6.268   3.577  12.276  0.00  0.00    +0.000 C 
ATOM     12  C   UNL     1       5.829   3.641  13.739  0.00  0.00    +0.000 C 
ENDBRANCH   4   8
BRANCH   7  13
ATOM     13  C   UNL     1       5.374   5.737  19.091  0.00  0.00    +0.000 C 
BRANCH  13  14
ATOM     14  C   UNL     1       4.113   4.924  19.313  0.00  0.00    +0.000 A 
ATOM     15  C   UNL     1       4.222   3.527  19.471  0.00  0.00    +0.000 A 
ATOM     16  C   UNL     1       3.085   2.723  19.587  0.00  0.00    +0.000 A 
ATOM     17  C   UNL     1       1.824   3.309  19.577  0.00  0.00    +0.000 A 
ATOM     18 CL   UNL     1       0.422   2.318  19.669  0.00  0.00    +0.000 Cl
ATOM     19  C   UNL     1       1.692   4.690  19.486  0.00  0.00    +0.000 A 
ATOM     20  C   UNL     1       2.829   5.495  19.357  0.00  0.00    +0.000 A 
ATOM     21 CL   UNL     1       2.574   7.201  19.273  0.00  0.00    +0.000 Cl
ENDBRANCH  13  14
ENDBRANCH   7  13
TORSDOF 3
ENDMDL
MODEL 2
REMARK VINA RESULT:      -6.8      5.629      7.581
REMARK  Name = 
REMARK  3 active torsions:
REMARK  status: ('A' for Active; 'I' for Inactive)
REMARK    1  A    between atoms: N_4  and  C_5
REMARK    2  A    between atoms: N_12  and  C_13
REMARK    3  A    between atoms: C_13  and  C_14
REMARK                            x       y       z     vdW  Elec       q    Type
REMARK                         _______ _______ _______ _____ _____    ______ ____
ROOT
ATOM      1  O   UNL     1       0.507   9.470  21.417  0.00  0.00    +0.000 OA
ATOM      2  C   UNL     1       1.070   8.959  20.460  0.00  0.00    +0.000 C 
ATOM      3  C   UNL     1       1.693   7.580  20.470  0.00  0.00    +0.000 C 
ATOM      4  N   UNL     1       2.188   7.491  19.116  0.00  0.00    +0.000 N 
ATOM      5  C   UNL     1       1.948   8.667  18.411  0.00  0.00    +0.000 C 
ATOM      6  O   UNL     1       2.311   8.893  17.270  0.00  0.00    +0.000 OA
ATOM      7  N   UNL     1       1.249   9.515  19.228  0.00  0.00    +0.000 N 
ENDROOT
BRANCH   4   8
ATOM      8  C   UNL     1       2.938   6.355  18.600  0.00  0.00    +0.000 C 
ATOM      9  C   UNL     1       3.688   5.540  19.654  0.00  0.00    +0.000 C 
ATOM     10  C   UNL     1       3.988   4.218  18.965  0.00  0.00    +0.000 C 
ATOM     11  C   UNL     1       2.847   4.000  17.977  0.00  0.00    +0.000 C 
ATOM     12  C   UNL     1       2.047   5.301  17.936  0.00  0.00    +0.000 C 
ENDBRANCH   4   8
BRANCH   7  13
ATOM     13  C   UNL     1       0.789  10.839  18.852  0.00  0.00    +0.000 C 
BRANCH  13  14
ATOM     14  C   UNL     1      -0.702  10.870  18.571  0.00  0.00    +0.000 A 
ATOM     15  C   UNL     1      -1.226  10.012  17.583  0.00  0.00    +0.000 A 
ATOM     16  C   UNL     1      -2.575  10.066  17.223  0.00  0.00    +0.000 A 
ATOM     17  C   UNL     1      -3.424  10.958  17.868  0.00  0.00    +0.000 A 
ATOM     18 CL   UNL     1      -5.074  11.062  17.393  0.00  0.00    +0.000 Cl
ATOM     19  C   UNL     1      -2.945  11.770  18.890  0.00  0.00    +0.000 A 
ATOM     20  C   UNL     1      -1.591  11.726  19.243  0.00  0.00    +0.000 A 
ATOM     21 CL   UNL     1      -1.087  12.752  20.537  0.00  0.00    +0.000 Cl
ENDBRANCH  13  14
ENDBRANCH   7  13
TORSDOF 3
ENDMDL
MODEL 3
REMARK VINA RESULT:      -6.8      3.259      6.836
REMARK  Name = 
REMARK  3 active torsions:
REMARK  status: ('A' for Active; 'I' for Inactive)
REMARK    1  A    between atoms: N_4  and  C_5
REMARK    2  A    between atoms: N_12  and  C_13
REMARK    3  A    between atoms: C_13  and  C_14
REMARK                            x       y       z     vdW  Elec       q    Type
REMARK                         _______ _______ _______ _____ _____    ______ ____
ROOT
ATOM      1  O   UNL     1       2.059   3.292  16.922  0.00  0.00    +0.000 OA
ATOM      2  C   UNL     1       2.497   4.179  17.640  0.00  0.00    +0.000 C 
ATOM      3  C   UNL     1       1.656   5.285  18.244  0.00  0.00    +0.000 C 
ATOM      4  N   UNL     1       2.656   6.017  18.985  0.00  0.00    +0.000 N 
ATOM      5  C   UNL     1       3.922   5.467  18.809  0.00  0.00    +0.000 C 
ATOM      6  O   UNL     1       4.958   5.916  19.267  0.00  0.00    +0.000 OA
ATOM      7  N   UNL     1       3.792   4.350  18.028  0.00  0.00    +0.000 N 
ENDROOT
BRANCH   4   8
ATOM      8  C   UNL     1       2.381   7.238  19.729  0.00  0.00    +0.000 C 
ATOM      9  C   UNL     1       1.732   8.361  18.918  0.00  0.00    +0.000 C 
ATOM     10  C   UNL     1       1.152   9.296  19.966  0.00  0.00    +0.000 C 
ATOM     11  C   UNL     1       0.787   8.410  21.153  0.00  0.00    +0.000 C 
ATOM     12  C   UNL     1       1.381   7.031  20.871  0.00  0.00    +0.000 C 
ENDBRANCH   4   8
BRANCH   7  13
ATOM     13  C   UNL     1       4.885   3.481  17.632  0.00  0.00    +0.000 C 
BRANCH  13  14
ATOM     14  C   UNL     1       5.638   4.019  16.430  0.00  0.00    +0.000 A 
ATOM     15  C   UNL     1       5.024   3.966  15.162  0.00  0.00    +0.000 A 
ATOM     16  C   UNL     1       5.709   4.365  14.011  0.00  0.00    +0.000 A 
ATOM     17  C   UNL     1       7.008   4.849  14.117  0.00  0.00    +0.000 A 
ATOM     18 CL   UNL     1       7.871   5.293  12.697  0.00  0.00    +0.000 Cl
ATOM     19  C   UNL     1       7.614   4.970  15.363  0.00  0.00    +0.000 A 
ATOM     20  C   UNL     1       6.933   4.560  16.515  0.00  0.00    +0.000 A 
ATOM     21 CL   UNL     1       7.751   4.766  18.021  0.00  0.00    +0.000 Cl
ENDBRANCH  13  14
ENDBRANCH   7  13
TORSDOF 3
ENDMDL
MODEL 4
REMARK VINA RESULT:      -6.7      1.331      2.369
REMARK  Name = 
REMARK  3 active torsions:
REMARK  status: ('A' for Active; 'I' for Inactive)
REMARK    1  A    between atoms: N_4  and  C_5
REMARK    2  A    between atoms: N_12  and  C_13
REMARK    3  A    between atoms: C_13  and  C_14
REMARK                            x       y       z     vdW  Elec       q    Type
REMARK                         _______ _______ _______ _____ _____    ______ ____
ROOT
ATOM      1  O   UNL     1       7.410   4.808  19.093  0.00  0.00    +0.000 OA
ATOM      2  C   UNL     1       6.797   4.643  18.048  0.00  0.00    +0.000 C 
ATOM      3  C   UNL     1       7.351   4.953  16.674  0.00  0.00    +0.000 C 
ATOM      4  N   UNL     1       6.240   4.567  15.836  0.00  0.00    +0.000 N 
ATOM      5  C   UNL     1       5.155   4.141  16.596  0.00  0.00    +0.000 C 
ATOM      6  O   UNL     1       4.067   3.817  16.156  0.00  0.00    +0.000 OA
ATOM      7  N   UNL     1       5.528   4.165  17.914  0.00  0.00    +0.000 N 
ENDROOT
BRANCH   4   8
ATOM      8  C   UNL     1       6.228   4.714  14.387  0.00  0.00    +0.000 C 
ATOM      9  C   UNL     1       7.551   5.168  13.770  0.00  0.00    +0.000 C 
ATOM     10  C   UNL     1       7.422   4.812  12.298  0.00  0.00    +0.000 C 
ATOM     11  C   UNL     1       6.520   3.583  12.248  0.00  0.00    +0.000 C 
ATOM     12  C   UNL     1       5.952   3.398  13.654  0.00  0.00    +0.000 C 
ENDBRANCH   4   8
BRANCH   7  13
ATOM     13  C   UNL     1       4.680   3.771  19.024  0.00  0.00    +0.000 C 
BRANCH  13  14
ATOM     14  C   UNL     1       3.695   4.859  19.407  0.00  0.00    +0.000 A 
ATOM     15  C   UNL     1       3.758   6.101  18.742  0.00  0.00    +0.000 A 
ATOM     16  C   UNL     1       2.933   7.163  19.119  0.00  0.00    +0.000 A 
ATOM     17  C   UNL     1       2.014   6.990  20.147  0.00  0.00    +0.000 A 
ATOM     18 CL   UNL     1       1.033   8.312  20.647  0.00  0.00    +0.000 Cl
ATOM     19  C   UNL     1       1.888   5.757  20.777  0.00  0.00    +0.000 A 
ATOM     20  C   UNL     1       2.722   4.695  20.408  0.00  0.00    +0.000 A 
ATOM     21 CL   UNL     1       2.482   3.193  21.226  0.00  0.00    +0.000 Cl
ENDBRANCH  13  14
ENDBRANCH   7  13
TORSDOF 3
ENDMDL
MODEL 5
REMARK VINA RESULT:      -6.5      2.924      6.590
REMARK  Name = 
REMARK  3 active torsions:
REMARK  status: ('A' for Active; 'I' for Inactive)
REMARK    1  A    between atoms: N_4  and  C_5
REMARK    2  A    between atoms: N_12  and  C_13
REMARK    3  A    between atoms: C_13  and  C_14
REMARK                            x       y       z     vdW  Elec       q    Type
REMARK                         _______ _______ _______ _____ _____    ______ ____
ROOT
ATOM      1  O   UNL     1       3.201   8.449  17.335  0.00  0.00    +0.000 OA
ATOM      2  C   UNL     1       3.181   7.387  17.939  0.00  0.00    +0.000 C 
ATOM      3  C   UNL     1       1.955   6.809  18.615  0.00  0.00    +0.000 C 
ATOM      4  N   UNL     1       2.488   5.576  19.144  0.00  0.00    +0.000 N 
ATOM      5  C   UNL     1       3.848   5.454  18.875  0.00  0.00    +0.000 C 
ATOM      6  O   UNL     1       4.564   4.546  19.255  0.00  0.00    +0.000 OA
ATOM      7  N   UNL     1       4.229   6.535  18.125  0.00  0.00    +0.000 N 
ENDROOT
BRANCH   4   8
ATOM      8  C   UNL     1       1.716   4.639  19.949  0.00  0.00    +0.000 C 
ATOM      9  C   UNL     1       1.550   3.245  19.342  0.00  0.00    +0.000 C 
ATOM     10  C   UNL     1       1.137   2.371  20.514  0.00  0.00    +0.000 C 
ATOM     11  C   UNL     1       1.791   2.992  21.744  0.00  0.00    +0.000 C 
ATOM     12  C   UNL     1       2.364   4.339  21.303  0.00  0.00    +0.000 C 
ENDBRANCH   4   8
BRANCH   7  13
ATOM     13  C   UNL     1       5.570   6.767  17.623  0.00  0.00    +0.000 C 
BRANCH  13  14
ATOM     14  C   UNL     1       5.878   5.925  16.399  0.00  0.00    +0.000 A 
ATOM     15  C   UNL     1       5.189   6.191  15.198  0.00  0.00    +0.000 A 
ATOM     16  C   UNL     1       5.371   5.387  14.070  0.00  0.00    +0.000 A 
ATOM     17  C   UNL     1       6.266   4.324  14.118  0.00  0.00    +0.000 A 
ATOM     18 CL   UNL     1       6.453   3.304  12.747  0.00  0.00    +0.000 Cl
ATOM     19  C   UNL     1       7.004   4.079  15.271  0.00  0.00    +0.000 A 
ATOM     20  C   UNL     1       6.814   4.876  16.406  0.00  0.00    +0.000 A 
ATOM     21 CL   UNL     1       7.788   4.516  17.785  0.00  0.00    +0.000 Cl
ENDBRANCH  13  14
ENDBRANCH   7  13
TORSDOF 3
ENDMDL
MODEL 6
REMARK VINA RESULT:      -6.4      0.975      2.014
REMARK  Name = 
REMARK  3 active torsions:
REMARK  status: ('A' for Active; 'I' for Inactive)
REMARK    1  A    between atoms: N_4  and  C_5
REMARK    2  A    between atoms: N_12  and  C_13
REMARK    3  A    between atoms: C_13  and  C_14
REMARK                            x       y       z     vdW  Elec       q    Type
REMARK                         _______ _______ _______ _____ _____    ______ ____
ROOT
ATOM      1  O   UNL     1       4.040   7.502  16.891  0.00  0.00    +0.000 OA
ATOM      2  C   UNL     1       4.824   6.623  16.564  0.00  0.00    +0.000 C 
ATOM      3  C   UNL     1       5.133   6.242  15.132  0.00  0.00    +0.000 C 
ATOM      4  N   UNL     1       6.102   5.189  15.330  0.00  0.00    +0.000 N 
ATOM      5  C   UNL     1       6.304   4.935  16.684  0.00  0.00    +0.000 C 
ATOM      6  O   UNL     1       7.019   4.060  17.139  0.00  0.00    +0.000 OA
ATOM      7  N   UNL     1       5.552   5.829  17.399  0.00  0.00    +0.000 N 
ENDROOT
BRANCH   4   8
ATOM      8  C   UNL     1       6.701   4.424  14.246  0.00  0.00    +0.000 C 
ATOM      9  C   UNL     1       5.709   3.687  13.346  0.00  0.00    +0.000 C 
ATOM     10  C   UNL     1       6.503   3.368  12.091  0.00  0.00    +0.000 C 
ATOM     11  C   UNL     1       7.526   4.492  11.953  0.00  0.00    +0.000 C 
ATOM     12  C   UNL     1       7.468   5.299  13.249  0.00  0.00    +0.000 C 
ENDBRANCH   4   8
BRANCH   7  13
ATOM     13  C   UNL     1       5.505   5.904  18.847  0.00  0.00    +0.000 C 
BRANCH  13  14
ATOM     14  C   UNL     1       4.403   5.040  19.430  0.00  0.00    +0.000 A 
ATOM     15  C   UNL     1       4.648   3.666  19.633  0.00  0.00    +0.000 A 
ATOM     16  C   UNL     1       3.639   2.812  20.082  0.00  0.00    +0.000 A 
ATOM     17  C   UNL     1       2.377   3.324  20.362  0.00  0.00    +0.000 A 
ATOM     18 CL   UNL     1       1.119   2.266  20.866  0.00  0.00    +0.000 Cl
ATOM     19  C   UNL     1       2.127   4.686  20.230  0.00  0.00    +0.000 A 
ATOM     20  C   UNL     1       3.134   5.541  19.769  0.00  0.00    +0.000 A 
ATOM     21 CL   UNL     1       2.743   7.220  19.657  0.00  0.00    +0.000 Cl
ENDBRANCH  13  14
ENDBRANCH   7  13
TORSDOF 3
ENDMDL
MODEL 7
REMARK VINA RESULT:      -6.4      3.251      6.486
REMARK  Name = 
REMARK  3 active torsions:
REMARK  status: ('A' for Active; 'I' for Inactive)
REMARK    1  A    between atoms: N_4  and  C_5
REMARK    2  A    between atoms: N_12  and  C_13
REMARK    3  A    between atoms: C_13  and  C_14
REMARK                            x       y       z     vdW  Elec       q    Type
REMARK                         _______ _______ _______ _____ _____    ______ ____
ROOT
ATOM      1  O   UNL     1       5.220   4.270  15.200  0.00  0.00    +0.000 OA
ATOM      2  C   UNL     1       4.952   4.076  16.377  0.00  0.00    +0.000 C 
ATOM      3  C   UNL     1       3.573   3.728  16.895  0.00  0.00    +0.000 C 
ATOM      4  N   UNL     1       3.834   3.604  18.310  0.00  0.00    +0.000 N 
ATOM      5  C   UNL     1       5.163   3.889  18.608  0.00  0.00    +0.000 C 
ATOM      6  O   UNL     1       5.645   3.922  19.725  0.00  0.00    +0.000 OA
ATOM      7  N   UNL     1       5.816   4.136  17.429  0.00  0.00    +0.000 N 
ENDROOT
BRANCH   4   8
ATOM      8  C   UNL     1       2.805   3.322  19.302  0.00  0.00    +0.000 C 
ATOM      9  C   UNL     1       2.161   4.555  19.936  0.00  0.00    +0.000 C 
ATOM     10  C   UNL     1       0.873   4.032  20.552  0.00  0.00    +0.000 C 
ATOM     11  C   UNL     1       0.441   2.863  19.673  0.00  0.00    +0.000 C 
ATOM     12  C   UNL     1       1.600   2.578  18.720  0.00  0.00    +0.000 C 
ENDBRANCH   4   8
BRANCH   7  13
ATOM     13  C   UNL     1       7.227   4.453  17.313  0.00  0.00    +0.000 C 
BRANCH  13  14
ATOM     14  C   UNL     1       7.520   5.901  17.659  0.00  0.00    +0.000 A 
ATOM     15  C   UNL     1       7.136   6.910  16.752  0.00  0.00    +0.000 A 
ATOM     16  C   UNL     1       7.462   8.249  16.982  0.00  0.00    +0.000 A 
ATOM     17  C   UNL     1       8.151   8.601  18.137  0.00  0.00    +0.000 A 
ATOM     18 CL   UNL     1       8.598  10.241  18.397  0.00  0.00    +0.000 Cl
ATOM     19  C   UNL     1       8.485   7.633  19.078  0.00  0.00    +0.000 A 
ATOM     20  C   UNL     1       8.170   6.290  18.843  0.00  0.00    +0.000 A 
ATOM     21 CL   UNL     1       8.602   5.159  20.075  0.00  0.00    +0.000 Cl
ENDBRANCH  13  14
ENDBRANCH   7  13
TORSDOF 3
ENDMDL
MODEL 8
REMARK VINA RESULT:      -6.3      3.345      6.523
REMARK  Name = 
REMARK  3 active torsions:
REMARK  status: ('A' for Active; 'I' for Inactive)
REMARK    1  A    between atoms: N_4  and  C_5
REMARK    2  A    between atoms: N_12  and  C_13
REMARK    3  A    between atoms: C_13  and  C_14
REMARK                            x       y       z     vdW  Elec       q    Type
REMARK                         _______ _______ _______ _____ _____    ______ ____
ROOT
ATOM      1  O   UNL     1       2.291   3.047  19.241  0.00  0.00    +0.000 OA
ATOM      2  C   UNL     1       2.672   4.197  19.077  0.00  0.00    +0.000 C 
ATOM      3  C   UNL     1       1.845   5.426  19.390  0.00  0.00    +0.000 C 
ATOM      4  N   UNL     1       2.766   6.478  19.027  0.00  0.00    +0.000 N 
ATOM      5  C   UNL     1       3.952   5.959  18.517  0.00  0.00    +0.000 C 
ATOM      6  O   UNL     1       4.879   6.616  18.077  0.00  0.00    +0.000 OA
ATOM      7  N   UNL     1       3.882   4.593  18.590  0.00  0.00    +0.000 N 
ENDROOT
BRANCH   4   8
ATOM      8  C   UNL     1       2.441   7.896  19.087  0.00  0.00    +0.000 C 
ATOM      9  C   UNL     1       1.797   8.469  17.824  0.00  0.00    +0.000 C 
ATOM     10  C   UNL     1       1.164   9.772  18.283  0.00  0.00    +0.000 C 
ATOM     11  C   UNL     1       0.777   9.553  19.742  0.00  0.00    +0.000 C 
ATOM     12  C   UNL     1       1.408   8.228  20.168  0.00  0.00    +0.000 C 
ENDBRANCH   4   8
BRANCH   7  13
ATOM     13  C   UNL     1       4.934   3.684  18.173  0.00  0.00    +0.000 C 
BRANCH  13  14
ATOM     14  C   UNL     1       5.587   4.120  16.876  0.00  0.00    +0.000 A 
ATOM     15  C   UNL     1       4.857   4.013  15.675  0.00  0.00    +0.000 A 
ATOM     16  C   UNL     1       5.444   4.316  14.444  0.00  0.00    +0.000 A 
ATOM     17  C   UNL     1       6.761   4.757  14.400  0.00  0.00    +0.000 A 
ATOM     18 CL   UNL     1       7.502   5.082  12.882  0.00  0.00    +0.000 Cl
ATOM     19  C   UNL     1       7.483   4.931  15.575  0.00  0.00    +0.000 A 
ATOM     20  C   UNL     1       6.900   4.617  16.808  0.00  0.00    +0.000 A 
ATOM     21 CL   UNL     1       7.861   4.885  18.218  0.00  0.00    +0.000 Cl
ENDBRANCH  13  14
ENDBRANCH   7  13
TORSDOF 3
ENDMDL
MODEL 9
REMARK VINA RESULT:      -6.3      1.520      1.921
REMARK  Name = 
REMARK  3 active torsions:
REMARK  status: ('A' for Active; 'I' for Inactive)
REMARK    1  A    between atoms: N_4  and  C_5
REMARK    2  A    between atoms: N_12  and  C_13
REMARK    3  A    between atoms: C_13  and  C_14
REMARK                            x       y       z     vdW  Elec       q    Type
REMARK                         _______ _______ _______ _____ _____    ______ ____
ROOT
ATOM      1  O   UNL     1       6.201   4.839  19.219  0.00  0.00    +0.000 OA
ATOM      2  C   UNL     1       6.128   4.911  18.000  0.00  0.00    +0.000 C 
ATOM      3  C   UNL     1       7.141   4.316  17.046  0.00  0.00    +0.000 C 
ATOM      4  N   UNL     1       6.567   4.681  15.772  0.00  0.00    +0.000 N 
ATOM      5  C   UNL     1       5.407   5.433  15.935  0.00  0.00    +0.000 C 
ATOM      6  O   UNL     1       4.752   5.924  15.035  0.00  0.00    +0.000 OA
ATOM      7  N   UNL     1       5.150   5.527  17.277  0.00  0.00    +0.000 N 
ENDROOT
BRANCH   4   8
ATOM      8  C   UNL     1       7.189   4.387  14.489  0.00  0.00    +0.000 C 
ATOM      9  C   UNL     1       6.260   3.772  13.442  0.00  0.00    +0.000 C 
ATOM     10  C   UNL     1       6.985   3.984  12.123  0.00  0.00    +0.000 C 
ATOM     11  C   UNL     1       7.791   5.267  12.297  0.00  0.00    +0.000 C 
ATOM     12  C   UNL     1       7.712   5.638  13.777  0.00  0.00    +0.000 C 
ENDBRANCH   4   8
BRANCH   7  13
ATOM     13  C   UNL     1       4.014   6.217  17.859  0.00  0.00    +0.000 C 
BRANCH  13  14
ATOM     14  C   UNL     1       3.213   5.323  18.786  0.00  0.00    +0.000 A 
ATOM     15  C   UNL     1       3.021   5.726  20.124  0.00  0.00    +0.000 A 
ATOM     16  C   UNL     1       2.369   4.897  21.040  0.00  0.00    +0.000 A 
ATOM     17  C   UNL     1       1.875   3.666  20.624  0.00  0.00    +0.000 A 
ATOM     18 CL   UNL     1       1.117   2.622  21.762  0.00  0.00    +0.000 Cl
ATOM     19  C   UNL     1       1.996   3.272  19.296  0.00  0.00    +0.000 A 
ATOM     20  C   UNL     1       2.660   4.096  18.380  0.00  0.00    +0.000 A 
ATOM     21 CL   UNL     1       2.745   3.540  16.747  0.00  0.00    +0.000 Cl
ENDBRANCH  13  14
ENDBRANCH   7  13
TORSDOF 3
ENDMDL
