MODEL 1
REMARK VINA RESULT:      -7.4      0.000      0.000
REMARK  Name = 
REMARK  9 active torsions:
REMARK  status: ('A' for Active; 'I' for Inactive)
REMARK    1  A    between atoms: C_1  and  O_2
REMARK    2  A    between atoms: O_2  and  C_3
REMARK    3  A    between atoms: C_9  and  C_10
REMARK    4  A    between atoms: C_11  and  C_12
REMARK    5  A    between atoms: C_12  and  O_13
REMARK    6  A    between atoms: O_13  and  C_14
REMARK    7  A    between atoms: C_17  and  N_18
REMARK    8  A    between atoms: C_21  and  C_22
REMARK    9  A    between atoms: N_24  and  C_25
REMARK                            x       y       z     vdW  Elec       q    Type
REMARK                         _______ _______ _______ _____ _____    ______ ____
ROOT
ATOM      1  C   UNL     1       7.701   6.994  17.397  0.00  0.00    +0.000 C 
ATOM      2  C   UNL     1       7.926   6.703  18.690  0.00  0.00    +0.000 C 
ATOM      3  C   UNL     1       7.360   5.464  19.295  0.00  0.00    +0.000 C 
ATOM      4  O   UNL     1       7.577   5.199  20.461  0.00  0.00    +0.000 OA
ATOM      5  C   UNL     1       6.418   4.786  18.432  0.00  0.00    +0.000 A 
ATOM      6  C   UNL     1       6.383   4.977  17.065  0.00  0.00    +0.000 A 
ATOM      7  C   UNL     1       5.278   4.257  16.547  0.00  0.00    +0.000 A 
ATOM      8  C   UNL     1       4.833   4.233  15.127  0.00  0.00    +0.000 C 
ATOM      9  C   UNL     1       4.623   3.697  17.640  0.00  0.00    +0.000 A 
ATOM     10  N   UNL     1       5.338   4.009  18.782  0.00  0.00    +0.000 N 
ATOM     11  C   UNL     1       4.942   3.804  20.160  0.00  0.00    +0.000 C 
ATOM     12  C   UNL     1       7.299   5.905  16.431  0.00  0.00    +0.000 C 
ATOM     13  O   UNL     1       7.659   5.838  15.259  0.00  0.00    +0.000 OA
ENDROOT
BRANCH   1  15
ATOM     14  C   UNL     1       8.174   9.291  17.983  0.00  0.00    +0.000 C 
ATOM     15  O   UNL     1       7.622   8.342  17.088  0.00  0.00    +0.000 OA
ENDBRANCH   1  15
BRANCH   9  16
ATOM     16  C   UNL     1       3.314   2.969  17.634  0.00  0.00    +0.000 C 
BRANCH  16  17
ATOM     17  O   UNL     1       2.307   3.933  17.360  0.00  0.00    +0.000 OA
BRANCH  17  18
ATOM     18  C   UNL     1       2.047   4.841  18.351  0.00  0.00    +0.000 A 
ATOM     19  C   UNL     1       1.617   4.540  19.645  0.00  0.00    +0.000 A 
ATOM     20  C   UNL     1       1.361   5.569  20.554  0.00  0.00    +0.000 A 
ATOM     21  C   UNL     1       1.541   6.903  20.162  0.00  0.00    +0.000 A 
ATOM     22  C   UNL     1       1.977   7.238  18.872  0.00  0.00    +0.000 A 
ATOM     23  C   UNL     1       2.178   8.638  18.366  0.00  0.00    +0.000 C 
ATOM     24  C   UNL     1       2.230   6.179  17.980  0.00  0.00    +0.000 A 
BRANCH  21  25
ATOM     25  N   UNL     1       1.230   7.923  21.151  0.00  0.00    +0.000 N 
ATOM     26  O   UNL     1       2.187   8.424  21.757  0.00  0.00    +0.000 OA
ATOM     27  O   UNL     1       0.042   8.241  21.289  0.00  0.00    +0.000 OA
ENDBRANCH  21  25
ENDBRANCH  17  18
ENDBRANCH  16  17
ENDBRANCH   9  16
TORSDOF 5
ENDMDL
MODEL 2
REMARK VINA RESULT:      -7.3      3.172      4.391
REMARK  Name = 
REMARK  9 active torsions:
REMARK  status: ('A' for Active; 'I' for Inactive)
REMARK    1  A    between atoms: C_1  and  O_2
REMARK    2  A    between atoms: O_2  and  C_3
REMARK    3  A    between atoms: C_9  and  C_10
REMARK    4  A    between atoms: C_11  and  C_12
REMARK    5  A    between atoms: C_12  and  O_13
REMARK    6  A    between atoms: O_13  and  C_14
REMARK    7  A    between atoms: C_17  and  N_18
REMARK    8  A    between atoms: C_21  and  C_22
REMARK    9  A    between atoms: N_24  and  C_25
REMARK                            x       y       z     vdW  Elec       q    Type
REMARK                         _______ _______ _______ _____ _____    ______ ____
ROOT
ATOM      1  C   UNL     1       6.159   5.750  17.643  0.00  0.00    +0.000 C 
ATOM      2  C   UNL     1       6.118   4.577  18.298  0.00  0.00    +0.000 C 
ATOM      3  C   UNL     1       4.859   4.122  18.952  0.00  0.00    +0.000 C 
ATOM      4  O   UNL     1       4.823   3.054  19.534  0.00  0.00    +0.000 OA
ATOM      5  C   UNL     1       3.831   5.138  18.982  0.00  0.00    +0.000 A 
ATOM      6  C   UNL     1       3.822   6.220  18.125  0.00  0.00    +0.000 A 
ATOM      7  C   UNL     1       2.752   7.071  18.497  0.00  0.00    +0.000 A 
ATOM      8  C   UNL     1       2.415   8.381  17.877  0.00  0.00    +0.000 C 
ATOM      9  C   UNL     1       2.176   6.507  19.631  0.00  0.00    +0.000 A 
ATOM     10  N   UNL     1       2.828   5.318  19.906  0.00  0.00    +0.000 N 
ATOM     11  C   UNL     1       2.699   4.489  21.087  0.00  0.00    +0.000 C 
ATOM     12  C   UNL     1       4.884   6.392  17.152  0.00  0.00    +0.000 C 
ATOM     13  O   UNL     1       4.771   7.014  16.099  0.00  0.00    +0.000 OA
ENDROOT
BRANCH   1  15
ATOM     14  C   UNL     1       8.108   6.463  18.885  0.00  0.00    +0.000 C 
ATOM     15  O   UNL     1       7.374   6.415  17.673  0.00  0.00    +0.000 OA
ENDBRANCH   1  15
BRANCH   9  16
ATOM     16  C   UNL     1       1.106   7.104  20.493  0.00  0.00    +0.000 C 
BRANCH  16  17
ATOM     17  O   UNL     1       1.714   8.145  21.244  0.00  0.00    +0.000 OA
BRANCH  17  18
ATOM     18  C   UNL     1       0.887   9.147  21.676  0.00  0.00    +0.000 A 
ATOM     19  C   UNL     1       0.206   9.177  22.895  0.00  0.00    +0.000 A 
ATOM     20  C   UNL     1      -0.631  10.252  23.201  0.00  0.00    +0.000 A 
ATOM     21  C   UNL     1      -0.781  11.301  22.283  0.00  0.00    +0.000 A 
ATOM     22  C   UNL     1      -0.105  11.303  21.053  0.00  0.00    +0.000 A 
ATOM     23  C   UNL     1      -0.223  12.375  20.007  0.00  0.00    +0.000 C 
ATOM     24  C   UNL     1       0.734  10.208  20.774  0.00  0.00    +0.000 A 
BRANCH  21  25
ATOM     25  N   UNL     1      -1.688  12.374  22.656  0.00  0.00    +0.000 N 
ATOM     26  O   UNL     1      -1.199  13.333  23.269  0.00  0.00    +0.000 OA
ATOM     27  O   UNL     1      -2.871  12.270  22.305  0.00  0.00    +0.000 OA
ENDBRANCH  21  25
ENDBRANCH  17  18
ENDBRANCH  16  17
ENDBRANCH   9  16
TORSDOF 5
ENDMDL
MODEL 3
REMARK VINA RESULT:      -7.2      3.882      8.501
REMARK  Name = 
REMARK  9 active torsions:
REMARK  status: ('A' for Active; 'I' for Inactive)
REMARK    1  A    between atoms: C_1  and  O_2
REMARK    2  A    between atoms: O_2  and  C_3
REMARK    3  A    between atoms: C_9  and  C_10
REMARK    4  A    between atoms: C_11  and  C_12
REMARK    5  A    between atoms: C_12  and  O_13
REMARK    6  A    between atoms: O_13  and  C_14
REMARK    7  A    between atoms: C_17  and  N_18
REMARK    8  A    between atoms: C_21  and  C_22
REMARK    9  A    between atoms: N_24  and  C_25
REMARK                            x       y       z     vdW  Elec       q    Type
REMARK                         _______ _______ _______ _____ _____    ______ ____
ROOT
ATOM      1  C   UNL     1      -2.647  12.378  19.744  0.00  0.00    +0.000 C 
ATOM      2  C   UNL     1      -2.765  12.557  21.070  0.00  0.00    +0.000 C 
ATOM      3  C   UNL     1      -1.742  12.001  22.000  0.00  0.00    +0.000 C 
ATOM      4  O   UNL     1      -1.847  12.175  23.200  0.00  0.00    +0.000 OA
ATOM      5  C   UNL     1      -0.800  11.117  21.352  0.00  0.00    +0.000 A 
ATOM      6  C   UNL     1      -0.572  11.134  19.990  0.00  0.00    +0.000 A 
ATOM      7  C   UNL     1       0.314  10.074  19.677  0.00  0.00    +0.000 A 
ATOM      8  C   UNL     1       0.779   9.691  18.315  0.00  0.00    +0.000 C 
ATOM      9  C   UNL     1       0.547   9.389  20.865  0.00  0.00    +0.000 A 
ATOM     10  N   UNL     1      -0.121  10.045  21.884  0.00  0.00    +0.000 N 
ATOM     11  C   UNL     1      -0.321   9.596  23.246  0.00  0.00    +0.000 C 
ATOM     12  C   UNL     1      -1.304  12.050  19.136  0.00  0.00    +0.000 C 
ATOM     13  O   UNL     1      -0.905  12.462  18.051  0.00  0.00    +0.000 OA
ENDROOT
BRANCH   1  15
ATOM     14  C   UNL     1      -4.006  11.212  18.119  0.00  0.00    +0.000 C 
ATOM     15  O   UNL     1      -3.837  12.275  19.041  0.00  0.00    +0.000 OA
ENDBRANCH   1  15
BRANCH   9  16
ATOM     16  C   UNL     1       1.295   8.103  21.036  0.00  0.00    +0.000 C 
BRANCH  16  17
ATOM     17  O   UNL     1       2.104   7.939  19.878  0.00  0.00    +0.000 OA
BRANCH  17  18
ATOM     18  C   UNL     1       2.425   6.654  19.536  0.00  0.00    +0.000 A 
ATOM     19  C   UNL     1       3.259   6.271  18.484  0.00  0.00    +0.000 A 
ATOM     20  C   UNL     1       3.482   4.916  18.226  0.00  0.00    +0.000 A 
ATOM     21  C   UNL     1       2.868   3.945  19.030  0.00  0.00    +0.000 A 
ATOM     22  C   UNL     1       2.030   4.298  20.098  0.00  0.00    +0.000 A 
ATOM     23  C   UNL     1       1.321   3.324  20.995  0.00  0.00    +0.000 C 
ATOM     24  C   UNL     1       1.827   5.670  20.335  0.00  0.00    +0.000 A 
BRANCH  21  25
ATOM     25  N   UNL     1       3.124   2.555  18.689  0.00  0.00    +0.000 N 
ATOM     26  O   UNL     1       2.351   2.026  17.879  0.00  0.00    +0.000 OA
ATOM     27  O   UNL     1       4.113   2.014  19.202  0.00  0.00    +0.000 OA
ENDBRANCH  21  25
ENDBRANCH  17  18
ENDBRANCH  16  17
ENDBRANCH   9  16
TORSDOF 5
ENDMDL
MODEL 4
REMARK VINA RESULT:      -7.1      4.044      8.705
REMARK  Name = 
REMARK  9 active torsions:
REMARK  status: ('A' for Active; 'I' for Inactive)
REMARK    1  A    between atoms: C_1  and  O_2
REMARK    2  A    between atoms: O_2  and  C_3
REMARK    3  A    between atoms: C_9  and  C_10
REMARK    4  A    between atoms: C_11  and  C_12
REMARK    5  A    between atoms: C_12  and  O_13
REMARK    6  A    between atoms: O_13  and  C_14
REMARK    7  A    between atoms: C_17  and  N_18
REMARK    8  A    between atoms: C_21  and  C_22
REMARK    9  A    between atoms: N_24  and  C_25
REMARK                            x       y       z     vdW  Elec       q    Type
REMARK                         _______ _______ _______ _____ _____    ______ ____
ROOT
ATOM      1  C   UNL     1      -1.657  13.198  21.486  0.00  0.00    +0.000 C 
ATOM      2  C   UNL     1      -1.828  13.251  20.154  0.00  0.00    +0.000 C 
ATOM      3  C   UNL     1      -1.500  12.073  19.303  0.00  0.00    +0.000 C 
ATOM      4  O   UNL     1      -1.668  12.123  18.100  0.00  0.00    +0.000 OA
ATOM      5  C   UNL     1      -0.811  11.024  20.020  0.00  0.00    +0.000 A 
ATOM      6  C   UNL     1      -0.854  10.904  21.395  0.00  0.00    +0.000 A 
ATOM      7  C   UNL     1       0.014   9.850  21.774  0.00  0.00    +0.000 A 
ATOM      8  C   UNL     1       0.317   9.419  23.166  0.00  0.00    +0.000 C 
ATOM      9  C   UNL     1       0.622   9.399  20.606  0.00  0.00    +0.000 A 
ATOM     10  N   UNL     1       0.096  10.108  19.541  0.00  0.00    +0.000 N 
ATOM     11  C   UNL     1       0.556  10.114  18.167  0.00  0.00    +0.000 C 
ATOM     12  C   UNL     1      -1.593  11.864  22.192  0.00  0.00    +0.000 C 
ATOM     13  O   UNL     1      -2.060  11.635  23.304  0.00  0.00    +0.000 OA
ENDROOT
BRANCH   1  15
ATOM     14  C   UNL     1       0.045  14.809  22.080  0.00  0.00    +0.000 C 
ATOM     15  O   UNL     1      -1.309  14.391  22.098  0.00  0.00    +0.000 OA
ENDBRANCH   1  15
BRANCH   9  16
ATOM     16  C   UNL     1       1.730   8.399  20.492  0.00  0.00    +0.000 C 
BRANCH  16  17
ATOM     17  O   UNL     1       1.153   7.117  20.701  0.00  0.00    +0.000 OA
BRANCH  17  18
ATOM     18  C   UNL     1       1.929   6.039  20.373  0.00  0.00    +0.000 A 
ATOM     19  C   UNL     1       2.974   6.034  19.446  0.00  0.00    +0.000 A 
ATOM     20  C   UNL     1       3.671   4.852  19.184  0.00  0.00    +0.000 A 
ATOM     21  C   UNL     1       3.319   3.674  19.858  0.00  0.00    +0.000 A 
ATOM     22  C   UNL     1       2.279   3.648  20.799  0.00  0.00    +0.000 A 
ATOM     23  C   UNL     1       1.827   2.428  21.550  0.00  0.00    +0.000 C 
ATOM     24  C   UNL     1       1.598   4.855  21.044  0.00  0.00    +0.000 A 
BRANCH  21  25
ATOM     25  N   UNL     1       4.069   2.476  19.517  0.00  0.00    +0.000 N 
ATOM     26  O   UNL     1       4.990   2.156  20.280  0.00  0.00    +0.000 OA
ATOM     27  O   UNL     1       3.712   1.846  18.512  0.00  0.00    +0.000 OA
ENDBRANCH  21  25
ENDBRANCH  17  18
ENDBRANCH  16  17
ENDBRANCH   9  16
TORSDOF 5
ENDMDL
MODEL 5
REMARK VINA RESULT:      -7.0      3.775      8.261
REMARK  Name = 
REMARK  9 active torsions:
REMARK  status: ('A' for Active; 'I' for Inactive)
REMARK    1  A    between atoms: C_1  and  O_2
REMARK    2  A    between atoms: O_2  and  C_3
REMARK    3  A    between atoms: C_9  and  C_10
REMARK    4  A    between atoms: C_11  and  C_12
REMARK    5  A    between atoms: C_12  and  O_13
REMARK    6  A    between atoms: O_13  and  C_14
REMARK    7  A    between atoms: C_17  and  N_18
REMARK    8  A    between atoms: C_21  and  C_22
REMARK    9  A    between atoms: N_24  and  C_25
REMARK                            x       y       z     vdW  Elec       q    Type
REMARK                         _______ _______ _______ _____ _____    ______ ____
ROOT
ATOM      1  C   UNL     1      -2.489  12.128  19.619  0.00  0.00    +0.000 C 
ATOM      2  C   UNL     1      -2.647  12.328  20.938  0.00  0.00    +0.000 C 
ATOM      3  C   UNL     1      -1.608  11.868  21.902  0.00  0.00    +0.000 C 
ATOM      4  O   UNL     1      -1.750  12.062  23.094  0.00  0.00    +0.000 OA
ATOM      5  C   UNL     1      -0.592  11.038  21.293  0.00  0.00    +0.000 A 
ATOM      6  C   UNL     1      -0.337  11.041  19.936  0.00  0.00    +0.000 A 
ATOM      7  C   UNL     1       0.628  10.039  19.667  0.00  0.00    +0.000 A 
ATOM      8  C   UNL     1       1.148   9.659  18.324  0.00  0.00    +0.000 C 
ATOM      9  C   UNL     1       0.884   9.400  20.876  0.00  0.00    +0.000 A 
ATOM     10  N   UNL     1       0.150  10.031  21.864  0.00  0.00    +0.000 N 
ATOM     11  C   UNL     1      -0.047   9.599  23.234  0.00  0.00    +0.000 C 
ATOM     12  C   UNL     1      -1.113  11.883  19.047  0.00  0.00    +0.000 C 
ATOM     13  O   UNL     1      -0.721  12.296  17.959  0.00  0.00    +0.000 OA
ENDROOT
BRANCH   1  15
ATOM     14  C   UNL     1      -3.600  11.169  17.698  0.00  0.00    +0.000 C 
ATOM     15  O   UNL     1      -3.653  11.924  18.896  0.00  0.00    +0.000 OA
ENDBRANCH   1  15
BRANCH   9  16
ATOM     16  C   UNL     1       1.717   8.175  21.092  0.00  0.00    +0.000 C 
BRANCH  16  17
ATOM     17  O   UNL     1       0.923   7.061  20.707  0.00  0.00    +0.000 OA
BRANCH  17  18
ATOM     18  C   UNL     1       1.598   5.918  20.375  0.00  0.00    +0.000 A 
ATOM     19  C   UNL     1       1.133   4.613  20.550  0.00  0.00    +0.000 A 
ATOM     20  C   UNL     1       1.938   3.529  20.192  0.00  0.00    +0.000 A 
ATOM     21  C   UNL     1       3.212   3.759  19.653  0.00  0.00    +0.000 A 
ATOM     22  C   UNL     1       3.706   5.057  19.459  0.00  0.00    +0.000 A 
ATOM     23  C   UNL     1       5.062   5.390  18.905  0.00  0.00    +0.000 C 
ATOM     24  C   UNL     1       2.870   6.128  19.826  0.00  0.00    +0.000 A 
BRANCH  21  25
ATOM     25  N   UNL     1       4.006   2.585  19.327  0.00  0.00    +0.000 N 
ATOM     26  O   UNL     1       4.770   2.164  20.206  0.00  0.00    +0.000 OA
ATOM     27  O   UNL     1       3.835   2.072  18.213  0.00  0.00    +0.000 OA
ENDBRANCH  21  25
ENDBRANCH  17  18
ENDBRANCH  16  17
ENDBRANCH   9  16
TORSDOF 5
ENDMDL
MODEL 6
REMARK VINA RESULT:      -6.9      3.284      5.814
REMARK  Name = 
REMARK  9 active torsions:
REMARK  status: ('A' for Active; 'I' for Inactive)
REMARK    1  A    between atoms: C_1  and  O_2
REMARK    2  A    between atoms: O_2  and  C_3
REMARK    3  A    between atoms: C_9  and  C_10
REMARK    4  A    between atoms: C_11  and  C_12
REMARK    5  A    between atoms: C_12  and  O_13
REMARK    6  A    between atoms: O_13  and  C_14
REMARK    7  A    between atoms: C_17  and  N_18
REMARK    8  A    between atoms: C_21  and  C_22
REMARK    9  A    between atoms: N_24  and  C_25
REMARK                            x       y       z     vdW  Elec       q    Type
REMARK                         _______ _______ _______ _____ _____    ______ ____
ROOT
ATOM      1  C   UNL     1       2.957   2.918  19.272  0.00  0.00    +0.000 C 
ATOM      2  C   UNL     1       3.953   2.848  18.373  0.00  0.00    +0.000 C 
ATOM      3  C   UNL     1       4.641   4.087  17.910  0.00  0.00    +0.000 C 
ATOM      4  O   UNL     1       5.550   4.017  17.106  0.00  0.00    +0.000 OA
ATOM      5  C   UNL     1       3.991   5.300  18.352  0.00  0.00    +0.000 A 
ATOM      6  C   UNL     1       3.131   5.339  19.431  0.00  0.00    +0.000 A 
ATOM      7  C   UNL     1       2.588   6.645  19.517  0.00  0.00    +0.000 A 
ATOM      8  C   UNL     1       1.570   7.111  20.498  0.00  0.00    +0.000 C 
ATOM      9  C   UNL     1       3.088   7.353  18.429  0.00  0.00    +0.000 A 
ATOM     10  N   UNL     1       3.959   6.530  17.737  0.00  0.00    +0.000 N 
ATOM     11  C   UNL     1       4.566   6.770  16.444  0.00  0.00    +0.000 C 
ATOM     12  C   UNL     1       2.823   4.127  20.167  0.00  0.00    +0.000 C 
ATOM     13  O   UNL     1       2.460   4.097  21.340  0.00  0.00    +0.000 OA
ENDROOT
BRANCH   1  15
ATOM     14  C   UNL     1       0.651   2.364  18.799  0.00  0.00    +0.000 C 
ATOM     15  O   UNL     1       1.964   1.960  19.148  0.00  0.00    +0.000 OA
ENDBRANCH   1  15
BRANCH   9  16
ATOM     16  C   UNL     1       2.697   8.730  17.990  0.00  0.00    +0.000 C 
BRANCH  16  17
ATOM     17  O   UNL     1       1.289   8.717  17.793  0.00  0.00    +0.000 OA
BRANCH  17  18
ATOM     18  C   UNL     1       0.584   9.738  18.371  0.00  0.00    +0.000 A 
ATOM     19  C   UNL     1       1.007  10.518  19.449  0.00  0.00    +0.000 A 
ATOM     20  C   UNL     1       0.173  11.514  19.961  0.00  0.00    +0.000 A 
ATOM     21  C   UNL     1      -1.087  11.730  19.385  0.00  0.00    +0.000 A 
ATOM     22  C   UNL     1      -1.538  10.968  18.297  0.00  0.00    +0.000 A 
ATOM     23  C   UNL     1      -2.877  11.122  17.634  0.00  0.00    +0.000 C 
ATOM     24  C   UNL     1      -0.674   9.974  17.801  0.00  0.00    +0.000 A 
BRANCH  21  25
ATOM     25  N   UNL     1      -1.912  12.766  19.985  0.00  0.00    +0.000 N 
ATOM     26  O   UNL     1      -2.884  12.390  20.654  0.00  0.00    +0.000 OA
ATOM     27  O   UNL     1      -1.565  13.942  19.814  0.00  0.00    +0.000 OA
ENDBRANCH  21  25
ENDBRANCH  17  18
ENDBRANCH  16  17
ENDBRANCH   9  16
TORSDOF 5
ENDMDL
MODEL 7
REMARK VINA RESULT:      -6.9      3.989      8.542
REMARK  Name = 
REMARK  9 active torsions:
REMARK  status: ('A' for Active; 'I' for Inactive)
REMARK    1  A    between atoms: C_1  and  O_2
REMARK    2  A    between atoms: O_2  and  C_3
REMARK    3  A    between atoms: C_9  and  C_10
REMARK    4  A    between atoms: C_11  and  C_12
REMARK    5  A    between atoms: C_12  and  O_13
REMARK    6  A    between atoms: O_13  and  C_14
REMARK    7  A    between atoms: C_17  and  N_18
REMARK    8  A    between atoms: C_21  and  C_22
REMARK    9  A    between atoms: N_24  and  C_25
REMARK                            x       y       z     vdW  Elec       q    Type
REMARK                         _______ _______ _______ _____ _____    ______ ____
ROOT
ATOM      1  C   UNL     1      -1.106  12.583  22.363  0.00  0.00    +0.000 C 
ATOM      2  C   UNL     1      -1.842  12.879  21.278  0.00  0.00    +0.000 C 
ATOM      3  C   UNL     1      -1.855  11.963  20.103  0.00  0.00    +0.000 C 
ATOM      4  O   UNL     1      -2.532  12.229  19.128  0.00  0.00    +0.000 OA
ATOM      5  C   UNL     1      -0.867  10.911  20.187  0.00  0.00    +0.000 A 
ATOM      6  C   UNL     1      -0.300  10.510  21.381  0.00  0.00    +0.000 A 
ATOM      7  C   UNL     1       0.701   9.549  21.093  0.00  0.00    +0.000 A 
ATOM      8  C   UNL     1       1.603   8.897  22.083  0.00  0.00    +0.000 C 
ATOM      9  C   UNL     1       0.763   9.445  19.707  0.00  0.00    +0.000 A 
ATOM     10  N   UNL     1      -0.211  10.264  19.166  0.00  0.00    +0.000 N 
ATOM     11  C   UNL     1      -0.396  10.620  17.774  0.00  0.00    +0.000 C 
ATOM     12  C   UNL     1      -0.670  11.161  22.623  0.00  0.00    +0.000 C 
ATOM     13  O   UNL     1      -0.593  10.641  23.733  0.00  0.00    +0.000 OA
ENDROOT
BRANCH   1  15
ATOM     14  C   UNL     1      -1.479  14.553  23.715  0.00  0.00    +0.000 C 
ATOM     15  O   UNL     1      -0.591  13.667  23.056  0.00  0.00    +0.000 OA
ENDBRANCH   1  15
BRANCH   9  16
ATOM     16  C   UNL     1       1.763   8.674  18.903  0.00  0.00    +0.000 C 
BRANCH  16  17
ATOM     17  O   UNL     1       2.322   7.694  19.768  0.00  0.00    +0.000 OA
BRANCH  17  18
ATOM     18  C   UNL     1       2.158   6.388  19.396  0.00  0.00    +0.000 A 
ATOM     19  C   UNL     1       2.188   5.899  18.088  0.00  0.00    +0.000 A 
ATOM     20  C   UNL     1       1.977   4.540  17.844  0.00  0.00    +0.000 A 
ATOM     21  C   UNL     1       1.739   3.670  18.918  0.00  0.00    +0.000 A 
ATOM     22  C   UNL     1       1.709   4.129  20.243  0.00  0.00    +0.000 A 
ATOM     23  C   UNL     1       1.443   3.270  21.447  0.00  0.00    +0.000 C 
ATOM     24  C   UNL     1       1.928   5.503  20.457  0.00  0.00    +0.000 A 
BRANCH  21  25
ATOM     25  N   UNL     1       1.502   2.274  18.589  0.00  0.00    +0.000 N 
ATOM     26  O   UNL     1       0.327   1.936  18.397  0.00  0.00    +0.000 OA
ATOM     27  O   UNL     1       2.491   1.535  18.491  0.00  0.00    +0.000 OA
ENDBRANCH  21  25
ENDBRANCH  17  18
ENDBRANCH  16  17
ENDBRANCH   9  16
TORSDOF 5
ENDMDL
MODEL 8
REMARK VINA RESULT:      -6.8      3.060      4.552
REMARK  Name = 
REMARK  9 active torsions:
REMARK  status: ('A' for Active; 'I' for Inactive)
REMARK    1  A    between atoms: C_1  and  O_2
REMARK    2  A    between atoms: O_2  and  C_3
REMARK    3  A    between atoms: C_9  and  C_10
REMARK    4  A    between atoms: C_11  and  C_12
REMARK    5  A    between atoms: C_12  and  O_13
REMARK    6  A    between atoms: O_13  and  C_14
REMARK    7  A    between atoms: C_17  and  N_18
REMARK    8  A    between atoms: C_21  and  C_22
REMARK    9  A    between atoms: N_24  and  C_25
REMARK                            x       y       z     vdW  Elec       q    Type
REMARK                         _______ _______ _______ _____ _____    ______ ____
ROOT
ATOM      1  C   UNL     1       5.653   4.773  16.554  0.00  0.00    +0.000 C 
ATOM      2  C   UNL     1       5.145   3.587  16.930  0.00  0.00    +0.000 C 
ATOM      3  C   UNL     1       3.844   3.520  17.654  0.00  0.00    +0.000 C 
ATOM      4  O   UNL     1       3.382   2.443  17.982  0.00  0.00    +0.000 OA
ATOM      5  C   UNL     1       3.353   4.814  18.069  0.00  0.00    +0.000 A 
ATOM      6  C   UNL     1       3.768   5.995  17.486  0.00  0.00    +0.000 A 
ATOM      7  C   UNL     1       3.184   7.070  18.200  0.00  0.00    +0.000 A 
ATOM      8  C   UNL     1       3.412   8.520  17.947  0.00  0.00    +0.000 C 
ATOM      9  C   UNL     1       2.475   6.505  19.256  0.00  0.00    +0.000 A 
ATOM     10  N   UNL     1       2.568   5.129  19.154  0.00  0.00    +0.000 N 
ATOM     11  C   UNL     1       2.152   4.138  20.126  0.00  0.00    +0.000 C 
ATOM     12  C   UNL     1       4.755   5.979  16.423  0.00  0.00    +0.000 C 
ATOM     13  O   UNL     1       4.870   6.851  15.565  0.00  0.00    +0.000 OA
ENDROOT
BRANCH   1  15
ATOM     14  C   UNL     1       7.755   4.629  17.742  0.00  0.00    +0.000 C 
ATOM     15  O   UNL     1       7.036   4.859  16.543  0.00  0.00    +0.000 OA
ENDBRANCH   1  15
BRANCH   9  16
ATOM     16  C   UNL     1       1.806   7.227  20.384  0.00  0.00    +0.000 C 
BRANCH  16  17
ATOM     17  O   UNL     1       1.161   8.362  19.823  0.00  0.00    +0.000 OA
BRANCH  17  18
ATOM     18  C   UNL     1       0.528   9.199  20.701  0.00  0.00    +0.000 A 
ATOM     19  C   UNL     1       0.515   9.070  22.091  0.00  0.00    +0.000 A 
ATOM     20  C   UNL     1      -0.197   9.982  22.873  0.00  0.00    +0.000 A 
ATOM     21  C   UNL     1      -0.893  11.031  22.255  0.00  0.00    +0.000 A 
ATOM     22  C   UNL     1      -0.895  11.192  20.862  0.00  0.00    +0.000 A 
ATOM     23  C   UNL     1      -1.627  12.274  20.120  0.00  0.00    +0.000 C 
ATOM     24  C   UNL     1      -0.166  10.258  20.102  0.00  0.00    +0.000 A 
BRANCH  21  25
ATOM     25  N   UNL     1      -1.634  11.928  23.128  0.00  0.00    +0.000 N 
ATOM     26  O   UNL     1      -1.053  12.959  23.493  0.00  0.00    +0.000 OA
ATOM     27  O   UNL     1      -2.798  11.616  23.412  0.00  0.00    +0.000 OA
ENDBRANCH  21  25
ENDBRANCH  17  18
ENDBRANCH  16  17
ENDBRANCH   9  16
TORSDOF 5
ENDMDL
MODEL 9
REMARK VINA RESULT:      -6.8      3.212      5.752
REMARK  Name = 
REMARK  9 active torsions:
REMARK  status: ('A' for Active; 'I' for Inactive)
REMARK    1  A    between atoms: C_1  and  O_2
REMARK    2  A    between atoms: O_2  and  C_3
REMARK    3  A    between atoms: C_9  and  C_10
REMARK    4  A    between atoms: C_11  and  C_12
REMARK    5  A    between atoms: C_12  and  O_13
REMARK    6  A    between atoms: O_13  and  C_14
REMARK    7  A    between atoms: C_17  and  N_18
REMARK    8  A    between atoms: C_21  and  C_22
REMARK    9  A    between atoms: N_24  and  C_25
REMARK                            x       y       z     vdW  Elec       q    Type
REMARK                         _______ _______ _______ _____ _____    ______ ____
ROOT
ATOM      1  C   UNL     1       2.924   3.014  19.497  0.00  0.00    +0.000 C 
ATOM      2  C   UNL     1       3.937   2.907  18.619  0.00  0.00    +0.000 C 
ATOM      3  C   UNL     1       4.632   4.126  18.117  0.00  0.00    +0.000 C 
ATOM      4  O   UNL     1       5.555   4.023  17.332  0.00  0.00    +0.000 OA
ATOM      5  C   UNL     1       3.973   5.356  18.494  0.00  0.00    +0.000 A 
ATOM      6  C   UNL     1       3.093   5.440  19.555  0.00  0.00    +0.000 A 
ATOM      7  C   UNL     1       2.548   6.748  19.574  0.00  0.00    +0.000 A 
ATOM      8  C   UNL     1       1.512   7.253  20.516  0.00  0.00    +0.000 C 
ATOM      9  C   UNL     1       3.068   7.409  18.466  0.00  0.00    +0.000 A 
ATOM     10  N   UNL     1       3.951   6.559  17.826  0.00  0.00    +0.000 N 
ATOM     11  C   UNL     1       4.582   6.743  16.535  0.00  0.00    +0.000 C 
ATOM     12  C   UNL     1       2.773   4.261  20.336  0.00  0.00    +0.000 C 
ATOM     13  O   UNL     1       2.389   4.280  21.502  0.00  0.00    +0.000 OA
ENDROOT
BRANCH   1  15
ATOM     14  C   UNL     1       0.686   2.396  18.823  0.00  0.00    +0.000 C 
ATOM     15  O   UNL     1       1.935   2.050  19.396  0.00  0.00    +0.000 OA
ENDBRANCH   1  15
BRANCH   9  16
ATOM     16  C   UNL     1       2.683   8.765  17.961  0.00  0.00    +0.000 C 
BRANCH  16  17
ATOM     17  O   UNL     1       1.308   8.700  17.608  0.00  0.00    +0.000 OA
BRANCH  17  18
ATOM     18  C   UNL     1       0.491   9.648  18.162  0.00  0.00    +0.000 A 
ATOM     19  C   UNL     1      -0.848   9.867  17.834  0.00  0.00    +0.000 A 
ATOM     20  C   UNL     1      -1.563  10.891  18.460  0.00  0.00    +0.000 A 
ATOM     21  C   UNL     1      -0.931  11.693  19.421  0.00  0.00    +0.000 A 
ATOM     22  C   UNL     1       0.411  11.494  19.777  0.00  0.00    +0.000 A 
ATOM     23  C   UNL     1       1.167  12.317  20.781  0.00  0.00    +0.000 C 
ATOM     24  C   UNL     1       1.104  10.453  19.132  0.00  0.00    +0.000 A 
BRANCH  21  25
ATOM     25  N   UNL     1      -1.728  12.755  20.013  0.00  0.00    +0.000 N 
ATOM     26  O   UNL     1      -1.538  13.902  19.585  0.00  0.00    +0.000 OA
ATOM     27  O   UNL     1      -2.559  12.434  20.873  0.00  0.00    +0.000 OA
ENDBRANCH  21  25
ENDBRANCH  17  18
ENDBRANCH  16  17
ENDBRANCH   9  16
TORSDOF 5
ENDMDL
