MODEL 1
REMARK VINA RESULT:      -8.0      0.000      0.000
REMARK  Name = 
REMARK  7 active torsions:
REMARK  status: ('A' for Active; 'I' for Inactive)
REMARK    1  A    between atoms: C_1  and  O_2
REMARK    2  A    between atoms: O_2  and  C_3
REMARK    3  A    between atoms: C_8  and  N_9
REMARK    4  A    between atoms: N_12  and  C_13
REMARK    5  A    between atoms: C_13  and  C_14
REMARK    6  A    between atoms: C_14  and  C_15
REMARK    7  A    between atoms: N_17  and  C_18
REMARK                            x       y       z     vdW  Elec       q    Type
REMARK                         _______ _______ _______ _____ _____    ______ ____
ROOT
ATOM      1  N   UNL     1       4.181   5.263  18.626  0.00  0.00    +0.000 N 
ATOM      2  C   UNL     1       5.484   5.428  19.277  0.00  0.00    +0.000 C 
ATOM      3  C   UNL     1       6.600   5.016  18.290  0.00  0.00    +0.000 C 
ATOM      4  N   UNL     1       6.606   5.772  17.010  0.00  0.00    +0.000 NA
ATOM      5  C   UNL     1       5.244   5.667  16.413  0.00  0.00    +0.000 C 
ATOM      6  C   UNL     1       4.051   5.995  17.355  0.00  0.00    +0.000 C 
ENDROOT
BRANCH   1  12
ATOM      7  C   UNL     1       2.806   3.214  18.905  0.00  0.00    +0.000 A 
ATOM      8  C   UNL     1       1.698   2.589  19.508  0.00  0.00    +0.000 A 
ATOM      9  C   UNL     1       0.899   3.272  20.419  0.00  0.00    +0.000 A 
ATOM     10  C   UNL     1       1.195   4.588  20.732  0.00  0.00    +0.000 A 
ATOM     11  C   UNL     1       2.290   5.218  20.132  0.00  0.00    +0.000 A 
ATOM     12  C   UNL     1       3.126   4.567  19.199  0.00  0.00    +0.000 A 
BRANCH   7  14
ATOM     13  C   UNL     1       3.876   1.206  18.211  0.00  0.00    +0.000 C 
ATOM     14  O   UNL     1       3.537   2.562  17.934  0.00  0.00    +0.000 OA
ENDBRANCH   7  14
ENDBRANCH   1  12
BRANCH   4  15
ATOM     15  C   UNL     1       6.964   7.189  17.176  0.00  0.00    +0.000 C 
BRANCH  15  16
ATOM     16  C   UNL     1       8.068   7.438  18.209  0.00  0.00    +0.000 C 
BRANCH  16  17
ATOM     17  C   UNL     1       8.305   8.928  18.322  0.00  0.00    +0.000 C 
ATOM     18  O   UNL     1       7.671   9.732  17.642  0.00  0.00    +0.000 OA
ATOM     19  N   UNL     1       9.278   9.251  19.249  0.00  0.00    +0.000 N 
ATOM     20  H   UNL     1       9.876   8.502  19.579  0.00  0.00    +0.000 HD
BRANCH  19  21
ATOM     21  C   UNL     1       9.619  10.564  19.638  0.00  0.00    +0.000 A 
ATOM     22  C   UNL     1       9.219  11.117  20.862  0.00  0.00    +0.000 A 
ATOM     23  C   UNL     1       9.537  12.434  21.193  0.00  0.00    +0.000 A 
ATOM     24  C   UNL     1      10.272  13.208  20.304  0.00  0.00    +0.000 A 
ATOM     25  C   UNL     1      10.697  12.650  19.104  0.00  0.00    +0.000 A 
ATOM     26  F   UNL     1      11.408  13.396  18.250  0.00  0.00    +0.000 F 
ATOM     27  C   UNL     1      10.389  11.334  18.766  0.00  0.00    +0.000 A 
ENDBRANCH  19  21
ENDBRANCH  16  17
ENDBRANCH  15  16
ENDBRANCH   4  15
TORSDOF 6
ENDMDL
MODEL 2
REMARK VINA RESULT:      -7.9      0.984      1.358
REMARK  Name = 
REMARK  7 active torsions:
REMARK  status: ('A' for Active; 'I' for Inactive)
REMARK    1  A    between atoms: C_1  and  O_2
REMARK    2  A    between atoms: O_2  and  C_3
REMARK    3  A    between atoms: C_8  and  N_9
REMARK    4  A    between atoms: N_12  and  C_13
REMARK    5  A    between atoms: C_13  and  C_14
REMARK    6  A    between atoms: C_14  and  C_15
REMARK    7  A    between atoms: N_17  and  C_18
REMARK                            x       y       z     vdW  Elec       q    Type
REMARK                         _______ _______ _______ _____ _____    ______ ____
ROOT
ATOM      1  N   UNL     1       4.459   5.301  18.757  0.00  0.00    +0.000 N 
ATOM      2  C   UNL     1       5.794   5.465  19.341  0.00  0.00    +0.000 C 
ATOM      3  C   UNL     1       6.852   4.954  18.337  0.00  0.00    +0.000 C 
ATOM      4  N   UNL     1       6.824   5.624  17.010  0.00  0.00    +0.000 NA
ATOM      5  C   UNL     1       5.434   5.525  16.480  0.00  0.00    +0.000 C 
ATOM      6  C   UNL     1       4.294   5.952  17.447  0.00  0.00    +0.000 C 
ENDROOT
BRANCH   1  12
ATOM      7  C   UNL     1       3.279   3.271  19.566  0.00  0.00    +0.000 A 
ATOM      8  C   UNL     1       2.166   2.716  20.227  0.00  0.00    +0.000 A 
ATOM      9  C   UNL     1       1.177   3.530  20.769  0.00  0.00    +0.000 A 
ATOM     10  C   UNL     1       1.286   4.905  20.650  0.00  0.00    +0.000 A 
ATOM     11  C   UNL     1       2.384   5.463  19.989  0.00  0.00    +0.000 A 
ATOM     12  C   UNL     1       3.410   4.678  19.420  0.00  0.00    +0.000 A 
BRANCH   7  14
ATOM     13  C   UNL     1       3.695   1.282  18.327  0.00  0.00    +0.000 C 
ATOM     14  O   UNL     1       4.207   2.457  18.950  0.00  0.00    +0.000 OA
ENDBRANCH   7  14
ENDBRANCH   1  12
BRANCH   4  15
ATOM     15  C   UNL     1       7.231   7.037  17.067  0.00  0.00    +0.000 C 
BRANCH  15  16
ATOM     16  C   UNL     1       8.071   7.396  18.296  0.00  0.00    +0.000 C 
BRANCH  16  17
ATOM     17  C   UNL     1       8.319   8.889  18.300  0.00  0.00    +0.000 C 
ATOM     18  O   UNL     1       7.700   9.643  17.552  0.00  0.00    +0.000 OA
ATOM     19  N   UNL     1       9.284   9.274  19.212  0.00  0.00    +0.000 N 
ATOM     20  H   UNL     1       9.871   8.548  19.604  0.00  0.00    +0.000 HD
BRANCH  19  21
ATOM     21  C   UNL     1       9.630  10.610  19.505  0.00  0.00    +0.000 A 
ATOM     22  C   UNL     1      10.203  11.468  18.556  0.00  0.00    +0.000 A 
ATOM     23  C   UNL     1      10.572  12.770  18.894  0.00  0.00    +0.000 A 
ATOM     24  C   UNL     1      10.358  13.231  20.187  0.00  0.00    +0.000 A 
ATOM     25  C   UNL     1       9.759  12.392  21.119  0.00  0.00    +0.000 A 
ATOM     26  F   UNL     1       9.549  12.840  22.364  0.00  0.00    +0.000 F 
ATOM     27  C   UNL     1       9.381  11.092  20.790  0.00  0.00    +0.000 A 
ENDBRANCH  19  21
ENDBRANCH  16  17
ENDBRANCH  15  16
ENDBRANCH   4  15
TORSDOF 6
ENDMDL
MODEL 3
REMARK VINA RESULT:      -7.9      1.425      2.302
REMARK  Name = 
REMARK  7 active torsions:
REMARK  status: ('A' for Active; 'I' for Inactive)
REMARK    1  A    between atoms: C_1  and  O_2
REMARK    2  A    between atoms: O_2  and  C_3
REMARK    3  A    between atoms: C_8  and  N_9
REMARK    4  A    between atoms: N_12  and  C_13
REMARK    5  A    between atoms: C_13  and  C_14
REMARK    6  A    between atoms: C_14  and  C_15
REMARK    7  A    between atoms: N_17  and  C_18
REMARK                            x       y       z     vdW  Elec       q    Type
REMARK                         _______ _______ _______ _____ _____    ______ ____
ROOT
ATOM      1  N   UNL     1       4.690   5.076  17.960  0.00  0.00    +0.000 N 
ATOM      2  C   UNL     1       5.793   5.366  18.882  0.00  0.00    +0.000 C 
ATOM      3  C   UNL     1       7.136   5.120  18.158  0.00  0.00    +0.000 C 
ATOM      4  N   UNL     1       7.327   5.916  16.916  0.00  0.00    +0.000 NA
ATOM      5  C   UNL     1       6.148   5.677  16.036  0.00  0.00    +0.000 C 
ATOM      6  C   UNL     1       4.749   5.833  16.698  0.00  0.00    +0.000 C 
ENDROOT
BRANCH   1  12
ATOM      7  C   UNL     1       2.697   4.502  19.326  0.00  0.00    +0.000 A 
ATOM      8  C   UNL     1       1.664   3.589  19.612  0.00  0.00    +0.000 A 
ATOM      9  C   UNL     1       1.517   2.421  18.872  0.00  0.00    +0.000 A 
ATOM     10  C   UNL     1       2.403   2.149  17.844  0.00  0.00    +0.000 A 
ATOM     11  C   UNL     1       3.436   3.048  17.559  0.00  0.00    +0.000 A 
ATOM     12  C   UNL     1       3.627   4.244  18.284  0.00  0.00    +0.000 A 
BRANCH   7  14
ATOM     13  C   UNL     1       2.310   6.826  19.657  0.00  0.00    +0.000 C 
ATOM     14  O   UNL     1       2.893   5.611  20.122  0.00  0.00    +0.000 OA
ENDBRANCH   7  14
ENDBRANCH   1  12
BRANCH   4  15
ATOM     15  C   UNL     1       7.468   7.358  17.170  0.00  0.00    +0.000 C 
BRANCH  15  16
ATOM     16  C   UNL     1       8.233   7.695  18.454  0.00  0.00    +0.000 C 
BRANCH  16  17
ATOM     17  C   UNL     1       8.503   9.183  18.487  0.00  0.00    +0.000 C 
ATOM     18  O   UNL     1       7.924   9.957  17.726  0.00  0.00    +0.000 OA
ATOM     19  N   UNL     1       9.438   9.541  19.439  0.00  0.00    +0.000 N 
ATOM     20  H   UNL     1       9.999   8.801  19.844  0.00  0.00    +0.000 HD
BRANCH  19  21
ATOM     21  C   UNL     1       9.794  10.868  19.763  0.00  0.00    +0.000 A 
ATOM     22  C   UNL     1      10.602  11.658  18.933  0.00  0.00    +0.000 A 
ATOM     23  C   UNL     1      10.968  12.951  19.306  0.00  0.00    +0.000 A 
ATOM     24  C   UNL     1      10.516  13.472  20.512  0.00  0.00    +0.000 A 
ATOM     25  C   UNL     1       9.688  12.702  21.320  0.00  0.00    +0.000 A 
ATOM     26  F   UNL     1       9.251  13.207  22.480  0.00  0.00    +0.000 F 
ATOM     27  C   UNL     1       9.312  11.411  20.954  0.00  0.00    +0.000 A 
ENDBRANCH  19  21
ENDBRANCH  16  17
ENDBRANCH  15  16
ENDBRANCH   4  15
TORSDOF 6
ENDMDL
MODEL 4
REMARK VINA RESULT:      -7.8      1.198      1.951
REMARK  Name = 
REMARK  7 active torsions:
REMARK  status: ('A' for Active; 'I' for Inactive)
REMARK    1  A    between atoms: C_1  and  O_2
REMARK    2  A    between atoms: O_2  and  C_3
REMARK    3  A    between atoms: C_8  and  N_9
REMARK    4  A    between atoms: N_12  and  C_13
REMARK    5  A    between atoms: C_13  and  C_14
REMARK    6  A    between atoms: C_14  and  C_15
REMARK    7  A    between atoms: N_17  and  C_18
REMARK                            x       y       z     vdW  Elec       q    Type
REMARK                         _______ _______ _______ _____ _____    ______ ____
ROOT
ATOM      1  N   UNL     1       4.571   5.216  17.966  0.00  0.00    +0.000 N 
ATOM      2  C   UNL     1       5.798   5.326  18.762  0.00  0.00    +0.000 C 
ATOM      3  C   UNL     1       7.015   5.390  17.812  0.00  0.00    +0.000 C 
ATOM      4  N   UNL     1       6.979   6.506  16.831  0.00  0.00    +0.000 NA
ATOM      5  C   UNL     1       5.683   6.428  16.100  0.00  0.00    +0.000 C 
ATOM      6  C   UNL     1       4.404   6.291  16.974  0.00  0.00    +0.000 C 
ENDROOT
BRANCH   1  12
ATOM      7  C   UNL     1       2.328   4.511  18.764  0.00  0.00    +0.000 A 
ATOM      8  C   UNL     1       1.411   3.466  18.989  0.00  0.00    +0.000 A 
ATOM      9  C   UNL     1       1.721   2.155  18.643  0.00  0.00    +0.000 A 
ATOM     10  C   UNL     1       2.952   1.873  18.075  0.00  0.00    +0.000 A 
ATOM     11  C   UNL     1       3.870   2.905  17.854  0.00  0.00    +0.000 A 
ATOM     12  C   UNL     1       3.602   4.249  18.192  0.00  0.00    +0.000 A 
BRANCH   7  14
ATOM     13  C   UNL     1       1.866   5.955  20.597  0.00  0.00    +0.000 C 
ATOM     14  O   UNL     1       2.052   5.792  19.193  0.00  0.00    +0.000 OA
ENDBRANCH   7  14
ENDBRANCH   1  12
BRANCH   4  15
ATOM     15  C   UNL     1       7.113   7.831  17.458  0.00  0.00    +0.000 C 
BRANCH  15  16
ATOM     16  C   UNL     1       8.345   7.976  18.356  0.00  0.00    +0.000 C 
BRANCH  16  17
ATOM     17  C   UNL     1       8.622   9.447  18.574  0.00  0.00    +0.000 C 
ATOM     18  O   UNL     1       8.196  10.301  17.799  0.00  0.00    +0.000 OA
ATOM     19  N   UNL     1       9.377   9.693  19.705  0.00  0.00    +0.000 N 
ATOM     20  H   UNL     1       9.849   8.905  20.132  0.00  0.00    +0.000 HD
BRANCH  19  21
ATOM     21  C   UNL     1       9.684  10.976  20.208  0.00  0.00    +0.000 A 
ATOM     22  C   UNL     1       8.946  11.582  21.234  0.00  0.00    +0.000 A 
ATOM     23  C   UNL     1       9.253  12.869  21.675  0.00  0.00    +0.000 A 
ATOM     24  C   UNL     1      10.311  13.560  21.098  0.00  0.00    +0.000 A 
ATOM     25  C   UNL     1      11.064  12.947  20.103  0.00  0.00    +0.000 A 
ATOM     26  F   UNL     1      12.086  13.612  19.552  0.00  0.00    +0.000 F 
ATOM     27  C   UNL     1      10.770  11.659  19.660  0.00  0.00    +0.000 A 
ENDBRANCH  19  21
ENDBRANCH  16  17
ENDBRANCH  15  16
ENDBRANCH   4  15
TORSDOF 6
ENDMDL
MODEL 5
REMARK VINA RESULT:      -7.7      1.753      2.437
REMARK  Name = 
REMARK  7 active torsions:
REMARK  status: ('A' for Active; 'I' for Inactive)
REMARK    1  A    between atoms: C_1  and  O_2
REMARK    2  A    between atoms: O_2  and  C_3
REMARK    3  A    between atoms: C_8  and  N_9
REMARK    4  A    between atoms: N_12  and  C_13
REMARK    5  A    between atoms: C_13  and  C_14
REMARK    6  A    between atoms: C_14  and  C_15
REMARK    7  A    between atoms: N_17  and  C_18
REMARK                            x       y       z     vdW  Elec       q    Type
REMARK                         _______ _______ _______ _____ _____    ______ ____
ROOT
ATOM      1  N   UNL     1       5.011   5.270  18.279  0.00  0.00    +0.000 N 
ATOM      2  C   UNL     1       6.193   5.008  19.106  0.00  0.00    +0.000 C 
ATOM      3  C   UNL     1       7.455   5.043  18.214  0.00  0.00    +0.000 C 
ATOM      4  N   UNL     1       7.659   6.318  17.478  0.00  0.00    +0.000 NA
ATOM      5  C   UNL     1       6.410   6.611  16.719  0.00  0.00    +0.000 C 
ATOM      6  C   UNL     1       5.079   6.530  17.520  0.00  0.00    +0.000 C 
ENDROOT
BRANCH   1  12
ATOM      7  C   UNL     1       2.624   4.847  18.816  0.00  0.00    +0.000 A 
ATOM      8  C   UNL     1       1.536   3.953  18.812  0.00  0.00    +0.000 A 
ATOM      9  C   UNL     1       1.660   2.677  18.273  0.00  0.00    +0.000 A 
ATOM     10  C   UNL     1       2.874   2.278  17.739  0.00  0.00    +0.000 A 
ATOM     11  C   UNL     1       3.961   3.158  17.746  0.00  0.00    +0.000 A 
ATOM     12  C   UNL     1       3.884   4.460  18.284  0.00  0.00    +0.000 A 
BRANCH   7  14
ATOM     13  C   UNL     1       1.796   6.100  20.661  0.00  0.00    +0.000 C 
ATOM     14  O   UNL     1       2.521   6.075  19.435  0.00  0.00    +0.000 OA
ENDBRANCH   7  14
ENDBRANCH   1  12
BRANCH   4  15
ATOM     15  C   UNL     1       7.975   7.452  18.362  0.00  0.00    +0.000 C 
BRANCH  15  16
ATOM     16  C   UNL     1       8.050   8.803  17.643  0.00  0.00    +0.000 C 
BRANCH  16  17
ATOM     17  C   UNL     1       8.847   9.766  18.494  0.00  0.00    +0.000 C 
ATOM     18  O   UNL     1       9.085   9.532  19.678  0.00  0.00    +0.000 OA
ATOM     19  N   UNL     1       9.256  10.889  17.799  0.00  0.00    +0.000 N 
ATOM     20  H   UNL     1       8.816  11.071  16.905  0.00  0.00    +0.000 HD
BRANCH  19  21
ATOM     21  C   UNL     1      10.107  11.891  18.314  0.00  0.00    +0.000 A 
ATOM     22  C   UNL     1      11.323  11.599  18.946  0.00  0.00    +0.000 A 
ATOM     23  C   UNL     1      12.117  12.613  19.481  0.00  0.00    +0.000 A 
ATOM     24  C   UNL     1      11.704  13.936  19.378  0.00  0.00    +0.000 A 
ATOM     25  C   UNL     1      10.514  14.229  18.723  0.00  0.00    +0.000 A 
ATOM     26  F   UNL     1      10.120  15.505  18.621  0.00  0.00    +0.000 F 
ATOM     27  C   UNL     1       9.717  13.224  18.179  0.00  0.00    +0.000 A 
ENDBRANCH  19  21
ENDBRANCH  16  17
ENDBRANCH  15  16
ENDBRANCH   4  15
TORSDOF 6
ENDMDL
MODEL 6
REMARK VINA RESULT:      -7.5      1.374      1.530
REMARK  Name = 
REMARK  7 active torsions:
REMARK  status: ('A' for Active; 'I' for Inactive)
REMARK    1  A    between atoms: C_1  and  O_2
REMARK    2  A    between atoms: O_2  and  C_3
REMARK    3  A    between atoms: C_8  and  N_9
REMARK    4  A    between atoms: N_12  and  C_13
REMARK    5  A    between atoms: C_13  and  C_14
REMARK    6  A    between atoms: C_14  and  C_15
REMARK    7  A    between atoms: N_17  and  C_18
REMARK                            x       y       z     vdW  Elec       q    Type
REMARK                         _______ _______ _______ _____ _____    ______ ____
ROOT
ATOM      1  N   UNL     1       4.678   4.994  18.125  0.00  0.00    +0.000 N 
ATOM      2  C   UNL     1       5.461   5.643  19.183  0.00  0.00    +0.000 C 
ATOM      3  C   UNL     1       6.960   5.337  18.963  0.00  0.00    +0.000 C 
ATOM      4  N   UNL     1       7.493   5.764  17.643  0.00  0.00    +0.000 NA
ATOM      5  C   UNL     1       6.625   5.168  16.587  0.00  0.00    +0.000 C 
ATOM      6  C   UNL     1       5.092   5.364  16.762  0.00  0.00    +0.000 C 
ENDROOT
BRANCH   1  12
ATOM      7  C   UNL     1       3.614   3.020  19.193  0.00  0.00    +0.000 A 
ATOM      8  C   UNL     1       2.460   2.235  19.375  0.00  0.00    +0.000 A 
ATOM      9  C   UNL     1       1.253   2.588  18.781  0.00  0.00    +0.000 A 
ATOM     10  C   UNL     1       1.188   3.724  17.992  0.00  0.00    +0.000 A 
ATOM     11  C   UNL     1       2.333   4.505  17.800  0.00  0.00    +0.000 A 
ATOM     12  C   UNL     1       3.579   4.186  18.380  0.00  0.00    +0.000 A 
BRANCH   7  14
ATOM     13  C   UNL     1       4.803   1.443  20.518  0.00  0.00    +0.000 C 
ATOM     14  O   UNL     1       4.827   2.615  19.708  0.00  0.00    +0.000 OA
ENDBRANCH   7  14
ENDBRANCH   1  12
BRANCH   4  15
ATOM     15  C   UNL     1       7.535   7.226  17.480  0.00  0.00    +0.000 C 
BRANCH  15  16
ATOM     16  C   UNL     1       8.306   7.955  18.585  0.00  0.00    +0.000 C 
BRANCH  16  17
ATOM     17  C   UNL     1       8.456   9.410  18.197  0.00  0.00    +0.000 C 
ATOM     18  O   UNL     1       7.673   9.950  17.418  0.00  0.00    +0.000 OA
ATOM     19  N   UNL     1       9.534  10.023  18.807  0.00  0.00    +0.000 N 
ATOM     20  H   UNL     1      10.224   9.424  19.246  0.00  0.00    +0.000 HD
BRANCH  19  21
ATOM     21  C   UNL     1       9.840  11.398  18.715  0.00  0.00    +0.000 A 
ATOM     22  C   UNL     1       9.405  12.333  19.664  0.00  0.00    +0.000 A 
ATOM     23  C   UNL     1       9.690  13.691  19.516  0.00  0.00    +0.000 A 
ATOM     24  C   UNL     1      10.425  14.124  18.419  0.00  0.00    +0.000 A 
ATOM     25  C   UNL     1      10.884  13.193  17.496  0.00  0.00    +0.000 A 
ATOM     26  F   UNL     1      11.596  13.611  16.442  0.00  0.00    +0.000 F 
ATOM     27  C   UNL     1      10.611  11.834  17.637  0.00  0.00    +0.000 A 
ENDBRANCH  19  21
ENDBRANCH  16  17
ENDBRANCH  15  16
ENDBRANCH   4  15
TORSDOF 6
ENDMDL
MODEL 7
REMARK VINA RESULT:      -7.5      4.547      7.136
REMARK  Name = 
REMARK  7 active torsions:
REMARK  status: ('A' for Active; 'I' for Inactive)
REMARK    1  A    between atoms: C_1  and  O_2
REMARK    2  A    between atoms: O_2  and  C_3
REMARK    3  A    between atoms: C_8  and  N_9
REMARK    4  A    between atoms: N_12  and  C_13
REMARK    5  A    between atoms: C_13  and  C_14
REMARK    6  A    between atoms: C_14  and  C_15
REMARK    7  A    between atoms: N_17  and  C_18
REMARK                            x       y       z     vdW  Elec       q    Type
REMARK                         _______ _______ _______ _____ _____    ______ ____
ROOT
ATOM      1  N   UNL     1       4.347   3.626  17.891  0.00  0.00    +0.000 N 
ATOM      2  C   UNL     1       2.960   3.265  17.581  0.00  0.00    +0.000 C 
ATOM      3  C   UNL     1       2.657   1.867  18.168  0.00  0.00    +0.000 C 
ATOM      4  N   UNL     1       2.865   1.752  19.635  0.00  0.00    +0.000 NA
ATOM      5  C   UNL     1       4.250   2.214  19.937  0.00  0.00    +0.000 C 
ATOM      6  C   UNL     1       4.670   3.582  19.327  0.00  0.00    +0.000 C 
ENDROOT
BRANCH   1  12
ATOM      7  C   UNL     1       6.561   4.535  17.226  0.00  0.00    +0.000 A 
ATOM      8  C   UNL     1       7.404   5.000  16.200  0.00  0.00    +0.000 A 
ATOM      9  C   UNL     1       6.983   5.003  14.874  0.00  0.00    +0.000 A 
ATOM     10  C   UNL     1       5.714   4.548  14.561  0.00  0.00    +0.000 A 
ATOM     11  C   UNL     1       4.868   4.090  15.576  0.00  0.00    +0.000 A 
ATOM     12  C   UNL     1       5.249   4.072  16.935  0.00  0.00    +0.000 A 
BRANCH   7  14
ATOM     13  C   UNL     1       7.657   5.801  18.916  0.00  0.00    +0.000 C 
ATOM     14  O   UNL     1       6.948   4.621  18.547  0.00  0.00    +0.000 OA
ENDBRANCH   7  14
ENDBRANCH   1  12
BRANCH   4  15
ATOM     15  C   UNL     1       1.901   2.540  20.420  0.00  0.00    +0.000 C 
BRANCH  15  16
ATOM     16  C   UNL     1       2.493   3.804  21.050  0.00  0.00    +0.000 C 
BRANCH  16  17
ATOM     17  C   UNL     1       1.699   5.003  20.581  0.00  0.00    +0.000 C 
ATOM     18  O   UNL     1       0.503   4.915  20.312  0.00  0.00    +0.000 OA
ATOM     19  N   UNL     1       2.458   6.155  20.501  0.00  0.00    +0.000 N 
ATOM     20  H   UNL     1       3.466   6.054  20.533  0.00  0.00    +0.000 HD
BRANCH  19  21
ATOM     21  C   UNL     1       1.949   7.438  20.203  0.00  0.00    +0.000 A 
ATOM     22  C   UNL     1       1.248   8.209  21.140  0.00  0.00    +0.000 A 
ATOM     23  C   UNL     1       0.722   9.454  20.795  0.00  0.00    +0.000 A 
ATOM     24  C   UNL     1       0.905   9.945  19.509  0.00  0.00    +0.000 A 
ATOM     25  C   UNL     1       1.629   9.196  18.589  0.00  0.00    +0.000 A 
ATOM     26  F   UNL     1       1.808   9.674  17.351  0.00  0.00    +0.000 F 
ATOM     27  C   UNL     1       2.164   7.954  18.925  0.00  0.00    +0.000 A 
ENDBRANCH  19  21
ENDBRANCH  16  17
ENDBRANCH  15  16
ENDBRANCH   4  15
TORSDOF 6
ENDMDL
MODEL 8
REMARK VINA RESULT:      -7.2      1.849      2.606
REMARK  Name = 
REMARK  7 active torsions:
REMARK  status: ('A' for Active; 'I' for Inactive)
REMARK    1  A    between atoms: C_1  and  O_2
REMARK    2  A    between atoms: O_2  and  C_3
REMARK    3  A    between atoms: C_8  and  N_9
REMARK    4  A    between atoms: N_12  and  C_13
REMARK    5  A    between atoms: C_13  and  C_14
REMARK    6  A    between atoms: C_14  and  C_15
REMARK    7  A    between atoms: N_17  and  C_18
REMARK                            x       y       z     vdW  Elec       q    Type
REMARK                         _______ _______ _______ _____ _____    ______ ____
ROOT
ATOM      1  N   UNL     1       4.823   5.283  18.215  0.00  0.00    +0.000 N 
ATOM      2  C   UNL     1       6.164   5.333  18.806  0.00  0.00    +0.000 C 
ATOM      3  C   UNL     1       7.200   5.594  17.690  0.00  0.00    +0.000 C 
ATOM      4  N   UNL     1       6.974   6.841  16.912  0.00  0.00    +0.000 NA
ATOM      5  C   UNL     1       5.574   6.809  16.400  0.00  0.00    +0.000 C 
ATOM      6  C   UNL     1       4.465   6.483  17.441  0.00  0.00    +0.000 C 
ENDROOT
BRANCH   1  12
ATOM      7  C   UNL     1       2.979   4.230  19.504  0.00  0.00    +0.000 A 
ATOM      8  C   UNL     1       2.127   3.125  19.688  0.00  0.00    +0.000 A 
ATOM      9  C   UNL     1       2.178   2.031  18.831  0.00  0.00    +0.000 A 
ATOM     10  C   UNL     1       3.085   2.026  17.786  0.00  0.00    +0.000 A 
ATOM     11  C   UNL     1       3.940   3.117  17.600  0.00  0.00    +0.000 A 
ATOM     12  C   UNL     1       3.928   4.247  18.445  0.00  0.00    +0.000 A 
BRANCH   7  14
ATOM     13  C   UNL     1       1.810   6.069  20.457  0.00  0.00    +0.000 C 
ATOM     14  O   UNL     1       2.988   5.269  20.410  0.00  0.00    +0.000 OA
ENDBRANCH   7  14
ENDBRANCH   1  12
BRANCH   4  15
ATOM     15  C   UNL     1       7.182   8.063  17.704  0.00  0.00    +0.000 C 
BRANCH  15  16
ATOM     16  C   UNL     1       8.528   8.114  18.433  0.00  0.00    +0.000 C 
BRANCH  16  17
ATOM     17  C   UNL     1       8.829   9.549  18.805  0.00  0.00    +0.000 C 
ATOM     18  O   UNL     1       8.939   9.898  19.978  0.00  0.00    +0.000 OA
ATOM     19  N   UNL     1       8.961  10.375  17.704  0.00  0.00    +0.000 N 
ATOM     20  H   UNL     1       8.633  10.022  16.813  0.00  0.00    +0.000 HD
BRANCH  19  21
ATOM     21  C   UNL     1       9.353  11.730  17.755  0.00  0.00    +0.000 A 
ATOM     22  C   UNL     1      10.697  12.127  17.790  0.00  0.00    +0.000 A 
ATOM     23  C   UNL     1      11.045  13.475  17.885  0.00  0.00    +0.000 A 
ATOM     24  C   UNL     1      10.048  14.441  17.932  0.00  0.00    +0.000 A 
ATOM     25  C   UNL     1       8.716  14.050  17.863  0.00  0.00    +0.000 A 
ATOM     26  F   UNL     1       7.757  14.983  17.905  0.00  0.00    +0.000 F 
ATOM     27  C   UNL     1       8.358  12.707  17.763  0.00  0.00    +0.000 A 
ENDBRANCH  19  21
ENDBRANCH  16  17
ENDBRANCH  15  16
ENDBRANCH   4  15
TORSDOF 6
ENDMDL
MODEL 9
REMARK VINA RESULT:      -7.2      1.513      1.981
REMARK  Name = 
REMARK  7 active torsions:
REMARK  status: ('A' for Active; 'I' for Inactive)
REMARK    1  A    between atoms: C_1  and  O_2
REMARK    2  A    between atoms: O_2  and  C_3
REMARK    3  A    between atoms: C_8  and  N_9
REMARK    4  A    between atoms: N_12  and  C_13
REMARK    5  A    between atoms: C_13  and  C_14
REMARK    6  A    between atoms: C_14  and  C_15
REMARK    7  A    between atoms: N_17  and  C_18
REMARK                            x       y       z     vdW  Elec       q    Type
REMARK                         _______ _______ _______ _____ _____    ______ ____
ROOT
ATOM      1  N   UNL     1       4.517   4.644  17.940  0.00  0.00    +0.000 N 
ATOM      2  C   UNL     1       5.309   4.340  16.744  0.00  0.00    +0.000 C 
ATOM      3  C   UNL     1       5.380   5.598  15.849  0.00  0.00    +0.000 C 
ATOM      4  N   UNL     1       5.954   6.799  16.511  0.00  0.00    +0.000 NA
ATOM      5  C   UNL     1       5.193   7.032  17.771  0.00  0.00    +0.000 C 
ATOM      6  C   UNL     1       5.009   5.802  18.705  0.00  0.00    +0.000 C 
ENDROOT
BRANCH   1  12
ATOM      7  C   UNL     1       3.570   2.853  19.376  0.00  0.00    +0.000 A 
ATOM      8  C   UNL     1       2.456   2.072  19.738  0.00  0.00    +0.000 A 
ATOM      9  C   UNL     1       1.217   2.272  19.137  0.00  0.00    +0.000 A 
ATOM     10  C   UNL     1       1.081   3.248  18.165  0.00  0.00    +0.000 A 
ATOM     11  C   UNL     1       2.185   4.023  17.796  0.00  0.00    +0.000 A 
ATOM     12  C   UNL     1       3.461   3.855  18.374  0.00  0.00    +0.000 A 
BRANCH   7  14
ATOM     13  C   UNL     1       4.891   1.483  20.804  0.00  0.00    +0.000 C 
ATOM     14  O   UNL     1       4.815   2.588  19.908  0.00  0.00    +0.000 OA
ENDBRANCH   7  14
ENDBRANCH   1  12
BRANCH   4  15
ATOM     15  C   UNL     1       7.387   6.660  16.819  0.00  0.00    +0.000 C 
BRANCH  15  16
ATOM     16  C   UNL     1       7.781   7.181  18.205  0.00  0.00    +0.000 C 
BRANCH  16  17
ATOM     17  C   UNL     1       8.184   8.634  18.084  0.00  0.00    +0.000 C 
ATOM     18  O   UNL     1       7.744   9.350  17.186  0.00  0.00    +0.000 OA
ATOM     19  N   UNL     1       9.067   9.033  19.070  0.00  0.00    +0.000 N 
ATOM     20  H   UNL     1       9.522   8.307  19.611  0.00  0.00    +0.000 HD
BRANCH  19  21
ATOM     21  C   UNL     1       9.516  10.358  19.264  0.00  0.00    +0.000 A 
ATOM     22  C   UNL     1      10.036  11.139  18.223  0.00  0.00    +0.000 A 
ATOM     23  C   UNL     1      10.510  12.429  18.461  0.00  0.00    +0.000 A 
ATOM     24  C   UNL     1      10.456  12.955  19.746  0.00  0.00    +0.000 A 
ATOM     25  C   UNL     1       9.910  12.193  20.772  0.00  0.00    +0.000 A 
ATOM     26  F   UNL     1       9.856  12.703  22.009  0.00  0.00    +0.000 F 
ATOM     27  C   UNL     1       9.429  10.905  20.544  0.00  0.00    +0.000 A 
ENDBRANCH  19  21
ENDBRANCH  16  17
ENDBRANCH  15  16
ENDBRANCH   4  15
TORSDOF 6
ENDMDL
