MODEL 1
REMARK VINA RESULT:      -8.3      0.000      0.000
REMARK  Name = 
REMARK  6 active torsions:
REMARK  status: ('A' for Active; 'I' for Inactive)
REMARK    1  A    between atoms: C_1  and  C_2
REMARK    2  A    between atoms: C_2  and  O_4
REMARK    3  A    between atoms: O_4  and  N_5
REMARK    4  A    between atoms: C_9  and  C_10
REMARK    5  A    between atoms: C_12  and  C_13
REMARK    6  A    between atoms: C_15  and  C_16
REMARK                            x       y       z     vdW  Elec       q    Type
REMARK                         _______ _______ _______ _____ _____    ______ ____
ROOT
ATOM      1  N   UNL     1       3.139   5.839  19.747  0.00  0.00    +0.000 N 
ATOM      2  C   UNL     1       3.859   5.494  18.618  0.00  0.00    +0.000 C 
ATOM      3  O   UNL     1       4.352   4.422  18.332  0.00  0.00    +0.000 OA
ATOM      4  C   UNL     1       3.768   6.746  17.756  0.00  0.00    +0.000 C 
ATOM      5  C   UNL     1       4.456   7.016  16.634  0.00  0.00    +0.000 C 
ATOM      6  C   UNL     1       2.797   7.649  18.403  0.00  0.00    +0.000 A 
ATOM      7  C   UNL     1       2.230   8.865  18.058  0.00  0.00    +0.000 A 
ATOM      8  C   UNL     1       1.293   9.436  18.933  0.00  0.00    +0.000 A 
ATOM      9  C   UNL     1       0.921   8.791  20.123  0.00  0.00    +0.000 A 
ATOM     10  C   UNL     1       1.481   7.571  20.459  0.00  0.00    +0.000 A 
ATOM     11  C   UNL     1       2.425   7.026  19.597  0.00  0.00    +0.000 A 
ENDROOT
BRANCH   5  12
ATOM     12  C   UNL     1       5.448   6.143  16.126  0.00  0.00    +0.000 A 
ATOM     13  N   UNL     1       5.179   5.425  14.987  0.00  0.00    +0.000 N 
ATOM     14  C   UNL     1       6.238   4.598  14.695  0.00  0.00    +0.000 A 
ATOM     15  C   UNL     1       6.205   3.635  13.568  0.00  0.00    +0.000 C 
ATOM     16  C   UNL     1       7.213   4.832  15.641  0.00  0.00    +0.000 A 
ATOM     17  C   UNL     1       6.720   5.806  16.554  0.00  0.00    +0.000 A 
ATOM     18  C   UNL     1       7.425   6.315  17.759  0.00  0.00    +0.000 C 
ATOM     19  H   UNL     1       4.308   5.451  14.476  0.00  0.00    +0.000 HD
ENDBRANCH   5  12
BRANCH   1  20
ATOM     20  O   UNL     1       2.729   4.901  20.698  0.00  0.00    +0.000 OA
BRANCH  20  22
ATOM     21  C   UNL     1       1.473   3.025  21.256  0.00  0.00    +0.000 C 
ATOM     22  C   UNL     1       1.707   4.105  20.247  0.00  0.00    +0.000 C 
ATOM     23  O   UNL     1       1.180   4.144  19.142  0.00  0.00    +0.000 OA
ENDBRANCH  20  22
ENDBRANCH   1  20
TORSDOF 3
ENDMDL
MODEL 2
REMARK VINA RESULT:      -8.3      1.260      1.553
REMARK  Name = 
REMARK  6 active torsions:
REMARK  status: ('A' for Active; 'I' for Inactive)
REMARK    1  A    between atoms: C_1  and  C_2
REMARK    2  A    between atoms: C_2  and  O_4
REMARK    3  A    between atoms: O_4  and  N_5
REMARK    4  A    between atoms: C_9  and  C_10
REMARK    5  A    between atoms: C_12  and  C_13
REMARK    6  A    between atoms: C_15  and  C_16
REMARK                            x       y       z     vdW  Elec       q    Type
REMARK                         _______ _______ _______ _____ _____    ______ ____
ROOT
ATOM      1  N   UNL     1       2.854   4.214  19.255  0.00  0.00    +0.000 N 
ATOM      2  C   UNL     1       3.611   4.197  18.099  0.00  0.00    +0.000 C 
ATOM      3  O   UNL     1       3.931   3.244  17.417  0.00  0.00    +0.000 OA
ATOM      4  C   UNL     1       3.834   5.675  17.810  0.00  0.00    +0.000 C 
ATOM      5  C   UNL     1       4.668   6.214  16.907  0.00  0.00    +0.000 C 
ATOM      6  C   UNL     1       2.979   6.433  18.745  0.00  0.00    +0.000 A 
ATOM      7  C   UNL     1       2.676   7.775  18.906  0.00  0.00    +0.000 A 
ATOM      8  C   UNL     1       1.773   8.139  19.916  0.00  0.00    +0.000 A 
ATOM      9  C   UNL     1       1.174   7.172  20.739  0.00  0.00    +0.000 A 
ATOM     10  C   UNL     1       1.469   5.831  20.568  0.00  0.00    +0.000 A 
ATOM     11  C   UNL     1       2.383   5.484  19.580  0.00  0.00    +0.000 A 
ENDROOT
BRANCH   5  12
ATOM     12  C   UNL     1       5.535   5.424  16.112  0.00  0.00    +0.000 A 
ATOM     13  N   UNL     1       5.145   5.092  14.838  0.00  0.00    +0.000 N 
ATOM     14  C   UNL     1       6.091   4.279  14.259  0.00  0.00    +0.000 A 
ATOM     15  C   UNL     1       5.908   3.684  12.913  0.00  0.00    +0.000 C 
ATOM     16  C   UNL     1       7.118   4.132  15.167  0.00  0.00    +0.000 A 
ATOM     17  C   UNL     1       6.773   4.852  16.346  0.00  0.00    +0.000 A 
ATOM     18  C   UNL     1       7.571   4.923  17.596  0.00  0.00    +0.000 C 
ATOM     19  H   UNL     1       4.267   5.351  14.412  0.00  0.00    +0.000 HD
ENDBRANCH   5  12
BRANCH   1  20
ATOM     20  O   UNL     1       2.188   3.085  19.740  0.00  0.00    +0.000 OA
BRANCH  20  22
ATOM     21  C   UNL     1       1.684   2.543  21.945  0.00  0.00    +0.000 C 
ATOM     22  C   UNL     1       2.747   2.597  20.893  0.00  0.00    +0.000 C 
ATOM     23  O   UNL     1       3.937   2.396  21.103  0.00  0.00    +0.000 OA
ENDBRANCH  20  22
ENDBRANCH   1  20
TORSDOF 3
ENDMDL
MODEL 3
REMARK VINA RESULT:      -8.1      2.183      6.243
REMARK  Name = 
REMARK  6 active torsions:
REMARK  status: ('A' for Active; 'I' for Inactive)
REMARK    1  A    between atoms: C_1  and  C_2
REMARK    2  A    between atoms: C_2  and  O_4
REMARK    3  A    between atoms: O_4  and  N_5
REMARK    4  A    between atoms: C_9  and  C_10
REMARK    5  A    between atoms: C_12  and  C_13
REMARK    6  A    between atoms: C_15  and  C_16
REMARK                            x       y       z     vdW  Elec       q    Type
REMARK                         _______ _______ _______ _____ _____    ______ ____
ROOT
ATOM      1  N   UNL     1       2.281   6.099  19.987  0.00  0.00    +0.000 N 
ATOM      2  C   UNL     1       1.715   7.357  20.083  0.00  0.00    +0.000 C 
ATOM      3  O   UNL     1       1.102   7.843  21.012  0.00  0.00    +0.000 OA
ATOM      4  C   UNL     1       2.163   8.036  18.796  0.00  0.00    +0.000 C 
ATOM      5  C   UNL     1       1.733   9.206  18.298  0.00  0.00    +0.000 C 
ATOM      6  C   UNL     1       3.150   7.145  18.157  0.00  0.00    +0.000 A 
ATOM      7  C   UNL     1       3.967   7.249  17.043  0.00  0.00    +0.000 A 
ATOM      8  C   UNL     1       4.826   6.180  16.743  0.00  0.00    +0.000 A 
ATOM      9  C   UNL     1       4.874   5.036  17.554  0.00  0.00    +0.000 A 
ATOM     10  C   UNL     1       4.065   4.939  18.673  0.00  0.00    +0.000 A 
ATOM     11  C   UNL     1       3.202   5.994  18.947  0.00  0.00    +0.000 A 
ENDROOT
BRANCH   5  12
ATOM     12  C   UNL     1       0.706   9.960  18.917  0.00  0.00    +0.000 A 
ATOM     13  N   UNL     1       0.964  10.564  20.123  0.00  0.00    +0.000 N 
ATOM     14  C   UNL     1      -0.170  11.192  20.582  0.00  0.00    +0.000 A 
ATOM     15  C   UNL     1      -0.226  11.861  21.905  0.00  0.00    +0.000 C 
ATOM     16  C   UNL     1      -1.149  11.020  19.627  0.00  0.00    +0.000 A 
ATOM     17  C   UNL     1      -0.604  10.238  18.570  0.00  0.00    +0.000 A 
ATOM     18  C   UNL     1      -1.329   9.772  17.360  0.00  0.00    +0.000 C 
ATOM     19  H   UNL     1       1.836  10.504  20.629  0.00  0.00    +0.000 HD
ENDBRANCH   5  12
BRANCH   1  20
ATOM     20  O   UNL     1       2.357   5.220  21.070  0.00  0.00    +0.000 OA
BRANCH  20  22
ATOM     21  C   UNL     1       2.257   2.953  21.582  0.00  0.00    +0.000 C 
ATOM     22  C   UNL     1       1.583   4.101  20.898  0.00  0.00    +0.000 C 
ATOM     23  O   UNL     1       0.601   3.994  20.174  0.00  0.00    +0.000 OA
ENDBRANCH  20  22
ENDBRANCH   1  20
TORSDOF 3
ENDMDL
MODEL 4
REMARK VINA RESULT:      -8.0      1.784      5.936
REMARK  Name = 
REMARK  6 active torsions:
REMARK  status: ('A' for Active; 'I' for Inactive)
REMARK    1  A    between atoms: C_1  and  C_2
REMARK    2  A    between atoms: C_2  and  O_4
REMARK    3  A    between atoms: O_4  and  N_5
REMARK    4  A    between atoms: C_9  and  C_10
REMARK    5  A    between atoms: C_12  and  C_13
REMARK    6  A    between atoms: C_15  and  C_16
REMARK                            x       y       z     vdW  Elec       q    Type
REMARK                         _______ _______ _______ _____ _____    ______ ____
ROOT
ATOM      1  N   UNL     1       2.723   4.931  19.043  0.00  0.00    +0.000 N 
ATOM      2  C   UNL     1       2.228   6.105  19.579  0.00  0.00    +0.000 C 
ATOM      3  O   UNL     1       1.648   6.271  20.633  0.00  0.00    +0.000 OA
ATOM      4  C   UNL     1       2.705   7.162  18.594  0.00  0.00    +0.000 C 
ATOM      5  C   UNL     1       2.337   8.453  18.539  0.00  0.00    +0.000 C 
ATOM      6  C   UNL     1       3.638   6.498  17.663  0.00  0.00    +0.000 A 
ATOM      7  C   UNL     1       4.453   6.939  16.633  0.00  0.00    +0.000 A 
ATOM      8  C   UNL     1       5.250   5.998  15.963  0.00  0.00    +0.000 A 
ATOM      9  C   UNL     1       5.239   4.644  16.330  0.00  0.00    +0.000 A 
ATOM     10  C   UNL     1       4.434   4.208  17.366  0.00  0.00    +0.000 A 
ATOM     11  C   UNL     1       3.631   5.145  18.008  0.00  0.00    +0.000 A 
ENDROOT
BRANCH   5  12
ATOM     12  C   UNL     1       1.358   8.997  19.405  0.00  0.00    +0.000 A 
ATOM     13  N   UNL     1       1.562   8.931  20.761  0.00  0.00    +0.000 N 
ATOM     14  C   UNL     1       0.477   9.456  21.423  0.00  0.00    +0.000 A 
ATOM     15  C   UNL     1       0.368   9.443  22.902  0.00  0.00    +0.000 C 
ATOM     16  C   UNL     1      -0.409   9.904  20.466  0.00  0.00    +0.000 A 
ATOM     17  C   UNL     1       0.139   9.614  19.184  0.00  0.00    +0.000 A 
ATOM     18  C   UNL     1      -0.507   9.880  17.874  0.00  0.00    +0.000 C 
ATOM     19  H   UNL     1       2.360   8.503  21.208  0.00  0.00    +0.000 HD
ENDBRANCH   5  12
BRANCH   1  20
ATOM     20  O   UNL     1       2.758   3.729  19.755  0.00  0.00    +0.000 OA
BRANCH  20  22
ATOM     21  C   UNL     1       1.226   2.764  21.215  0.00  0.00    +0.000 C 
ATOM     22  C   UNL     1       1.539   3.102  19.791  0.00  0.00    +0.000 C 
ATOM     23  O   UNL     1       0.882   2.719  18.830  0.00  0.00    +0.000 OA
ENDBRANCH  20  22
ENDBRANCH   1  20
TORSDOF 3
ENDMDL
MODEL 5
REMARK VINA RESULT:      -7.7      1.809      3.486
REMARK  Name = 
REMARK  6 active torsions:
REMARK  status: ('A' for Active; 'I' for Inactive)
REMARK    1  A    between atoms: C_1  and  C_2
REMARK    2  A    between atoms: C_2  and  O_4
REMARK    3  A    between atoms: O_4  and  N_5
REMARK    4  A    between atoms: C_9  and  C_10
REMARK    5  A    between atoms: C_12  and  C_13
REMARK    6  A    between atoms: C_15  and  C_16
REMARK                            x       y       z     vdW  Elec       q    Type
REMARK                         _______ _______ _______ _____ _____    ______ ____
ROOT
ATOM      1  N   UNL     1       2.989   6.234  18.676  0.00  0.00    +0.000 N 
ATOM      2  C   UNL     1       4.101   5.867  17.941  0.00  0.00    +0.000 C 
ATOM      3  O   UNL     1       5.024   6.562  17.566  0.00  0.00    +0.000 OA
ATOM      4  C   UNL     1       3.961   4.355  17.834  0.00  0.00    +0.000 C 
ATOM      5  C   UNL     1       4.673   3.521  17.059  0.00  0.00    +0.000 C 
ATOM      6  C   UNL     1       2.852   3.958  18.724  0.00  0.00    +0.000 A 
ATOM      7  C   UNL     1       2.320   2.742  19.121  0.00  0.00    +0.000 A 
ATOM      8  C   UNL     1       1.250   2.747  20.029  0.00  0.00    +0.000 A 
ATOM      9  C   UNL     1       0.735   3.949  20.540  0.00  0.00    +0.000 A 
ATOM     10  C   UNL     1       1.276   5.161  20.151  0.00  0.00    +0.000 A 
ATOM     11  C   UNL     1       2.321   5.145  19.232  0.00  0.00    +0.000 A 
ENDROOT
BRANCH   5  12
ATOM     12  C   UNL     1       5.656   3.987  16.151  0.00  0.00    +0.000 A 
ATOM     13  N   UNL     1       5.378   3.969  14.807  0.00  0.00    +0.000 N 
ATOM     14  C   UNL     1       6.474   4.401  14.098  0.00  0.00    +0.000 A 
ATOM     15  C   UNL     1       6.506   4.409  12.615  0.00  0.00    +0.000 C 
ATOM     16  C   UNL     1       7.447   4.741  15.013  0.00  0.00    +0.000 A 
ATOM     17  C   UNL     1       6.939   4.479  16.317  0.00  0.00    +0.000 A 
ATOM     18  C   UNL     1       7.673   4.654  17.596  0.00  0.00    +0.000 C 
ATOM     19  H   UNL     1       4.520   3.629  14.395  0.00  0.00    +0.000 HD
ENDBRANCH   5  12
BRANCH   1  20
ATOM     20  O   UNL     1       2.844   7.500  19.248  0.00  0.00    +0.000 OA
BRANCH  20  22
ATOM     21  C   UNL     1       1.188   9.132  19.218  0.00  0.00    +0.000 C 
ATOM     22  C   UNL     1       2.207   8.385  18.416  0.00  0.00    +0.000 C 
ATOM     23  O   UNL     1       2.311   8.451  17.198  0.00  0.00    +0.000 OA
ENDBRANCH  20  22
ENDBRANCH   1  20
TORSDOF 3
ENDMDL
MODEL 6
REMARK VINA RESULT:      -7.7      2.363      6.552
REMARK  Name = 
REMARK  6 active torsions:
REMARK  status: ('A' for Active; 'I' for Inactive)
REMARK    1  A    between atoms: C_1  and  C_2
REMARK    2  A    between atoms: C_2  and  O_4
REMARK    3  A    between atoms: O_4  and  N_5
REMARK    4  A    between atoms: C_9  and  C_10
REMARK    5  A    between atoms: C_12  and  C_13
REMARK    6  A    between atoms: C_15  and  C_16
REMARK                            x       y       z     vdW  Elec       q    Type
REMARK                         _______ _______ _______ _____ _____    ______ ____
ROOT
ATOM      1  N   UNL     1       6.455   6.001  16.579  0.00  0.00    +0.000 N 
ATOM      2  C   UNL     1       5.379   5.680  17.385  0.00  0.00    +0.000 C 
ATOM      3  O   UNL     1       4.942   6.286  18.343  0.00  0.00    +0.000 OA
ATOM      4  C   UNL     1       4.786   4.457  16.698  0.00  0.00    +0.000 C 
ATOM      5  C   UNL     1       3.838   3.633  17.173  0.00  0.00    +0.000 C 
ATOM      6  C   UNL     1       5.479   4.308  15.403  0.00  0.00    +0.000 A 
ATOM      7  C   UNL     1       5.322   3.465  14.315  0.00  0.00    +0.000 A 
ATOM      8  C   UNL     1       6.172   3.637  13.211  0.00  0.00    +0.000 A 
ATOM      9  C   UNL     1       7.148   4.644  13.195  0.00  0.00    +0.000 A 
ATOM     10  C   UNL     1       7.295   5.492  14.278  0.00  0.00    +0.000 A 
ATOM     11  C   UNL     1       6.463   5.299  15.376  0.00  0.00    +0.000 A 
ENDROOT
BRANCH   5  12
ATOM     12  C   UNL     1       3.290   3.779  18.471  0.00  0.00    +0.000 A 
ATOM     13  N   UNL     1       2.385   4.786  18.698  0.00  0.00    +0.000 N 
ATOM     14  C   UNL     1       2.020   4.797  20.023  0.00  0.00    +0.000 A 
ATOM     15  C   UNL     1       1.119   5.829  20.590  0.00  0.00    +0.000 C 
ATOM     16  C   UNL     1       2.674   3.748  20.637  0.00  0.00    +0.000 A 
ATOM     17  C   UNL     1       3.483   3.100  19.661  0.00  0.00    +0.000 A 
ATOM     18  C   UNL     1       4.394   1.951  19.901  0.00  0.00    +0.000 C 
ATOM     19  H   UNL     1       2.079   5.459  18.009  0.00  0.00    +0.000 HD
ENDBRANCH   5  12
BRANCH   1  20
ATOM     20  O   UNL     1       7.135   7.218  16.674  0.00  0.00    +0.000 OA
BRANCH  20  22
ATOM     21  C   UNL     1       8.214   8.795  17.999  0.00  0.00    +0.000 C 
ATOM     22  C   UNL     1       7.787   7.366  17.871  0.00  0.00    +0.000 C 
ATOM     23  O   UNL     1       8.124   6.473  18.638  0.00  0.00    +0.000 OA
ENDBRANCH  20  22
ENDBRANCH   1  20
TORSDOF 3
ENDMDL
MODEL 7
REMARK VINA RESULT:      -7.7      2.041      5.751
REMARK  Name = 
REMARK  6 active torsions:
REMARK  status: ('A' for Active; 'I' for Inactive)
REMARK    1  A    between atoms: C_1  and  C_2
REMARK    2  A    between atoms: C_2  and  O_4
REMARK    3  A    between atoms: O_4  and  N_5
REMARK    4  A    between atoms: C_9  and  C_10
REMARK    5  A    between atoms: C_12  and  C_13
REMARK    6  A    between atoms: C_15  and  C_16
REMARK                            x       y       z     vdW  Elec       q    Type
REMARK                         _______ _______ _______ _____ _____    ______ ____
ROOT
ATOM      1  N   UNL     1       2.481   6.191  19.760  0.00  0.00    +0.000 N 
ATOM      2  C   UNL     1       1.919   7.447  19.629  0.00  0.00    +0.000 C 
ATOM      3  O   UNL     1       1.208   8.044  20.413  0.00  0.00    +0.000 OA
ATOM      4  C   UNL     1       2.517   7.959  18.327  0.00  0.00    +0.000 C 
ATOM      5  C   UNL     1       2.157   9.054  17.637  0.00  0.00    +0.000 C 
ATOM      6  C   UNL     1       3.564   6.999  17.923  0.00  0.00    +0.000 A 
ATOM      7  C   UNL     1       4.503   6.966  16.905  0.00  0.00    +0.000 A 
ATOM      8  C   UNL     1       5.381   5.872  16.844  0.00  0.00    +0.000 A 
ATOM      9  C   UNL     1       5.326   4.841  17.794  0.00  0.00    +0.000 A 
ATOM     10  C   UNL     1       4.394   4.883  18.816  0.00  0.00    +0.000 A 
ATOM     11  C   UNL     1       3.514   5.959  18.854  0.00  0.00    +0.000 A 
ENDROOT
BRANCH   5  12
ATOM     12  C   UNL     1       1.074   9.875  18.034  0.00  0.00    +0.000 A 
ATOM     13  N   UNL     1      -0.207   9.452  17.774  0.00  0.00    +0.000 N 
ATOM     14  C   UNL     1      -1.106  10.410  18.180  0.00  0.00    +0.000 A 
ATOM     15  C   UNL     1      -2.565  10.276  17.950  0.00  0.00    +0.000 C 
ATOM     16  C   UNL     1      -0.382  11.438  18.748  0.00  0.00    +0.000 A 
ATOM     17  C   UNL     1       1.000  11.108  18.657  0.00  0.00    +0.000 A 
ATOM     18  C   UNL     1       2.135  11.958  19.100  0.00  0.00    +0.000 C 
ATOM     19  H   UNL     1      -0.451   8.595  17.299  0.00  0.00    +0.000 HD
ENDBRANCH   5  12
BRANCH   1  20
ATOM     20  O   UNL     1       2.426   5.457  20.948  0.00  0.00    +0.000 OA
BRANCH  20  22
ATOM     21  C   UNL     1       2.240   3.241  21.630  0.00  0.00    +0.000 C 
ATOM     22  C   UNL     1       1.615   4.355  20.850  0.00  0.00    +0.000 C 
ATOM     23  O   UNL     1       0.638   4.226  20.122  0.00  0.00    +0.000 OA
ENDBRANCH  20  22
ENDBRANCH   1  20
TORSDOF 3
ENDMDL
MODEL 8
REMARK VINA RESULT:      -7.7      2.028      6.319
REMARK  Name = 
REMARK  6 active torsions:
REMARK  status: ('A' for Active; 'I' for Inactive)
REMARK    1  A    between atoms: C_1  and  C_2
REMARK    2  A    between atoms: C_2  and  O_4
REMARK    3  A    between atoms: O_4  and  N_5
REMARK    4  A    between atoms: C_9  and  C_10
REMARK    5  A    between atoms: C_12  and  C_13
REMARK    6  A    between atoms: C_15  and  C_16
REMARK                            x       y       z     vdW  Elec       q    Type
REMARK                         _______ _______ _______ _____ _____    ______ ____
ROOT
ATOM      1  N   UNL     1       6.682   4.468  17.832  0.00  0.00    +0.000 N 
ATOM      2  C   UNL     1       5.536   4.743  18.554  0.00  0.00    +0.000 C 
ATOM      3  O   UNL     1       5.435   5.064  19.721  0.00  0.00    +0.000 OA
ATOM      4  C   UNL     1       4.440   4.683  17.499  0.00  0.00    +0.000 C 
ATOM      5  C   UNL     1       3.112   4.687  17.700  0.00  0.00    +0.000 C 
ATOM      6  C   UNL     1       5.107   4.580  16.186  0.00  0.00    +0.000 A 
ATOM      7  C   UNL     1       4.663   4.586  14.874  0.00  0.00    +0.000 A 
ATOM      8  C   UNL     1       5.615   4.492  13.847  0.00  0.00    +0.000 A 
ATOM      9  C   UNL     1       6.987   4.409  14.133  0.00  0.00    +0.000 A 
ATOM     10  C   UNL     1       7.428   4.414  15.444  0.00  0.00    +0.000 A 
ATOM     11  C   UNL     1       6.475   4.484  16.454  0.00  0.00    +0.000 A 
ENDROOT
BRANCH   5  12
ATOM     12  C   UNL     1       2.543   4.686  18.997  0.00  0.00    +0.000 A 
ATOM     13  N   UNL     1       2.296   3.483  19.610  0.00  0.00    +0.000 N 
ATOM     14  C   UNL     1       1.692   3.695  20.827  0.00  0.00    +0.000 A 
ATOM     15  C   UNL     1       1.224   2.580  21.685  0.00  0.00    +0.000 C 
ATOM     16  C   UNL     1       1.598   5.059  21.006  0.00  0.00    +0.000 A 
ATOM     17  C   UNL     1       2.132   5.695  19.850  0.00  0.00    +0.000 A 
ATOM     18  C   UNL     1       2.182   7.158  19.598  0.00  0.00    +0.000 C 
ATOM     19  H   UNL     1       2.472   2.575  19.203  0.00  0.00    +0.000 HD
ENDBRANCH   5  12
BRANCH   1  20
ATOM     20  O   UNL     1       7.966   4.681  18.340  0.00  0.00    +0.000 OA
BRANCH  20  22
ATOM     21  C   UNL     1       8.086   6.994  18.547  0.00  0.00    +0.000 C 
ATOM     22  C   UNL     1       8.005   5.686  19.271  0.00  0.00    +0.000 C 
ATOM     23  O   UNL     1       8.128   5.559  20.483  0.00  0.00    +0.000 OA
ENDBRANCH  20  22
ENDBRANCH   1  20
TORSDOF 3
ENDMDL
MODEL 9
REMARK VINA RESULT:      -7.7      2.059      6.446
REMARK  Name = 
REMARK  6 active torsions:
REMARK  status: ('A' for Active; 'I' for Inactive)
REMARK    1  A    between atoms: C_1  and  C_2
REMARK    2  A    between atoms: C_2  and  O_4
REMARK    3  A    between atoms: O_4  and  N_5
REMARK    4  A    between atoms: C_9  and  C_10
REMARK    5  A    between atoms: C_12  and  C_13
REMARK    6  A    between atoms: C_15  and  C_16
REMARK                            x       y       z     vdW  Elec       q    Type
REMARK                         _______ _______ _______ _____ _____    ______ ____
ROOT
ATOM      1  N   UNL     1       6.714   5.252  17.392  0.00  0.00    +0.000 N 
ATOM      2  C   UNL     1       5.544   5.305  18.126  0.00  0.00    +0.000 C 
ATOM      3  O   UNL     1       5.348   5.832  19.202  0.00  0.00    +0.000 OA
ATOM      4  C   UNL     1       4.524   4.662  17.196  0.00  0.00    +0.000 C 
ATOM      5  C   UNL     1       3.269   4.289  17.493  0.00  0.00    +0.000 C 
ATOM      6  C   UNL     1       5.183   4.481  15.888  0.00  0.00    +0.000 A 
ATOM      7  C   UNL     1       4.757   4.048  14.642  0.00  0.00    +0.000 A 
ATOM      8  C   UNL     1       5.684   4.031  13.589  0.00  0.00    +0.000 A 
ATOM      9  C   UNL     1       7.008   4.455  13.779  0.00  0.00    +0.000 A 
ATOM     10  C   UNL     1       7.428   4.898  15.020  0.00  0.00    +0.000 A 
ATOM     11  C   UNL     1       6.508   4.888  16.063  0.00  0.00    +0.000 A 
ENDROOT
BRANCH   5  12
ATOM     12  C   UNL     1       2.736   4.401  18.801  0.00  0.00    +0.000 A 
ATOM     13  N   UNL     1       2.607   3.266  19.563  0.00  0.00    +0.000 N 
ATOM     14  C   UNL     1       2.020   3.576  20.767  0.00  0.00    +0.000 A 
ATOM     15  C   UNL     1       1.670   2.541  21.769  0.00  0.00    +0.000 C 
ATOM     16  C   UNL     1       1.815   4.940  20.784  0.00  0.00    +0.000 A 
ATOM     17  C   UNL     1       2.263   5.471  19.541  0.00  0.00    +0.000 A 
ATOM     18  C   UNL     1       2.184   6.891  19.114  0.00  0.00    +0.000 C 
ATOM     19  H   UNL     1       2.848   2.333  19.261  0.00  0.00    +0.000 HD
ENDBRANCH   5  12
BRANCH   1  20
ATOM     20  O   UNL     1       7.860   5.971  17.742  0.00  0.00    +0.000 OA
BRANCH  20  22
ATOM     21  C   UNL     1       8.453   8.020  18.667  0.00  0.00    +0.000 C 
ATOM     22  C   UNL     1       7.707   7.323  17.574  0.00  0.00    +0.000 C 
ATOM     23  O   UNL     1       6.958   7.883  16.782  0.00  0.00    +0.000 OA
ENDBRANCH  20  22
ENDBRANCH   1  20
TORSDOF 3
ENDMDL
