MODEL 1
REMARK VINA RESULT:      -7.9      0.000      0.000
REMARK  Name = 
REMARK  6 active torsions:
REMARK  status: ('A' for Active; 'I' for Inactive)
REMARK    1  A    between atoms: C_1  and  C_2
REMARK    2  A    between atoms: C_2  and  O_3
REMARK    3  A    between atoms: O_3  and  C_4
REMARK    4  A    between atoms: C_4  and  C_6
REMARK    5  A    between atoms: C_7  and  C_8
REMARK    6  A    between atoms: C_18  and  C_19
REMARK                            x       y       z     vdW  Elec       q    Type
REMARK                         _______ _______ _______ _____ _____    ______ ____
ROOT
ATOM      1  C   UNL     1       3.946   5.039  18.730  0.00  0.00    +0.000 A 
ATOM      2  C   UNL     1       4.298   5.822  17.679  0.00  0.00    +0.000 A 
ATOM      3  N   UNL     1       3.812   7.100  17.484  0.00  0.00    +0.000 N 
ATOM      4  C   UNL     1       2.874   7.678  18.340  0.00  0.00    +0.000 A 
ATOM      5  C   UNL     1       2.404   8.980  18.140  0.00  0.00    +0.000 A 
ATOM      6  C   UNL     1       1.453   9.548  19.008  0.00  0.00    +0.000 A 
ATOM      7  C   UNL     1       0.963   8.786  20.081  0.00  0.00    +0.000 A 
ATOM      8  C   UNL     1       1.431   7.492  20.294  0.00  0.00    +0.000 A 
ATOM      9  C   UNL     1       2.391   6.950  19.433  0.00  0.00    +0.000 A 
ATOM     10  C   UNL     1       2.936   5.596  19.686  0.00  0.00    +0.000 A 
ATOM     11  O   UNL     1       2.550   4.991  20.681  0.00  0.00    +0.000 OA
ATOM     12  H   UNL     1       4.141   7.617  16.675  0.00  0.00    +0.000 HD
ENDROOT
BRANCH   2  13
ATOM     13  C   UNL     1       5.214   5.357  16.612  0.00  0.00    +0.000 A 
ATOM     14  C   UNL     1       6.602   5.521  16.743  0.00  0.00    +0.000 A 
ATOM     15  C   UNL     1       7.462   5.127  15.714  0.00  0.00    +0.000 A 
ATOM     16  C   UNL     1       6.944   4.565  14.552  0.00  0.00    +0.000 A 
ATOM     17  C   UNL     1       5.568   4.384  14.420  0.00  0.00    +0.000 A 
ATOM     18 CL   UNL     1       4.929   3.696  12.980  0.00  0.00    +0.000 Cl
ATOM     19  C   UNL     1       4.703   4.766  15.448  0.00  0.00    +0.000 A 
ENDBRANCH   2  13
BRANCH   6  20
ATOM     20  C   UNL     1       0.950  10.958  18.806  0.00  0.00    +0.000 C 
ATOM     21  F   UNL     1      -0.202  11.025  18.084  0.00  0.00    +0.000 F 
ATOM     22  F   UNL     1       0.693  11.592  19.982  0.00  0.00    +0.000 F 
ATOM     23  F   UNL     1       1.851  11.739  18.147  0.00  0.00    +0.000 F 
ENDBRANCH   6  20
BRANCH   1  24
ATOM     24  C   UNL     1       4.488   3.667  18.905  0.00  0.00    +0.000 C 
ATOM     25  O   UNL     1       5.504   3.381  19.522  0.00  0.00    +0.000 OA
BRANCH  24  26
ATOM     26  O   UNL     1       3.757   2.789  18.177  0.00  0.00    +0.000 OA
BRANCH  26  28
ATOM     27  C   UNL     1       1.482   2.305  18.567  0.00  0.00    +0.000 C 
ATOM     28  C   UNL     1       2.902   1.915  18.919  0.00  0.00    +0.000 C 
ENDBRANCH  26  28
ENDBRANCH  24  26
ENDBRANCH   1  24
TORSDOF 5
ENDMDL
MODEL 2
REMARK VINA RESULT:      -7.4      1.028      1.113
REMARK  Name = 
REMARK  6 active torsions:
REMARK  status: ('A' for Active; 'I' for Inactive)
REMARK    1  A    between atoms: C_1  and  C_2
REMARK    2  A    between atoms: C_2  and  O_3
REMARK    3  A    between atoms: O_3  and  C_4
REMARK    4  A    between atoms: C_4  and  C_6
REMARK    5  A    between atoms: C_7  and  C_8
REMARK    6  A    between atoms: C_18  and  C_19
REMARK                            x       y       z     vdW  Elec       q    Type
REMARK                         _______ _______ _______ _____ _____    ______ ____
ROOT
ATOM      1  C   UNL     1       3.575   4.552  19.573  0.00  0.00    +0.000 A 
ATOM      2  C   UNL     1       4.023   5.396  18.610  0.00  0.00    +0.000 A 
ATOM      3  N   UNL     1       3.563   6.689  18.454  0.00  0.00    +0.000 N 
ATOM      4  C   UNL     1       2.554   7.221  19.258  0.00  0.00    +0.000 A 
ATOM      5  C   UNL     1       2.110   8.538  19.101  0.00  0.00    +0.000 A 
ATOM      6  C   UNL     1       1.087   9.060  19.915  0.00  0.00    +0.000 A 
ATOM      7  C   UNL     1       0.500   8.236  20.890  0.00  0.00    +0.000 A 
ATOM      8  C   UNL     1       0.941   6.926  21.060  0.00  0.00    +0.000 A 
ATOM      9  C   UNL     1       1.972   6.430  20.255  0.00  0.00    +0.000 A 
ATOM     10  C   UNL     1       2.486   5.057  20.468  0.00  0.00    +0.000 A 
ATOM     11  O   UNL     1       2.010   4.395  21.384  0.00  0.00    +0.000 OA
ATOM     12  H   UNL     1       3.966   7.253  17.713  0.00  0.00    +0.000 HD
ENDROOT
BRANCH   2  13
ATOM     13  C   UNL     1       5.030   4.990  17.601  0.00  0.00    +0.000 A 
ATOM     14  C   UNL     1       6.396   4.978  17.922  0.00  0.00    +0.000 A 
ATOM     15  C   UNL     1       7.348   4.643  16.955  0.00  0.00    +0.000 A 
ATOM     16  C   UNL     1       6.943   4.316  15.665  0.00  0.00    +0.000 A 
ATOM     17  C   UNL     1       5.587   4.310  15.342  0.00  0.00    +0.000 A 
ATOM     18 CL   UNL     1       5.090   3.911  13.745  0.00  0.00    +0.000 Cl
ATOM     19  C   UNL     1       4.629   4.634  16.305  0.00  0.00    +0.000 A 
ENDBRANCH   2  13
BRANCH   6  20
ATOM     20  C   UNL     1       0.612  10.485  19.760  0.00  0.00    +0.000 C 
ATOM     21  F   UNL     1      -0.733  10.627  19.917  0.00  0.00    +0.000 F 
ATOM     22  F   UNL     1       1.186  11.325  20.663  0.00  0.00    +0.000 F 
ATOM     23  F   UNL     1       0.902  10.996  18.532  0.00  0.00    +0.000 F 
ENDBRANCH   6  20
BRANCH   1  24
ATOM     24  C   UNL     1       4.093   3.166  19.707  0.00  0.00    +0.000 C 
ATOM     25  O   UNL     1       5.270   2.860  19.826  0.00  0.00    +0.000 OA
BRANCH  24  26
ATOM     26  O   UNL     1       3.079   2.280  19.555  0.00  0.00    +0.000 OA
BRANCH  26  28
ATOM     27  C   UNL     1       0.941   2.318  18.559  0.00  0.00    +0.000 C 
ATOM     28  C   UNL     1       2.430   2.281  18.281  0.00  0.00    +0.000 C 
ENDBRANCH  26  28
ENDBRANCH  24  26
ENDBRANCH   1  24
TORSDOF 5
ENDMDL
MODEL 3
REMARK VINA RESULT:      -7.1      4.089      7.422
REMARK  Name = 
REMARK  6 active torsions:
REMARK  status: ('A' for Active; 'I' for Inactive)
REMARK    1  A    between atoms: C_1  and  C_2
REMARK    2  A    between atoms: C_2  and  O_3
REMARK    3  A    between atoms: O_3  and  C_4
REMARK    4  A    between atoms: C_4  and  C_6
REMARK    5  A    between atoms: C_7  and  C_8
REMARK    6  A    between atoms: C_18  and  C_19
REMARK                            x       y       z     vdW  Elec       q    Type
REMARK                         _______ _______ _______ _____ _____    ______ ____
ROOT
ATOM      1  C   UNL     1       1.159   8.090  20.243  0.00  0.00    +0.000 A 
ATOM      2  C   UNL     1       1.363   8.894  19.169  0.00  0.00    +0.000 A 
ATOM      3  N   UNL     1       2.238   8.590  18.144  0.00  0.00    +0.000 N 
ATOM      4  C   UNL     1       3.024   7.437  18.156  0.00  0.00    +0.000 A 
ATOM      5  C   UNL     1       3.893   7.132  17.102  0.00  0.00    +0.000 A 
ATOM      6  C   UNL     1       4.685   5.969  17.130  0.00  0.00    +0.000 A 
ATOM      7  C   UNL     1       4.607   5.113  18.240  0.00  0.00    +0.000 A 
ATOM      8  C   UNL     1       3.738   5.403  19.290  0.00  0.00    +0.000 A 
ATOM      9  C   UNL     1       2.944   6.553  19.237  0.00  0.00    +0.000 A 
ATOM     10  C   UNL     1       1.976   6.838  20.322  0.00  0.00    +0.000 A 
ATOM     11  O   UNL     1       1.871   6.025  21.234  0.00  0.00    +0.000 OA
ATOM     12  H   UNL     1       2.317   9.245  17.373  0.00  0.00    +0.000 HD
ENDROOT
BRANCH   2  13
ATOM     13  C   UNL     1       0.689  10.204  19.015  0.00  0.00    +0.000 A 
ATOM     14  C   UNL     1       1.379  11.396  19.287  0.00  0.00    +0.000 A 
ATOM     15  C   UNL     1       0.727  12.629  19.189  0.00  0.00    +0.000 A 
ATOM     16  C   UNL     1      -0.612  12.680  18.819  0.00  0.00    +0.000 A 
ATOM     17  C   UNL     1      -1.300  11.502  18.532  0.00  0.00    +0.000 A 
ATOM     18 CL   UNL     1      -2.958  11.568  18.081  0.00  0.00    +0.000 Cl
ATOM     19  C   UNL     1      -0.654  10.267  18.617  0.00  0.00    +0.000 A 
ENDBRANCH   2  13
BRANCH   6  20
ATOM     20  C   UNL     1       5.616   5.628  15.991  0.00  0.00    +0.000 C 
ATOM     21  F   UNL     1       5.266   6.211  14.812  0.00  0.00    +0.000 F 
ATOM     22  F   UNL     1       6.898   6.013  16.234  0.00  0.00    +0.000 F 
ATOM     23  F   UNL     1       5.665   4.289  15.747  0.00  0.00    +0.000 F 
ENDBRANCH   6  20
BRANCH   1  24
ATOM     24  C   UNL     1       0.211   8.453  21.328  0.00  0.00    +0.000 C 
ATOM     25  O   UNL     1      -0.926   8.018  21.448  0.00  0.00    +0.000 OA
BRANCH  24  26
ATOM     26  O   UNL     1       0.746   9.432  22.097  0.00  0.00    +0.000 OA
BRANCH  26  28
ATOM     27  C   UNL     1      -0.659  11.290  22.466  0.00  0.00    +0.000 C 
ATOM     28  C   UNL     1      -0.123  10.010  23.074  0.00  0.00    +0.000 C 
ENDBRANCH  26  28
ENDBRANCH  24  26
ENDBRANCH   1  24
TORSDOF 5
ENDMDL
MODEL 4
REMARK VINA RESULT:      -7.0      4.118      7.507
REMARK  Name = 
REMARK  6 active torsions:
REMARK  status: ('A' for Active; 'I' for Inactive)
REMARK    1  A    between atoms: C_1  and  C_2
REMARK    2  A    between atoms: C_2  and  O_3
REMARK    3  A    between atoms: O_3  and  C_4
REMARK    4  A    between atoms: C_4  and  C_6
REMARK    5  A    between atoms: C_7  and  C_8
REMARK    6  A    between atoms: C_18  and  C_19
REMARK                            x       y       z     vdW  Elec       q    Type
REMARK                         _______ _______ _______ _____ _____    ______ ____
ROOT
ATOM      1  C   UNL     1       1.144   8.094  20.274  0.00  0.00    +0.000 A 
ATOM      2  C   UNL     1       1.333   8.900  19.199  0.00  0.00    +0.000 A 
ATOM      3  N   UNL     1       2.199   8.600  18.165  0.00  0.00    +0.000 N 
ATOM      4  C   UNL     1       2.990   7.451  18.167  0.00  0.00    +0.000 A 
ATOM      5  C   UNL     1       3.849   7.152  17.104  0.00  0.00    +0.000 A 
ATOM      6  C   UNL     1       4.647   5.992  17.122  0.00  0.00    +0.000 A 
ATOM      7  C   UNL     1       4.584   5.134  18.232  0.00  0.00    +0.000 A 
ATOM      8  C   UNL     1       3.725   5.419  19.291  0.00  0.00    +0.000 A 
ATOM      9  C   UNL     1       2.924   6.565  19.248  0.00  0.00    +0.000 A 
ATOM     10  C   UNL     1       1.967   6.845  20.343  0.00  0.00    +0.000 A 
ATOM     11  O   UNL     1       1.875   6.031  21.255  0.00  0.00    +0.000 OA
ATOM     12  H   UNL     1       2.267   9.257  17.394  0.00  0.00    +0.000 HD
ENDROOT
BRANCH   2  13
ATOM     13  C   UNL     1       0.652  10.207  19.054  0.00  0.00    +0.000 A 
ATOM     14  C   UNL     1      -0.690  10.270  18.647  0.00  0.00    +0.000 A 
ATOM     15  C   UNL     1      -1.317  11.506  18.463  0.00  0.00    +0.000 A 
ATOM     16  C   UNL     1      -0.611  12.684  18.686  0.00  0.00    +0.000 A 
ATOM     17  C   UNL     1       0.718  12.630  19.106  0.00  0.00    +0.000 A 
ATOM     18 CL   UNL     1       1.590  14.087  19.375  0.00  0.00    +0.000 Cl
ATOM     19  C   UNL     1       1.348  11.399  19.302  0.00  0.00    +0.000 A 
ENDBRANCH   2  13
BRANCH   6  20
ATOM     20  C   UNL     1       5.567   5.656  15.973  0.00  0.00    +0.000 C 
ATOM     21  F   UNL     1       6.869   5.977  16.209  0.00  0.00    +0.000 F 
ATOM     22  F   UNL     1       5.556   4.329  15.670  0.00  0.00    +0.000 F 
ATOM     23  F   UNL     1       5.223   6.307  14.827  0.00  0.00    +0.000 F 
ENDBRANCH   6  20
BRANCH   1  24
ATOM     24  C   UNL     1       0.205   8.451  21.369  0.00  0.00    +0.000 C 
ATOM     25  O   UNL     1      -0.937   8.030  21.487  0.00  0.00    +0.000 OA
BRANCH  24  26
ATOM     26  O   UNL     1       0.757   9.409  22.152  0.00  0.00    +0.000 OA
BRANCH  26  28
ATOM     27  C   UNL     1      -0.665  11.266  22.460  0.00  0.00    +0.000 C 
ATOM     28  C   UNL     1      -0.113  10.015  23.112  0.00  0.00    +0.000 C 
ENDBRANCH  26  28
ENDBRANCH  24  26
ENDBRANCH   1  24
TORSDOF 5
ENDMDL
MODEL 5
REMARK VINA RESULT:      -6.7      4.728      7.518
REMARK  Name = 
REMARK  6 active torsions:
REMARK  status: ('A' for Active; 'I' for Inactive)
REMARK    1  A    between atoms: C_1  and  C_2
REMARK    2  A    between atoms: C_2  and  O_3
REMARK    3  A    between atoms: O_3  and  C_4
REMARK    4  A    between atoms: C_4  and  C_6
REMARK    5  A    between atoms: C_7  and  C_8
REMARK    6  A    between atoms: C_18  and  C_19
REMARK                            x       y       z     vdW  Elec       q    Type
REMARK                         _______ _______ _______ _____ _____    ______ ____
ROOT
ATOM      1  C   UNL     1       6.063   5.060  17.446  0.00  0.00    +0.000 A 
ATOM      2  C   UNL     1       4.724   4.907  17.288  0.00  0.00    +0.000 A 
ATOM      3  N   UNL     1       4.140   4.483  16.110  0.00  0.00    +0.000 N 
ATOM      4  C   UNL     1       4.888   4.219  14.962  0.00  0.00    +0.000 A 
ATOM      5  C   UNL     1       4.284   3.773  13.781  0.00  0.00    +0.000 A 
ATOM      6  C   UNL     1       5.050   3.516  12.628  0.00  0.00    +0.000 A 
ATOM      7  C   UNL     1       6.438   3.725  12.667  0.00  0.00    +0.000 A 
ATOM      8  C   UNL     1       7.050   4.160  13.841  0.00  0.00    +0.000 A 
ATOM      9  C   UNL     1       6.276   4.391  14.983  0.00  0.00    +0.000 A 
ATOM     10  C   UNL     1       6.925   4.799  16.251  0.00  0.00    +0.000 A 
ATOM     11  O   UNL     1       8.149   4.888  16.273  0.00  0.00    +0.000 OA
ATOM     12  H   UNL     1       3.130   4.385  16.086  0.00  0.00    +0.000 HD
ENDROOT
BRANCH   2  13
ATOM     13  C   UNL     1       3.754   5.222  18.361  0.00  0.00    +0.000 A 
ATOM     14  C   UNL     1       3.234   6.519  18.494  0.00  0.00    +0.000 A 
ATOM     15  C   UNL     1       2.357   6.827  19.538  0.00  0.00    +0.000 A 
ATOM     16  C   UNL     1       1.991   5.844  20.452  0.00  0.00    +0.000 A 
ATOM     17  C   UNL     1       2.490   4.549  20.318  0.00  0.00    +0.000 A 
ATOM     18 CL   UNL     1       2.042   3.338  21.453  0.00  0.00    +0.000 Cl
ATOM     19  C   UNL     1       3.359   4.231  19.272  0.00  0.00    +0.000 A 
ENDBRANCH   2  13
BRANCH   6  20
ATOM     20  C   UNL     1       4.407   3.022  11.354  0.00  0.00    +0.000 C 
ATOM     21  F   UNL     1       3.100   2.674  11.506  0.00  0.00    +0.000 F 
ATOM     22  F   UNL     1       4.434   3.955  10.363  0.00  0.00    +0.000 F 
ATOM     23  F   UNL     1       5.032   1.922  10.852  0.00  0.00    +0.000 F 
ENDBRANCH   6  20
BRANCH   1  24
ATOM     24  C   UNL     1       6.655   5.522  18.729  0.00  0.00    +0.000 C 
ATOM     25  O   UNL     1       6.825   4.825  19.720  0.00  0.00    +0.000 OA
BRANCH  24  26
ATOM     26  O   UNL     1       6.867   6.859  18.682  0.00  0.00    +0.000 OA
BRANCH  26  28
ATOM     27  C   UNL     1       8.212   8.670  17.994  0.00  0.00    +0.000 C 
ATOM     28  C   UNL     1       8.231   7.276  18.587  0.00  0.00    +0.000 C 
ENDBRANCH  26  28
ENDBRANCH  24  26
ENDBRANCH   1  24
TORSDOF 5
ENDMDL
MODEL 6
REMARK VINA RESULT:      -6.7      2.102      2.929
REMARK  Name = 
REMARK  6 active torsions:
REMARK  status: ('A' for Active; 'I' for Inactive)
REMARK    1  A    between atoms: C_1  and  C_2
REMARK    2  A    between atoms: C_2  and  O_3
REMARK    3  A    between atoms: O_3  and  C_4
REMARK    4  A    between atoms: C_4  and  C_6
REMARK    5  A    between atoms: C_7  and  C_8
REMARK    6  A    between atoms: C_18  and  C_19
REMARK                            x       y       z     vdW  Elec       q    Type
REMARK                         _______ _______ _______ _____ _____    ______ ____
ROOT
ATOM      1  C   UNL     1       1.912   6.528  20.140  0.00  0.00    +0.000 A 
ATOM      2  C   UNL     1       2.588   6.854  19.010  0.00  0.00    +0.000 A 
ATOM      3  N   UNL     1       2.583   8.120  18.456  0.00  0.00    +0.000 N 
ATOM      4  C   UNL     1       1.835   9.166  18.999  0.00  0.00    +0.000 A 
ATOM      5  C   UNL     1       1.854  10.447  18.439  0.00  0.00    +0.000 A 
ATOM      6  C   UNL     1       1.090  11.491  18.993  0.00  0.00    +0.000 A 
ATOM      7  C   UNL     1       0.290  11.233  20.118  0.00  0.00    +0.000 A 
ATOM      8  C   UNL     1       0.272   9.962  20.689  0.00  0.00    +0.000 A 
ATOM      9  C   UNL     1       1.053   8.941  20.137  0.00  0.00    +0.000 A 
ATOM     10  C   UNL     1       1.083   7.603  20.772  0.00  0.00    +0.000 A 
ATOM     11  O   UNL     1       0.440   7.436  21.803  0.00  0.00    +0.000 OA
ATOM     12  H   UNL     1       3.129   8.275  17.615  0.00  0.00    +0.000 HD
ENDROOT
BRANCH   2  13
ATOM     13  C   UNL     1       3.369   5.862  18.235  0.00  0.00    +0.000 A 
ATOM     14  C   UNL     1       2.719   4.840  17.525  0.00  0.00    +0.000 A 
ATOM     15  C   UNL     1       3.459   3.876  16.835  0.00  0.00    +0.000 A 
ATOM     16  C   UNL     1       4.849   3.926  16.848  0.00  0.00    +0.000 A 
ATOM     17  C   UNL     1       5.503   4.946  17.538  0.00  0.00    +0.000 A 
ATOM     18 CL   UNL     1       7.221   5.002  17.557  0.00  0.00    +0.000 Cl
ATOM     19  C   UNL     1       4.770   5.919  18.221  0.00  0.00    +0.000 A 
ENDBRANCH   2  13
BRANCH   6  20
ATOM     20  C   UNL     1       1.114  12.880  18.400  0.00  0.00    +0.000 C 
ATOM     21  F   UNL     1      -0.052  13.231  17.792  0.00  0.00    +0.000 F 
ATOM     22  F   UNL     1       1.353  13.840  19.335  0.00  0.00    +0.000 F 
ATOM     23  F   UNL     1       2.087  13.023  17.458  0.00  0.00    +0.000 F 
ENDBRANCH   6  20
BRANCH   1  24
ATOM     24  C   UNL     1       1.939   5.154  20.704  0.00  0.00    +0.000 C 
ATOM     25  O   UNL     1       2.861   4.672  21.347  0.00  0.00    +0.000 OA
BRANCH  24  26
ATOM     26  O   UNL     1       0.843   4.469  20.298  0.00  0.00    +0.000 OA
BRANCH  26  28
ATOM     27  C   UNL     1       0.688   2.500  19.009  0.00  0.00    +0.000 C 
ATOM     28  C   UNL     1       0.916   3.045  20.404  0.00  0.00    +0.000 C 
ENDBRANCH  26  28
ENDBRANCH  24  26
ENDBRANCH   1  24
TORSDOF 5
ENDMDL
MODEL 7
REMARK VINA RESULT:      -6.7      1.027      2.006
REMARK  Name = 
REMARK  6 active torsions:
REMARK  status: ('A' for Active; 'I' for Inactive)
REMARK    1  A    between atoms: C_1  and  C_2
REMARK    2  A    between atoms: C_2  and  O_3
REMARK    3  A    between atoms: O_3  and  C_4
REMARK    4  A    between atoms: C_4  and  C_6
REMARK    5  A    between atoms: C_7  and  C_8
REMARK    6  A    between atoms: C_18  and  C_19
REMARK                            x       y       z     vdW  Elec       q    Type
REMARK                         _______ _______ _______ _____ _____    ______ ____
ROOT
ATOM      1  C   UNL     1       4.269   5.137  18.478  0.00  0.00    +0.000 A 
ATOM      2  C   UNL     1       4.432   5.899  17.367  0.00  0.00    +0.000 A 
ATOM      3  N   UNL     1       3.804   7.114  17.177  0.00  0.00    +0.000 N 
ATOM      4  C   UNL     1       2.905   7.640  18.106  0.00  0.00    +0.000 A 
ATOM      5  C   UNL     1       2.290   8.881  17.909  0.00  0.00    +0.000 A 
ATOM      6  C   UNL     1       1.381   9.396  18.851  0.00  0.00    +0.000 A 
ATOM      7  C   UNL     1       1.082   8.643  19.998  0.00  0.00    +0.000 A 
ATOM      8  C   UNL     1       1.696   7.410  20.208  0.00  0.00    +0.000 A 
ATOM      9  C   UNL     1       2.612   6.922  19.271  0.00  0.00    +0.000 A 
ATOM     10  C   UNL     1       3.313   5.640  19.514  0.00  0.00    +0.000 A 
ATOM     11  O   UNL     1       3.093   5.049  20.567  0.00  0.00    +0.000 OA
ATOM     12  H   UNL     1       3.995   7.621  16.319  0.00  0.00    +0.000 HD
ENDROOT
BRANCH   2  13
ATOM     13  C   UNL     1       5.276   5.473  16.226  0.00  0.00    +0.000 A 
ATOM     14  C   UNL     1       6.628   5.847  16.161  0.00  0.00    +0.000 A 
ATOM     15  C   UNL     1       7.410   5.486  15.060  0.00  0.00    +0.000 A 
ATOM     16  C   UNL     1       6.851   4.749  14.021  0.00  0.00    +0.000 A 
ATOM     17  C   UNL     1       5.513   4.360  14.086  0.00  0.00    +0.000 A 
ATOM     18 CL   UNL     1       4.823   3.454  12.798  0.00  0.00    +0.000 Cl
ATOM     19  C   UNL     1       4.728   4.708  15.187  0.00  0.00    +0.000 A 
ENDBRANCH   2  13
BRANCH   6  20
ATOM     20  C   UNL     1       0.722  10.741  18.651  0.00  0.00    +0.000 C 
ATOM     21  F   UNL     1       1.552  11.675  18.111  0.00  0.00    +0.000 F 
ATOM     22  F   UNL     1      -0.356  10.673  17.824  0.00  0.00    +0.000 F 
ATOM     23  F   UNL     1       0.268  11.273  19.819  0.00  0.00    +0.000 F 
ENDBRANCH   6  20
BRANCH   1  24
ATOM     24  C   UNL     1       4.961   3.832  18.645  0.00  0.00    +0.000 C 
ATOM     25  O   UNL     1       4.421   2.736  18.603  0.00  0.00    +0.000 OA
BRANCH  24  26
ATOM     26  O   UNL     1       6.258   4.039  18.973  0.00  0.00    +0.000 OA
BRANCH  26  28
ATOM     27  C   UNL     1       7.968   5.630  19.306  0.00  0.00    +0.000 C 
ATOM     28  C   UNL     1       6.545   5.256  19.667  0.00  0.00    +0.000 C 
ENDBRANCH  26  28
ENDBRANCH  24  26
ENDBRANCH   1  24
TORSDOF 5
ENDMDL
MODEL 8
REMARK VINA RESULT:      -6.6      0.786      1.244
REMARK  Name = 
REMARK  6 active torsions:
REMARK  status: ('A' for Active; 'I' for Inactive)
REMARK    1  A    between atoms: C_1  and  C_2
REMARK    2  A    between atoms: C_2  and  O_3
REMARK    3  A    between atoms: O_3  and  C_4
REMARK    4  A    between atoms: C_4  and  C_6
REMARK    5  A    between atoms: C_7  and  C_8
REMARK    6  A    between atoms: C_18  and  C_19
REMARK                            x       y       z     vdW  Elec       q    Type
REMARK                         _______ _______ _______ _____ _____    ______ ____
ROOT
ATOM      1  C   UNL     1       3.728   4.951  18.391  0.00  0.00    +0.000 A 
ATOM      2  C   UNL     1       4.248   5.758  17.432  0.00  0.00    +0.000 A 
ATOM      3  N   UNL     1       3.926   7.095  17.303  0.00  0.00    +0.000 N 
ATOM      4  C   UNL     1       2.994   7.719  18.135  0.00  0.00    +0.000 A 
ATOM      5  C   UNL     1       2.691   9.078  18.005  0.00  0.00    +0.000 A 
ATOM      6  C   UNL     1       1.744   9.692  18.846  0.00  0.00    +0.000 A 
ATOM      7  C   UNL     1       1.089   8.921  19.819  0.00  0.00    +0.000 A 
ATOM      8  C   UNL     1       1.391   7.568  19.962  0.00  0.00    +0.000 A 
ATOM      9  C   UNL     1       2.349   6.978  19.131  0.00  0.00    +0.000 A 
ATOM     10  C   UNL     1       2.716   5.555  19.314  0.00  0.00    +0.000 A 
ATOM     11  O   UNL     1       2.188   4.933  20.230  0.00  0.00    +0.000 OA
ATOM     12  H   UNL     1       4.374   7.625  16.562  0.00  0.00    +0.000 HD
ENDROOT
BRANCH   2  13
ATOM     13  C   UNL     1       5.187   5.263  16.398  0.00  0.00    +0.000 A 
ATOM     14  C   UNL     1       6.574   5.371  16.586  0.00  0.00    +0.000 A 
ATOM     15  C   UNL     1       7.458   4.949  15.588  0.00  0.00    +0.000 A 
ATOM     16  C   UNL     1       6.965   4.416  14.402  0.00  0.00    +0.000 A 
ATOM     17  C   UNL     1       5.589   4.291  14.214  0.00  0.00    +0.000 A 
ATOM     18 CL   UNL     1       4.982   3.638  12.744  0.00  0.00    +0.000 Cl
ATOM     19  C   UNL     1       4.700   4.701  15.209  0.00  0.00    +0.000 A 
ENDBRANCH   2  13
BRANCH   6  20
ATOM     20  C   UNL     1       1.422  11.163  18.720  0.00  0.00    +0.000 C 
ATOM     21  F   UNL     1       2.264  11.833  17.887  0.00  0.00    +0.000 F 
ATOM     22  F   UNL     1       0.167  11.379  18.238  0.00  0.00    +0.000 F 
ATOM     23  F   UNL     1       1.483  11.810  19.916  0.00  0.00    +0.000 F 
ENDBRANCH   6  20
BRANCH   1  24
ATOM     24  C   UNL     1       4.097   3.515  18.496  0.00  0.00    +0.000 C 
ATOM     25  O   UNL     1       3.666   2.621  17.782  0.00  0.00    +0.000 OA
BRANCH  24  26
ATOM     26  O   UNL     1       4.890   3.323  19.577  0.00  0.00    +0.000 OA
BRANCH  26  28
ATOM     27  C   UNL     1       3.443   2.262  21.109  0.00  0.00    +0.000 C 
ATOM     28  C   UNL     1       4.702   2.094  20.283  0.00  0.00    +0.000 C 
ENDBRANCH  26  28
ENDBRANCH  24  26
ENDBRANCH   1  24
TORSDOF 5
ENDMDL
MODEL 9
REMARK VINA RESULT:      -6.6      1.385      1.854
REMARK  Name = 
REMARK  6 active torsions:
REMARK  status: ('A' for Active; 'I' for Inactive)
REMARK    1  A    between atoms: C_1  and  C_2
REMARK    2  A    between atoms: C_2  and  O_3
REMARK    3  A    between atoms: O_3  and  C_4
REMARK    4  A    between atoms: C_4  and  C_6
REMARK    5  A    between atoms: C_7  and  C_8
REMARK    6  A    between atoms: C_18  and  C_19
REMARK                            x       y       z     vdW  Elec       q    Type
REMARK                         _______ _______ _______ _____ _____    ______ ____
ROOT
ATOM      1  C   UNL     1       3.630   4.132  19.164  0.00  0.00    +0.000 A 
ATOM      2  C   UNL     1       4.107   5.078  18.316  0.00  0.00    +0.000 A 
ATOM      3  N   UNL     1       3.685   6.393  18.326  0.00  0.00    +0.000 N 
ATOM      4  C   UNL     1       2.689   6.848  19.191  0.00  0.00    +0.000 A 
ATOM      5  C   UNL     1       2.285   8.187  19.202  0.00  0.00    +0.000 A 
ATOM      6  C   UNL     1       1.274   8.631  20.075  0.00  0.00    +0.000 A 
ATOM      7  C   UNL     1       0.658   7.708  20.937  0.00  0.00    +0.000 A 
ATOM      8  C   UNL     1       1.060   6.374  20.940  0.00  0.00    +0.000 A 
ATOM      9  C   UNL     1       2.080   5.955  20.079  0.00  0.00    +0.000 A 
ATOM     10  C   UNL     1       2.553   4.551  20.116  0.00  0.00    +0.000 A 
ATOM     11  O   UNL     1       2.054   3.792  20.940  0.00  0.00    +0.000 OA
ATOM     12  H   UNL     1       4.107   7.035  17.662  0.00  0.00    +0.000 HD
ENDROOT
BRANCH   2  13
ATOM     13  C   UNL     1       5.105   4.774  17.264  0.00  0.00    +0.000 A 
ATOM     14  C   UNL     1       6.478   4.804  17.555  0.00  0.00    +0.000 A 
ATOM     15  C   UNL     1       7.420   4.565  16.550  0.00  0.00    +0.000 A 
ATOM     16  C   UNL     1       6.999   4.294  15.253  0.00  0.00    +0.000 A 
ATOM     17  C   UNL     1       5.637   4.247  14.959  0.00  0.00    +0.000 A 
ATOM     18 CL   UNL     1       5.119   3.917  13.353  0.00  0.00    +0.000 Cl
ATOM     19  C   UNL     1       4.690   4.474  15.959  0.00  0.00    +0.000 A 
ENDBRANCH   2  13
BRANCH   6  20
ATOM     20  C   UNL     1       0.841  10.078  20.102  0.00  0.00    +0.000 C 
ATOM     21  F   UNL     1       1.484  10.853  19.187  0.00  0.00    +0.000 F 
ATOM     22  F   UNL     1      -0.489  10.226  19.851  0.00  0.00    +0.000 F 
ATOM     23  F   UNL     1       1.063  10.662  21.312  0.00  0.00    +0.000 F 
ENDBRANCH   6  20
BRANCH   1  24
ATOM     24  C   UNL     1       4.107   2.725  19.121  0.00  0.00    +0.000 C 
ATOM     25  O   UNL     1       3.688   1.860  18.366  0.00  0.00    +0.000 OA
BRANCH  24  26
ATOM     26  O   UNL     1       4.989   2.509  20.126  0.00  0.00    +0.000 OA
BRANCH  26  28
ATOM     27  C   UNL     1       5.681   0.644  21.393  0.00  0.00    +0.000 C 
ATOM     28  C   UNL     1       4.554   1.630  21.167  0.00  0.00    +0.000 C 
ENDBRANCH  26  28
ENDBRANCH  24  26
ENDBRANCH   1  24
TORSDOF 5
ENDMDL
