MODEL 1
REMARK VINA RESULT:      -8.8      0.000      0.000
REMARK  Name = 
REMARK  0 active torsions:
REMARK  status: ('A' for Active; 'I' for Inactive)
REMARK                            x       y       z     vdW  Elec       q    Type
REMARK                         _______ _______ _______ _____ _____    ______ ____
ROOT
ATOM      1  C   UNL     1       0.851  11.743  20.508  0.00  0.00    +0.000 C 
ATOM      2  C   UNL     1       0.080  12.555  21.274  0.00  0.00    +0.000 C 
ATOM      3  C   UNL     1       0.057  13.974  20.812  0.00  0.00    +0.000 C 
ATOM      4  O   UNL     1      -0.579  13.980  19.519  0.00  0.00    +0.000 OA
ATOM      5  C   UNL     1      -1.606  12.990  19.352  0.00  0.00    +0.000 C 
ATOM      6  C   UNL     1      -2.186  12.528  20.662  0.00  0.00    +0.000 C 
ATOM      7  C   UNL     1      -3.085  13.433  21.024  0.00  0.00    +0.000 C 
ATOM      8  C   UNL     1      -3.885  12.992  22.097  0.00  0.00    +0.000 A 
ATOM      9  C   UNL     1      -3.192  12.628  23.230  0.00  0.00    +0.000 A 
ATOM     10  C   UNL     1      -4.003  12.491  24.362  0.00  0.00    +0.000 A 
ATOM     11  C   UNL     1      -5.428  12.724  24.251  0.00  0.00    +0.000 A 
ATOM     12  C   UNL     1      -6.079  13.077  23.017  0.00  0.00    +0.000 A 
ATOM     13  C   UNL     1      -7.438  13.413  22.782  0.00  0.00    +0.000 A 
ATOM     14  C   UNL     1      -7.917  13.782  21.488  0.00  0.00    +0.000 A 
ATOM     15  C   UNL     1      -7.105  13.752  20.360  0.00  0.00    +0.000 A 
ATOM     16  C   UNL     1      -5.777  13.426  20.595  0.00  0.00    +0.000 A 
ATOM     17  C   UNL     1      -5.255  13.144  21.900  0.00  0.00    +0.000 A 
ATOM     18  O   UNL     1      -1.783  12.575  23.156  0.00  0.00    +0.000 OA
ATOM     19  C   UNL     1      -1.265  12.013  21.827  0.00  0.00    +0.000 C 
ATOM     20  O   UNL     1      -1.156  10.577  22.107  0.00  0.00    +0.000 OA
ATOM     21  C   UNL     1      -0.039   9.901  21.681  0.00  0.00    +0.000 A 
ATOM     22  C   UNL     1       0.478   8.783  22.321  0.00  0.00    +0.000 A 
ATOM     23  C   UNL     1       1.435   7.987  21.662  0.00  0.00    +0.000 A 
ATOM     24  C   UNL     1       1.706   8.196  20.295  0.00  0.00    +0.000 A 
ATOM     25  C   UNL     1       2.390   7.258  19.495  0.00  0.00    +0.000 A 
ATOM     26  C   UNL     1       2.468   7.423  18.108  0.00  0.00    +0.000 A 
ATOM     27  C   UNL     1       1.921   8.553  17.510  0.00  0.00    +0.000 A 
ATOM     28  C   UNL     1       1.355   9.550  18.305  0.00  0.00    +0.000 A 
ATOM     29  C   UNL     1       1.242   9.381  19.702  0.00  0.00    +0.000 A 
ATOM     30  C   UNL     1       0.599  10.313  20.532  0.00  0.00    +0.000 A 
ENDROOT
TORSDOF 0
ENDMDL
MODEL 2
REMARK VINA RESULT:      -8.7      2.538      8.433
REMARK  Name = 
REMARK  0 active torsions:
REMARK  status: ('A' for Active; 'I' for Inactive)
REMARK                            x       y       z     vdW  Elec       q    Type
REMARK                         _______ _______ _______ _____ _____    ______ ____
ROOT
ATOM      1  C   UNL     1      -1.355  11.883  19.313  0.00  0.00    +0.000 C 
ATOM      2  C   UNL     1      -0.072  11.446  19.275  0.00  0.00    +0.000 C 
ATOM      3  C   UNL     1       0.708  11.760  20.509  0.00  0.00    +0.000 C 
ATOM      4  O   UNL     1       0.101  11.017  21.584  0.00  0.00    +0.000 OA
ATOM      5  C   UNL     1      -0.451   9.748  21.198  0.00  0.00    +0.000 C 
ATOM      6  C   UNL     1       0.165   9.207  19.936  0.00  0.00    +0.000 C 
ATOM      7  C   UNL     1       1.307   8.630  20.283  0.00  0.00    +0.000 C 
ATOM      8  C   UNL     1       1.856   7.858  19.239  0.00  0.00    +0.000 A 
ATOM      9  C   UNL     1       2.083   8.542  18.066  0.00  0.00    +0.000 A 
ATOM     10  C   UNL     1       2.896   7.848  17.163  0.00  0.00    +0.000 A 
ATOM     11  C   UNL     1       3.397   6.537  17.515  0.00  0.00    +0.000 A 
ATOM     12  C   UNL     1       3.088   5.879  18.758  0.00  0.00    +0.000 A 
ATOM     13  C   UNL     1       3.572   4.645  19.266  0.00  0.00    +0.000 A 
ATOM     14  C   UNL     1       3.190   4.150  20.551  0.00  0.00    +0.000 A 
ATOM     15  C   UNL     1       2.256   4.800  21.348  0.00  0.00    +0.000 A 
ATOM     16  C   UNL     1       1.788   6.006  20.849  0.00  0.00    +0.000 A 
ATOM     17  C   UNL     1       2.229   6.568  19.605  0.00  0.00    +0.000 A 
ATOM     18  O   UNL     1       1.607   9.868  17.969  0.00  0.00    +0.000 OA
ATOM     19  C   UNL     1       0.236  10.071  18.625  0.00  0.00    +0.000 C 
ATOM     20  O   UNL     1      -0.690   9.816  17.516  0.00  0.00    +0.000 OA
ATOM     21  C   UNL     1      -1.762  10.656  17.341  0.00  0.00    +0.000 A 
ATOM     22  C   UNL     1      -2.346  10.916  16.109  0.00  0.00    +0.000 A 
ATOM     23  C   UNL     1      -3.604  11.546  16.056  0.00  0.00    +0.000 A 
ATOM     24  C   UNL     1      -4.357  11.718  17.234  0.00  0.00    +0.000 A 
ATOM     25  C   UNL     1      -5.731  12.033  17.230  0.00  0.00    +0.000 A 
ATOM     26  C   UNL     1      -6.475  12.006  18.415  0.00  0.00    +0.000 A 
ATOM     27  C   UNL     1      -5.848  11.727  19.623  0.00  0.00    +0.000 A 
ATOM     28  C   UNL     1      -4.466  11.539  19.658  0.00  0.00    +0.000 A 
ATOM     29  C   UNL     1      -3.709  11.532  18.467  0.00  0.00    +0.000 A 
ATOM     30  C   UNL     1      -2.332  11.257  18.441  0.00  0.00    +0.000 A 
ENDROOT
TORSDOF 0
ENDMDL
MODEL 3
REMARK VINA RESULT:      -7.6      1.210      7.946
REMARK  Name = 
REMARK  0 active torsions:
REMARK  status: ('A' for Active; 'I' for Inactive)
REMARK                            x       y       z     vdW  Elec       q    Type
REMARK                         _______ _______ _______ _____ _____    ______ ____
ROOT
ATOM      1  C   UNL     1      -2.872  13.604  22.118  0.00  0.00    +0.000 C 
ATOM      2  C   UNL     1      -1.679  13.384  21.512  0.00  0.00    +0.000 C 
ATOM      3  C   UNL     1      -0.501  13.631  22.394  0.00  0.00    +0.000 C 
ATOM      4  O   UNL     1      -0.560  12.652  23.450  0.00  0.00    +0.000 OA
ATOM      5  C   UNL     1      -1.109  11.383  23.061  0.00  0.00    +0.000 C 
ATOM      6  C   UNL     1      -1.006  11.136  21.580  0.00  0.00    +0.000 C 
ATOM      7  C   UNL     1       0.224  10.700  21.348  0.00  0.00    +0.000 C 
ATOM      8  C   UNL     1       0.373  10.186  20.045  0.00  0.00    +0.000 A 
ATOM      9  C   UNL     1       0.052  11.062  19.032  0.00  0.00    +0.000 A 
ATOM     10  C   UNL     1       0.492  10.644  17.771  0.00  0.00    +0.000 A 
ATOM     11  C   UNL     1       1.203   9.389  17.642  0.00  0.00    +0.000 A 
ATOM     12  C   UNL     1       1.475   8.516  18.754  0.00  0.00    +0.000 A 
ATOM     13  C   UNL     1       2.226   7.312  18.788  0.00  0.00    +0.000 A 
ATOM     14  C   UNL     1       2.435   6.581  19.997  0.00  0.00    +0.000 A 
ATOM     15  C   UNL     1       1.846   6.952  21.200  0.00  0.00    +0.000 A 
ATOM     16  C   UNL     1       1.115   8.130  21.163  0.00  0.00    +0.000 A 
ATOM     17  C   UNL     1       0.971   8.930  19.981  0.00  0.00    +0.000 A 
ATOM     18  O   UNL     1      -0.535  12.296  19.385  0.00  0.00    +0.000 OA
ATOM     19  C   UNL     1      -1.540  12.184  20.537  0.00  0.00    +0.000 C 
ATOM     20  O   UNL     1      -2.807  11.952  19.834  0.00  0.00    +0.000 OA
ATOM     21  C   UNL     1      -3.928  12.632  20.247  0.00  0.00    +0.000 A 
ATOM     22  C   UNL     1      -4.976  12.974  19.404  0.00  0.00    +0.000 A 
ATOM     23  C   UNL     1      -6.199  13.401  19.957  0.00  0.00    +0.000 A 
ATOM     24  C   UNL     1      -6.429  13.278  21.342  0.00  0.00    +0.000 A 
ATOM     25  C   UNL     1      -7.711  13.372  21.920  0.00  0.00    +0.000 A 
ATOM     26  C   UNL     1      -7.914  13.056  23.268  0.00  0.00    +0.000 A 
ATOM     27  C   UNL     1      -6.833  12.703  24.069  0.00  0.00    +0.000 A 
ATOM     28  C   UNL     1      -5.543  12.731  23.540  0.00  0.00    +0.000 A 
ATOM     29  C   UNL     1      -5.328  13.017  22.175  0.00  0.00    +0.000 A 
ATOM     30  C   UNL     1      -4.059  12.968  21.576  0.00  0.00    +0.000 A 
ENDROOT
TORSDOF 0
ENDMDL
MODEL 4
REMARK VINA RESULT:      -7.4      2.991      5.688
REMARK  Name = 
REMARK  0 active torsions:
REMARK  status: ('A' for Active; 'I' for Inactive)
REMARK                            x       y       z     vdW  Elec       q    Type
REMARK                         _______ _______ _______ _____ _____    ______ ____
ROOT
ATOM      1  C   UNL     1       1.961  12.725  20.657  0.00  0.00    +0.000 C 
ATOM      2  C   UNL     1       1.069  11.805  20.212  0.00  0.00    +0.000 C 
ATOM      3  C   UNL     1       0.624  10.842  21.261  0.00  0.00    +0.000 C 
ATOM      4  O   UNL     1      -0.100  11.605  22.246  0.00  0.00    +0.000 OA
ATOM      5  C   UNL     1      -0.832  12.723  21.719  0.00  0.00    +0.000 C 
ATOM      6  C   UNL     1      -1.149  12.570  20.256  0.00  0.00    +0.000 C 
ATOM      7  C   UNL     1      -2.224  11.799  20.175  0.00  0.00    +0.000 C 
ATOM      8  C   UNL     1      -2.780  11.789  18.880  0.00  0.00    +0.000 A 
ATOM      9  C   UNL     1      -1.918  11.397  17.879  0.00  0.00    +0.000 A 
ATOM     10  C   UNL     1      -2.562  11.104  16.671  0.00  0.00    +0.000 A 
ATOM     11  C   UNL     1      -4.000  11.237  16.578  0.00  0.00    +0.000 A 
ATOM     12  C   UNL     1      -4.827  11.681  17.670  0.00  0.00    +0.000 A 
ATOM     13  C   UNL     1      -6.241  11.777  17.745  0.00  0.00    +0.000 A 
ATOM     14  C   UNL     1      -6.912  12.204  18.931  0.00  0.00    +0.000 A 
ATOM     15  C   UNL     1      -6.223  12.636  20.058  0.00  0.00    +0.000 A 
ATOM     16  C   UNL     1      -4.842  12.539  19.981  0.00  0.00    +0.000 A 
ATOM     17  C   UNL     1      -4.151  12.023  18.834  0.00  0.00    +0.000 A 
ATOM     18  O   UNL     1      -0.560  11.208  18.211  0.00  0.00    +0.000 OA
ATOM     19  C   UNL     1      -0.026  12.246  19.205  0.00  0.00    +0.000 C 
ATOM     20  O   UNL     1       0.490  13.298  18.322  0.00  0.00    +0.000 OA
ATOM     21  C   UNL     1       1.707  13.866  18.610  0.00  0.00    +0.000 A 
ATOM     22  C   UNL     1       2.560  14.391  17.649  0.00  0.00    +0.000 A 
ATOM     23  C   UNL     1       3.636  15.208  18.048  0.00  0.00    +0.000 A 
ATOM     24  C   UNL     1       3.722  15.662  19.379  0.00  0.00    +0.000 A 
ATOM     25  C   UNL     1       4.561  16.722  19.777  0.00  0.00    +0.000 A 
ATOM     26  C   UNL     1       4.472  17.260  21.066  0.00  0.00    +0.000 A 
ATOM     27  C   UNL     1       3.590  16.710  21.989  0.00  0.00    +0.000 A 
ATOM     28  C   UNL     1       2.847  15.580  21.647  0.00  0.00    +0.000 A 
ATOM     29  C   UNL     1       2.905  15.047  20.342  0.00  0.00    +0.000 A 
ATOM     30  C   UNL     1       2.108  13.969  19.923  0.00  0.00    +0.000 A 
ENDROOT
TORSDOF 0
ENDMDL
MODEL 5
REMARK VINA RESULT:      -7.2      7.530      9.337
REMARK  Name = 
REMARK  0 active torsions:
REMARK  status: ('A' for Active; 'I' for Inactive)
REMARK                            x       y       z     vdW  Elec       q    Type
REMARK                         _______ _______ _______ _____ _____    ______ ____
ROOT
ATOM      1  C   UNL     1       9.288  15.850  20.049  0.00  0.00    +0.000 C 
ATOM      2  C   UNL     1       8.288  16.549  20.643  0.00  0.00    +0.000 C 
ATOM      3  C   UNL     1       8.219  17.979  20.220  0.00  0.00    +0.000 C 
ATOM      4  O   UNL     1       7.883  17.981  18.819  0.00  0.00    +0.000 OA
ATOM      5  C   UNL     1       7.026  16.905  18.406  0.00  0.00    +0.000 C 
ATOM      6  C   UNL     1       6.226  16.332  19.544  0.00  0.00    +0.000 C 
ATOM      7  C   UNL     1       5.180  17.127  19.718  0.00  0.00    +0.000 C 
ATOM      8  C   UNL     1       4.216  16.564  20.578  0.00  0.00    +0.000 A 
ATOM      9  C   UNL     1       4.679  16.218  21.828  0.00  0.00    +0.000 A 
ATOM     10  C   UNL     1       3.659  15.952  22.748  0.00  0.00    +0.000 A 
ATOM     11  C   UNL     1       2.277  16.051  22.330  0.00  0.00    +0.000 A 
ATOM     12  C   UNL     1       1.877  16.395  20.991  0.00  0.00    +0.000 A 
ATOM     13  C   UNL     1       0.575  16.609  20.468  0.00  0.00    +0.000 A 
ATOM     14  C   UNL     1       0.354  16.988  19.109  0.00  0.00    +0.000 A 
ATOM     15  C   UNL     1       1.391  17.087  18.188  0.00  0.00    +0.000 A 
ATOM     16  C   UNL     1       2.662  16.880  18.704  0.00  0.00    +0.000 A 
ATOM     17  C   UNL     1       2.913  16.591  20.086  0.00  0.00    +0.000 A 
ATOM     18  O   UNL     1       6.068  16.304  22.066  0.00  0.00    +0.000 OA
ATOM     19  C   UNL     1       6.919  15.855  20.873  0.00  0.00    +0.000 C 
ATOM     20  O   UNL     1       7.113  14.425  21.137  0.00  0.00    +0.000 OA
ATOM     21  C   UNL     1       8.360  13.880  20.954  0.00  0.00    +0.000 A 
ATOM     22  C   UNL     1       8.839  12.790  21.667  0.00  0.00    +0.000 A 
ATOM     23  C   UNL     1       9.994  12.121  21.218  0.00  0.00    +0.000 A 
ATOM     24  C   UNL     1      10.534  12.416  19.951  0.00  0.00    +0.000 A 
ATOM     25  C   UNL     1      11.469  11.585  19.301  0.00  0.00    +0.000 A 
ATOM     26  C   UNL     1      11.830  11.819  17.970  0.00  0.00    +0.000 A 
ATOM     27  C   UNL     1      11.313  12.917  17.292  0.00  0.00    +0.000 A 
ATOM     28  C   UNL     1      10.486  13.818  17.964  0.00  0.00    +0.000 A 
ATOM     29  C   UNL     1      10.089  13.577  19.296  0.00  0.00    +0.000 A 
ATOM     30  C   UNL     1       9.187  14.404  19.985  0.00  0.00    +0.000 A 
ENDROOT
TORSDOF 0
ENDMDL
MODEL 6
REMARK VINA RESULT:      -7.1      7.461     11.957
REMARK  Name = 
REMARK  0 active torsions:
REMARK  status: ('A' for Active; 'I' for Inactive)
REMARK                            x       y       z     vdW  Elec       q    Type
REMARK                         _______ _______ _______ _____ _____    ______ ____
ROOT
ATOM      1  C   UNL     1       4.652  16.199  21.173  0.00  0.00    +0.000 C 
ATOM      2  C   UNL     1       5.962  16.499  20.992  0.00  0.00    +0.000 C 
ATOM      3  C   UNL     1       6.732  16.629  22.264  0.00  0.00    +0.000 C 
ATOM      4  O   UNL     1       6.737  15.328  22.882  0.00  0.00    +0.000 OA
ATOM      5  C   UNL     1       6.753  14.226  21.960  0.00  0.00    +0.000 C 
ATOM      6  C   UNL     1       7.300  14.608  20.611  0.00  0.00    +0.000 C 
ATOM      7  C   UNL     1       8.621  14.576  20.708  0.00  0.00    +0.000 C 
ATOM      8  C   UNL     1       9.253  14.659  19.452  0.00  0.00    +0.000 A 
ATOM      9  C   UNL     1       8.925  15.769  18.706  0.00  0.00    +0.000 A 
ATOM     10  C   UNL     1       9.779  15.985  17.619  0.00  0.00    +0.000 A 
ATOM     11  C   UNL     1      10.873  15.067  17.377  0.00  0.00    +0.000 A 
ATOM     12  C   UNL     1      11.131  13.910  18.194  0.00  0.00    +0.000 A 
ATOM     13  C   UNL     1      12.203  12.983  18.125  0.00  0.00    +0.000 A 
ATOM     14  C   UNL     1      12.332  11.901  19.048  0.00  0.00    +0.000 A 
ATOM     15  C   UNL     1      11.372  11.633  20.017  0.00  0.00    +0.000 A 
ATOM     16  C   UNL     1      10.328  12.543  20.082  0.00  0.00    +0.000 A 
ATOM     17  C   UNL     1      10.228  13.690  19.227  0.00  0.00    +0.000 A 
ATOM     18  O   UNL     1       7.895  16.607  19.184  0.00  0.00    +0.000 OA
ATOM     19  C   UNL     1       6.729  15.838  19.815  0.00  0.00    +0.000 C 
ATOM     20  O   UNL     1       5.828  15.631  18.676  0.00  0.00    +0.000 OA
ATOM     21  C   UNL     1       4.481  15.834  18.850  0.00  0.00    +0.000 A 
ATOM     22  C   UNL     1       3.625  16.244  17.838  0.00  0.00    +0.000 A 
ATOM     23  C   UNL     1       2.232  16.143  18.024  0.00  0.00    +0.000 A 
ATOM     24  C   UNL     1       1.717  15.441  19.131  0.00  0.00    +0.000 A 
ATOM     25  C   UNL     1       0.374  15.021  19.218  0.00  0.00    +0.000 A 
ATOM     26  C   UNL     1      -0.043  14.166  20.245  0.00  0.00    +0.000 A 
ATOM     27  C   UNL     1       0.856  13.771  21.229  0.00  0.00    +0.000 A 
ATOM     28  C   UNL     1       2.154  14.283  21.225  0.00  0.00    +0.000 A 
ATOM     29  C   UNL     1       2.596  15.120  20.179  0.00  0.00    +0.000 A 
ATOM     30  C   UNL     1       3.917  15.586  20.082  0.00  0.00    +0.000 A 
ENDROOT
TORSDOF 0
ENDMDL
MODEL 7
REMARK VINA RESULT:      -7.1      1.452      1.577
REMARK  Name = 
REMARK  0 active torsions:
REMARK  status: ('A' for Active; 'I' for Inactive)
REMARK                            x       y       z     vdW  Elec       q    Type
REMARK                         _______ _______ _______ _____ _____    ______ ____
ROOT
ATOM      1  C   UNL     1       0.730  12.673  21.167  0.00  0.00    +0.000 C 
ATOM      2  C   UNL     1      -0.039  13.523  21.892  0.00  0.00    +0.000 C 
ATOM      3  C   UNL     1       0.269  14.964  21.655  0.00  0.00    +0.000 C 
ATOM      4  O   UNL     1      -0.072  15.242  20.283  0.00  0.00    +0.000 OA
ATOM      5  C   UNL     1      -1.191  14.494  19.780  0.00  0.00    +0.000 C 
ATOM      6  C   UNL     1      -2.099  14.003  20.875  0.00  0.00    +0.000 C 
ATOM      7  C   UNL     1      -2.893  15.015  21.198  0.00  0.00    +0.000 C 
ATOM      8  C   UNL     1      -3.961  14.614  22.025  0.00  0.00    +0.000 A 
ATOM      9  C   UNL     1      -3.590  13.995  23.198  0.00  0.00    +0.000 A 
ATOM     10  C   UNL     1      -4.631  13.886  24.126  0.00  0.00    +0.000 A 
ATOM     11  C   UNL     1      -5.943  14.398  23.791  0.00  0.00    +0.000 A 
ATOM     12  C   UNL     1      -6.254  15.011  22.526  0.00  0.00    +0.000 A 
ATOM     13  C   UNL     1      -7.459  15.626  22.098  0.00  0.00    +0.000 A 
ATOM     14  C   UNL     1      -7.589  16.228  20.809  0.00  0.00    +0.000 A 
ATOM     15  C   UNL     1      -6.576  16.174  19.859  0.00  0.00    +0.000 A 
ATOM     16  C   UNL     1      -5.399  15.574  20.283  0.00  0.00    +0.000 A 
ATOM     17  C   UNL     1      -5.215  15.048  21.604  0.00  0.00    +0.000 A 
ATOM     18  O   UNL     1      -2.225  13.681  23.378  0.00  0.00    +0.000 OA
ATOM     19  C   UNL     1      -1.541  13.189  22.098  0.00  0.00    +0.000 C 
ATOM     20  O   UNL     1      -1.731  11.736  22.172  0.00  0.00    +0.000 OA
ATOM     21  C   UNL     1      -0.676  10.912  21.861  0.00  0.00    +0.000 A 
ATOM     22  C   UNL     1      -0.496   9.650  22.408  0.00  0.00    +0.000 A 
ATOM     23  C   UNL     1       0.433   8.767  21.824  0.00  0.00    +0.000 A 
ATOM     24  C   UNL     1       1.015   9.077  20.579  0.00  0.00    +0.000 A 
ATOM     25  C   UNL     1       1.687   8.125  19.786  0.00  0.00    +0.000 A 
ATOM     26  C   UNL     1       2.080   8.432  18.478  0.00  0.00    +0.000 A 
ATOM     27  C   UNL     1       1.864   9.707  17.969  0.00  0.00    +0.000 A 
ATOM     28  C   UNL     1       1.316  10.695  18.788  0.00  0.00    +0.000 A 
ATOM     29  C   UNL     1       0.887  10.390  20.097  0.00  0.00    +0.000 A 
ATOM     30  C   UNL     1       0.247  11.325  20.926  0.00  0.00    +0.000 A 
ENDROOT
TORSDOF 0
ENDMDL
MODEL 8
REMARK VINA RESULT:      -7.0      2.448      5.247
REMARK  Name = 
REMARK  0 active torsions:
REMARK  status: ('A' for Active; 'I' for Inactive)
REMARK                            x       y       z     vdW  Elec       q    Type
REMARK                         _______ _______ _______ _____ _____    ______ ____
ROOT
ATOM      1  C   UNL     1       0.804  13.149  20.965  0.00  0.00    +0.000 C 
ATOM      2  C   UNL     1      -0.289  12.372  20.758  0.00  0.00    +0.000 C 
ATOM      3  C   UNL     1      -0.320  11.141  21.603  0.00  0.00    +0.000 C 
ATOM      4  O   UNL     1      -0.438  11.579  22.970  0.00  0.00    +0.000 OA
ATOM      5  C   UNL     1      -1.200  12.783  23.151  0.00  0.00    +0.000 C 
ATOM      6  C   UNL     1      -2.153  13.042  22.016  0.00  0.00    +0.000 C 
ATOM      7  C   UNL     1      -3.229  12.300  22.241  0.00  0.00    +0.000 C 
ATOM      8  C   UNL     1      -4.302  12.643  21.395  0.00  0.00    +0.000 A 
ATOM      9  C   UNL     1      -4.029  12.569  20.047  0.00  0.00    +0.000 A 
ATOM     10  C   UNL     1      -5.172  12.613  19.242  0.00  0.00    +0.000 A 
ATOM     11  C   UNL     1      -6.476  12.734  19.859  0.00  0.00    +0.000 A 
ATOM     12  C   UNL     1      -6.673  12.833  21.282  0.00  0.00    +0.000 A 
ATOM     13  C   UNL     1      -7.883  12.871  22.021  0.00  0.00    +0.000 A 
ATOM     14  C   UNL     1      -7.901  12.930  23.448  0.00  0.00    +0.000 A 
ATOM     15  C   UNL     1      -6.738  13.043  24.200  0.00  0.00    +0.000 A 
ATOM     16  C   UNL     1      -5.557  13.003  23.474  0.00  0.00    +0.000 A 
ATOM     17  C   UNL     1      -5.514  12.848  22.049  0.00  0.00    +0.000 A 
ATOM     18  O   UNL     1      -2.695  12.325  19.654  0.00  0.00    +0.000 OA
ATOM     19  C   UNL     1      -1.663  13.053  20.522  0.00  0.00    +0.000 C 
ATOM     20  O   UNL     1      -1.484  14.323  19.810  0.00  0.00    +0.000 OA
ATOM     21  C   UNL     1      -0.212  14.815  19.642  0.00  0.00    +0.000 A 
ATOM     22  C   UNL     1       0.173  15.609  18.571  0.00  0.00    +0.000 A 
ATOM     23  C   UNL     1       1.396  16.305  18.627  0.00  0.00    +0.000 A 
ATOM     24  C   UNL     1       2.118  16.367  19.835  0.00  0.00    +0.000 A 
ATOM     25  C   UNL     1       3.157  17.291  20.063  0.00  0.00    +0.000 A 
ATOM     26  C   UNL     1       3.714  17.442  21.338  0.00  0.00    +0.000 A 
ATOM     27  C   UNL     1       3.284  16.633  22.384  0.00  0.00    +0.000 A 
ATOM     28  C   UNL     1       2.347  15.629  22.142  0.00  0.00    +0.000 A 
ATOM     29  C   UNL     1       1.756  15.487  20.869  0.00  0.00    +0.000 A 
ATOM     30  C   UNL     1       0.742  14.552  20.599  0.00  0.00    +0.000 A 
ENDROOT
TORSDOF 0
ENDMDL
MODEL 9
REMARK VINA RESULT:      -7.0      1.481      8.020
REMARK  Name = 
REMARK  0 active torsions:
REMARK  status: ('A' for Active; 'I' for Inactive)
REMARK                            x       y       z     vdW  Elec       q    Type
REMARK                         _______ _______ _______ _____ _____    ______ ____
ROOT
ATOM      1  C   UNL     1      -2.353  12.988  21.115  0.00  0.00    +0.000 C 
ATOM      2  C   UNL     1      -1.089  12.680  20.730  0.00  0.00    +0.000 C 
ATOM      3  C   UNL     1      -0.062  12.921  21.786  0.00  0.00    +0.000 C 
ATOM      4  O   UNL     1      -0.350  12.006  22.861  0.00  0.00    +0.000 OA
ATOM      5  C   UNL     1      -0.896  10.744  22.444  0.00  0.00    +0.000 C 
ATOM      6  C   UNL     1      -0.561  10.411  21.016  0.00  0.00    +0.000 C 
ATOM      7  C   UNL     1       0.665   9.907  21.016  0.00  0.00    +0.000 C 
ATOM      8  C   UNL     1       1.000   9.315  19.781  0.00  0.00    +0.000 A 
ATOM      9  C   UNL     1       0.900  10.148  18.689  0.00  0.00    +0.000 A 
ATOM     10  C   UNL     1       1.520   9.641  17.541  0.00  0.00    +0.000 A 
ATOM     11  C   UNL     1       2.173   8.350  17.594  0.00  0.00    +0.000 A 
ATOM     12  C   UNL     1       2.208   7.528  18.775  0.00  0.00    +0.000 A 
ATOM     13  C   UNL     1       2.876   6.294  18.992  0.00  0.00    +0.000 A 
ATOM     14  C   UNL     1       2.840   5.621  20.251  0.00  0.00    +0.000 A 
ATOM     15  C   UNL     1       2.080   6.085  21.318  0.00  0.00    +0.000 A 
ATOM     16  C   UNL     1       1.432   7.292  21.103  0.00  0.00    +0.000 A 
ATOM     17  C   UNL     1       1.531   8.031  19.878  0.00  0.00    +0.000 A 
ATOM     18  O   UNL     1       0.332  11.426  18.880  0.00  0.00    +0.000 OA
ATOM     19  C   UNL     1      -0.856  11.423  19.849  0.00  0.00    +0.000 C 
ATOM     20  O   UNL     1      -1.999  11.212  18.955  0.00  0.00    +0.000 OA
ATOM     21  C   UNL     1      -3.134  11.964  19.140  0.00  0.00    +0.000 A 
ATOM     22  C   UNL     1      -4.007  12.308  18.117  0.00  0.00    +0.000 A 
ATOM     23  C   UNL     1      -5.280  12.821  18.435  0.00  0.00    +0.000 A 
ATOM     24  C   UNL     1      -5.743  12.785  19.765  0.00  0.00    +0.000 A 
ATOM     25  C   UNL     1      -7.097  12.970  20.112  0.00  0.00    +0.000 A 
ATOM     26  C   UNL     1      -7.537  12.738  21.420  0.00  0.00    +0.000 A 
ATOM     27  C   UNL     1      -6.627  12.380  22.408  0.00  0.00    +0.000 A 
ATOM     28  C   UNL     1      -5.266  12.319  22.104  0.00  0.00    +0.000 A 
ATOM     29  C   UNL     1      -4.812  12.520  20.783  0.00  0.00    +0.000 A 
ATOM     30  C   UNL     1      -3.466  12.379  20.410  0.00  0.00    +0.000 A 
ENDROOT
TORSDOF 0
ENDMDL
