MODEL 1
REMARK VINA RESULT:      -7.7      0.000      0.000
REMARK  Name = 
REMARK  7 active torsions:
REMARK  status: ('A' for Active; 'I' for Inactive)
REMARK    1  A    between atoms: C_1  and  C_2
REMARK    2  A    between atoms: C_2  and  C_3
REMARK    3  A    between atoms: C_3  and  C_4
REMARK    4  A    between atoms: C_4  and  C_5
REMARK    5  A    between atoms: C_5  and  C_6
REMARK    6  A    between atoms: N_7  and  N_8
REMARK    7  A    between atoms: C_15  and  C_17
REMARK                            x       y       z     vdW  Elec       q    Type
REMARK                         _______ _______ _______ _____ _____    ______ ____
ROOT
ATOM      1  N   UNL     1       4.468   3.396  17.438  0.00  0.00    +0.000 NA
ATOM      2  C   UNL     1       3.329   3.513  18.048  0.00  0.00    +0.000 C 
ATOM      3  S   UNL     1       2.191   2.203  17.783  0.00  0.00    +0.000 S 
ATOM      4  C   UNL     1       1.063   2.812  19.026  0.00  0.00    +0.000 C 
ATOM      5  C   UNL     1       1.648   4.096  19.543  0.00  0.00    +0.000 C 
ATOM      6  O   UNL     1       1.131   4.671  20.497  0.00  0.00    +0.000 OA
ATOM      7  N   UNL     1       2.792   4.476  18.883  0.00  0.00    +0.000 N 
ATOM      8  C   UNL     1       3.407   5.672  19.257  0.00  0.00    +0.000 C 
ATOM      9  O   UNL     1       4.505   5.725  19.812  0.00  0.00    +0.000 OA
ENDROOT
BRANCH   8  10
ATOM     10  C   UNL     1       2.574   6.935  19.235  0.00  0.00    +0.000 A 
ATOM     11  C   UNL     1       2.401   7.578  18.000  0.00  0.00    +0.000 A 
ATOM     12  C   UNL     1       1.705   8.786  17.908  0.00  0.00    +0.000 A 
ATOM     13  C   UNL     1       1.166   9.367  19.052  0.00  0.00    +0.000 A 
ATOM     14  C   UNL     1       1.307   8.730  20.284  0.00  0.00    +0.000 A 
ATOM     15  C   UNL     1       1.993   7.510  20.378  0.00  0.00    +0.000 A 
ENDBRANCH   8  10
BRANCH   1  17
ATOM     16  C   UNL     1       5.841   4.980  16.591  0.00  0.00    +0.000 C 
ATOM     17  N   UNL     1       5.378   4.399  17.663  0.00  0.00    +0.000 NA
BRANCH  16  18
ATOM     18  C   UNL     1       6.916   6.036  16.785  0.00  0.00    +0.000 C 
ATOM     19  C   UNL     1       7.503   5.994  18.185  0.00  0.00    +0.000 C 
ENDBRANCH  16  18
BRANCH  16  20
ATOM     20  C   UNL     1       5.420   4.659  15.158  0.00  0.00    +0.000 C 
BRANCH  20  22
ATOM     21  C   UNL     1       6.063   3.645  12.890  0.00  0.00    +0.000 C 
ATOM     22  C   UNL     1       6.518   4.048  14.287  0.00  0.00    +0.000 C 
ENDBRANCH  20  22
ENDBRANCH  16  20
ENDBRANCH   1  17
TORSDOF 5
ENDMDL
MODEL 2
REMARK VINA RESULT:      -7.4      0.383      1.107
REMARK  Name = 
REMARK  7 active torsions:
REMARK  status: ('A' for Active; 'I' for Inactive)
REMARK    1  A    between atoms: C_1  and  C_2
REMARK    2  A    between atoms: C_2  and  C_3
REMARK    3  A    between atoms: C_3  and  C_4
REMARK    4  A    between atoms: C_4  and  C_5
REMARK    5  A    between atoms: C_5  and  C_6
REMARK    6  A    between atoms: N_7  and  N_8
REMARK    7  A    between atoms: C_15  and  C_17
REMARK                            x       y       z     vdW  Elec       q    Type
REMARK                         _______ _______ _______ _____ _____    ______ ____
ROOT
ATOM      1  N   UNL     1       4.410   3.282  17.458  0.00  0.00    +0.000 NA
ATOM      2  C   UNL     1       3.282   3.477  18.069  0.00  0.00    +0.000 C 
ATOM      3  S   UNL     1       2.089   2.202  17.880  0.00  0.00    +0.000 S 
ATOM      4  C   UNL     1       0.998   2.920  19.097  0.00  0.00    +0.000 C 
ATOM      5  C   UNL     1       1.639   4.204  19.544  0.00  0.00    +0.000 C 
ATOM      6  O   UNL     1       1.154   4.848  20.470  0.00  0.00    +0.000 OA
ATOM      7  N   UNL     1       2.792   4.502  18.857  0.00  0.00    +0.000 N 
ATOM      8  C   UNL     1       3.458   5.690  19.164  0.00  0.00    +0.000 C 
ATOM      9  O   UNL     1       4.562   5.726  19.708  0.00  0.00    +0.000 OA
ENDROOT
BRANCH   8  10
ATOM     10  C   UNL     1       2.676   6.983  19.083  0.00  0.00    +0.000 A 
ATOM     11  C   UNL     1       2.114   7.477  20.270  0.00  0.00    +0.000 A 
ATOM     12  C   UNL     1       1.320   8.627  20.266  0.00  0.00    +0.000 A 
ATOM     13  C   UNL     1       1.079   9.303  19.074  0.00  0.00    +0.000 A 
ATOM     14  C   UNL     1       1.649   8.839  17.888  0.00  0.00    +0.000 A 
ATOM     15  C   UNL     1       2.459   7.694  17.891  0.00  0.00    +0.000 A 
ENDBRANCH   8  10
BRANCH   1  17
ATOM     16  C   UNL     1       5.835   4.765  16.522  0.00  0.00    +0.000 C 
ATOM     17  N   UNL     1       5.362   4.257  17.625  0.00  0.00    +0.000 NA
BRANCH  16  18
ATOM     18  C   UNL     1       6.954   5.785  16.654  0.00  0.00    +0.000 C 
ATOM     19  C   UNL     1       6.456   7.097  17.234  0.00  0.00    +0.000 C 
ENDBRANCH  16  18
BRANCH  16  20
ATOM     20  C   UNL     1       5.385   4.392  15.110  0.00  0.00    +0.000 C 
BRANCH  20  22
ATOM     21  C   UNL     1       6.068   3.571  12.777  0.00  0.00    +0.000 C 
ATOM     22  C   UNL     1       6.521   4.115  14.126  0.00  0.00    +0.000 C 
ENDBRANCH  20  22
ENDBRANCH  16  20
ENDBRANCH   1  17
TORSDOF 5
ENDMDL
MODEL 3
REMARK VINA RESULT:      -7.3      2.061      6.292
REMARK  Name = 
REMARK  7 active torsions:
REMARK  status: ('A' for Active; 'I' for Inactive)
REMARK    1  A    between atoms: C_1  and  C_2
REMARK    2  A    between atoms: C_2  and  C_3
REMARK    3  A    between atoms: C_3  and  C_4
REMARK    4  A    between atoms: C_4  and  C_5
REMARK    5  A    between atoms: C_5  and  C_6
REMARK    6  A    between atoms: N_7  and  N_8
REMARK    7  A    between atoms: C_15  and  C_17
REMARK                            x       y       z     vdW  Elec       q    Type
REMARK                         _______ _______ _______ _____ _____    ______ ____
ROOT
ATOM      1  N   UNL     1       1.712   5.983  20.778  0.00  0.00    +0.000 NA
ATOM      2  C   UNL     1       2.051   4.839  20.269  0.00  0.00    +0.000 C 
ATOM      3  S   UNL     1       1.578   3.427  21.199  0.00  0.00    +0.000 S 
ATOM      4  C   UNL     1       2.059   2.299  19.901  0.00  0.00    +0.000 C 
ATOM      5  C   UNL     1       2.646   3.138  18.800  0.00  0.00    +0.000 C 
ATOM      6  O   UNL     1       2.954   2.624  17.728  0.00  0.00    +0.000 OA
ATOM      7  N   UNL     1       2.729   4.472  19.121  0.00  0.00    +0.000 N 
ATOM      8  C   UNL     1       3.288   5.344  18.185  0.00  0.00    +0.000 C 
ATOM      9  O   UNL     1       2.642   6.209  17.593  0.00  0.00    +0.000 OA
ENDROOT
BRANCH   8  10
ATOM     10  C   UNL     1       4.678   5.037  17.671  0.00  0.00    +0.000 A 
ATOM     11  C   UNL     1       5.734   5.068  18.595  0.00  0.00    +0.000 A 
ATOM     12  C   UNL     1       7.054   4.864  18.187  0.00  0.00    +0.000 A 
ATOM     13  C   UNL     1       7.339   4.622  16.846  0.00  0.00    +0.000 A 
ATOM     14  C   UNL     1       6.299   4.564  15.918  0.00  0.00    +0.000 A 
ATOM     15  C   UNL     1       4.972   4.754  16.327  0.00  0.00    +0.000 A 
ENDBRANCH   8  10
BRANCH   1  17
ATOM     16  C   UNL     1       1.388   8.177  20.340  0.00  0.00    +0.000 C 
ATOM     17  N   UNL     1       2.048   7.093  20.043  0.00  0.00    +0.000 NA
BRANCH  16  18
ATOM     18  C   UNL     1       1.662   9.409  19.495  0.00  0.00    +0.000 C 
ATOM     19  C   UNL     1       1.221   9.216  18.056  0.00  0.00    +0.000 C 
ENDBRANCH  16  18
BRANCH  16  20
ATOM     20  C   UNL     1       0.334   8.298  21.441  0.00  0.00    +0.000 C 
BRANCH  20  22
ATOM     21  C   UNL     1      -0.571  10.023  23.111  0.00  0.00    +0.000 C 
ATOM     22  C   UNL     1       0.652   9.330  22.523  0.00  0.00    +0.000 C 
ENDBRANCH  20  22
ENDBRANCH  16  20
ENDBRANCH   1  17
TORSDOF 5
ENDMDL
MODEL 4
REMARK VINA RESULT:      -7.3      2.105      6.176
REMARK  Name = 
REMARK  7 active torsions:
REMARK  status: ('A' for Active; 'I' for Inactive)
REMARK    1  A    between atoms: C_1  and  C_2
REMARK    2  A    between atoms: C_2  and  C_3
REMARK    3  A    between atoms: C_3  and  C_4
REMARK    4  A    between atoms: C_4  and  C_5
REMARK    5  A    between atoms: C_5  and  C_6
REMARK    6  A    between atoms: N_7  and  N_8
REMARK    7  A    between atoms: C_15  and  C_17
REMARK                            x       y       z     vdW  Elec       q    Type
REMARK                         _______ _______ _______ _____ _____    ______ ____
ROOT
ATOM      1  N   UNL     1       1.819   5.913  20.790  0.00  0.00    +0.000 NA
ATOM      2  C   UNL     1       2.370   4.778  20.488  0.00  0.00    +0.000 C 
ATOM      3  S   UNL     1       2.237   3.525  21.710  0.00  0.00    +0.000 S 
ATOM      4  C   UNL     1       2.893   2.270  20.623  0.00  0.00    +0.000 C 
ATOM      5  C   UNL     1       3.251   2.962  19.337  0.00  0.00    +0.000 C 
ATOM      6  O   UNL     1       3.619   2.307  18.364  0.00  0.00    +0.000 OA
ATOM      7  N   UNL     1       3.066   4.322  19.383  0.00  0.00    +0.000 N 
ATOM      8  C   UNL     1       3.396   5.075  18.255  0.00  0.00    +0.000 C 
ATOM      9  O   UNL     1       2.562   5.654  17.558  0.00  0.00    +0.000 OA
ENDROOT
BRANCH   8  10
ATOM     10  C   UNL     1       4.799   4.947  17.703  0.00  0.00    +0.000 A 
ATOM     11  C   UNL     1       4.935   4.633  16.342  0.00  0.00    +0.000 A 
ATOM     12  C   UNL     1       6.195   4.429  15.772  0.00  0.00    +0.000 A 
ATOM     13  C   UNL     1       7.339   4.539  16.556  0.00  0.00    +0.000 A 
ATOM     14  C   UNL     1       7.224   4.874  17.906  0.00  0.00    +0.000 A 
ATOM     15  C   UNL     1       5.962   5.094  18.477  0.00  0.00    +0.000 A 
ENDBRANCH   8  10
BRANCH   1  17
ATOM     16  C   UNL     1       1.578   8.091  20.233  0.00  0.00    +0.000 C 
ATOM     17  N   UNL     1       1.889   6.892  19.829  0.00  0.00    +0.000 NA
BRANCH  16  18
ATOM     18  C   UNL     1       1.556   9.191  19.186  0.00  0.00    +0.000 C 
ATOM     19  C   UNL     1       2.056   8.699  17.840  0.00  0.00    +0.000 C 
ENDBRANCH  16  18
BRANCH  16  20
ATOM     20  C   UNL     1       1.198   8.472  21.663  0.00  0.00    +0.000 C 
BRANCH  20  22
ATOM     21  C   UNL     1      -0.500   9.859  22.998  0.00  0.00    +0.000 C 
ATOM     22  C   UNL     1      -0.263   8.883  21.852  0.00  0.00    +0.000 C 
ENDBRANCH  20  22
ENDBRANCH  16  20
ENDBRANCH   1  17
TORSDOF 5
ENDMDL
MODEL 5
REMARK VINA RESULT:      -7.2      2.183      6.352
REMARK  Name = 
REMARK  7 active torsions:
REMARK  status: ('A' for Active; 'I' for Inactive)
REMARK    1  A    between atoms: C_1  and  C_2
REMARK    2  A    between atoms: C_2  and  C_3
REMARK    3  A    between atoms: C_3  and  C_4
REMARK    4  A    between atoms: C_4  and  C_5
REMARK    5  A    between atoms: C_5  and  C_6
REMARK    6  A    between atoms: N_7  and  N_8
REMARK    7  A    between atoms: C_15  and  C_17
REMARK                            x       y       z     vdW  Elec       q    Type
REMARK                         _______ _______ _______ _____ _____    ______ ____
ROOT
ATOM      1  N   UNL     1       1.501   6.316  20.926  0.00  0.00    +0.000 NA
ATOM      2  C   UNL     1       1.921   5.254  20.310  0.00  0.00    +0.000 C 
ATOM      3  S   UNL     1       1.492   3.726  21.061  0.00  0.00    +0.000 S 
ATOM      4  C   UNL     1       2.081   2.774  19.669  0.00  0.00    +0.000 C 
ATOM      5  C   UNL     1       2.662   3.759  18.692  0.00  0.00    +0.000 C 
ATOM      6  O   UNL     1       3.036   3.382  17.585  0.00  0.00    +0.000 OA
ATOM      7  N   UNL     1       2.660   5.051  19.159  0.00  0.00    +0.000 N 
ATOM      8  C   UNL     1       3.205   6.049  18.348  0.00  0.00    +0.000 C 
ATOM      9  O   UNL     1       2.534   6.940  17.826  0.00  0.00    +0.000 OA
ENDROOT
BRANCH   8  10
ATOM     10  C   UNL     1       4.627   5.870  17.864  0.00  0.00    +0.000 A 
ATOM     11  C   UNL     1       4.870   6.025  16.491  0.00  0.00    +0.000 A 
ATOM     12  C   UNL     1       6.141   5.808  15.955  0.00  0.00    +0.000 A 
ATOM     13  C   UNL     1       7.193   5.435  16.787  0.00  0.00    +0.000 A 
ATOM     14  C   UNL     1       6.975   5.299  18.158  0.00  0.00    +0.000 A 
ATOM     15  C   UNL     1       5.703   5.531  18.701  0.00  0.00    +0.000 A 
ENDBRANCH   8  10
BRANCH   1  17
ATOM     16  C   UNL     1       1.035   8.513  20.670  0.00  0.00    +0.000 C 
ATOM     17  N   UNL     1       1.803   7.516  20.331  0.00  0.00    +0.000 NA
BRANCH  16  18
ATOM     18  C   UNL     1       1.275   9.841  19.972  0.00  0.00    +0.000 C 
ATOM     19  C   UNL     1       0.622   9.885  18.603  0.00  0.00    +0.000 C 
ENDBRANCH  16  18
BRANCH  16  20
ATOM     20  C   UNL     1      -0.108   8.445  21.682  0.00  0.00    +0.000 C 
BRANCH  20  22
ATOM     21  C   UNL     1      -0.918  10.480  23.019  0.00  0.00    +0.000 C 
ATOM     22  C   UNL     1       0.074   9.328  22.917  0.00  0.00    +0.000 C 
ENDBRANCH  20  22
ENDBRANCH  16  20
ENDBRANCH   1  17
TORSDOF 5
ENDMDL
MODEL 6
REMARK VINA RESULT:      -7.2      0.783      1.484
REMARK  Name = 
REMARK  7 active torsions:
REMARK  status: ('A' for Active; 'I' for Inactive)
REMARK    1  A    between atoms: C_1  and  C_2
REMARK    2  A    between atoms: C_2  and  C_3
REMARK    3  A    between atoms: C_3  and  C_4
REMARK    4  A    between atoms: C_4  and  C_5
REMARK    5  A    between atoms: C_5  and  C_6
REMARK    6  A    between atoms: N_7  and  N_8
REMARK    7  A    between atoms: C_15  and  C_17
REMARK                            x       y       z     vdW  Elec       q    Type
REMARK                         _______ _______ _______ _____ _____    ______ ____
ROOT
ATOM      1  N   UNL     1       4.790   3.316  17.848  0.00  0.00    +0.000 NA
ATOM      2  C   UNL     1       3.549   3.470  18.192  0.00  0.00    +0.000 C 
ATOM      3  S   UNL     1       2.458   2.193  17.679  0.00  0.00    +0.000 S 
ATOM      4  C   UNL     1       1.103   2.841  18.644  0.00  0.00    +0.000 C 
ATOM      5  C   UNL     1       1.598   4.110  19.281  0.00  0.00    +0.000 C 
ATOM      6  O   UNL     1       0.900   4.704  20.099  0.00  0.00    +0.000 OA
ATOM      7  N   UNL     1       2.870   4.452  18.890  0.00  0.00    +0.000 N 
ATOM      8  C   UNL     1       3.423   5.631  19.394  0.00  0.00    +0.000 C 
ATOM      9  O   UNL     1       4.373   5.653  20.177  0.00  0.00    +0.000 OA
ENDROOT
BRANCH   8  10
ATOM     10  C   UNL     1       2.653   6.918  19.192  0.00  0.00    +0.000 A 
ATOM     11  C   UNL     1       2.054   7.499  20.319  0.00  0.00    +0.000 A 
ATOM     12  C   UNL     1       1.268   8.649  20.204  0.00  0.00    +0.000 A 
ATOM     13  C   UNL     1       1.073   9.237  18.958  0.00  0.00    +0.000 A 
ATOM     14  C   UNL     1       1.681   8.686  17.830  0.00  0.00    +0.000 A 
ATOM     15  C   UNL     1       2.482   7.541  17.944  0.00  0.00    +0.000 A 
ENDBRANCH   8  10
BRANCH   1  17
ATOM     16  C   UNL     1       6.483   4.734  17.363  0.00  0.00    +0.000 C 
ATOM     17  N   UNL     1       5.658   4.292  18.271  0.00  0.00    +0.000 NA
BRANCH  16  18
ATOM     18  C   UNL     1       7.520   5.752  17.806  0.00  0.00    +0.000 C 
ATOM     19  C   UNL     1       7.756   5.702  19.304  0.00  0.00    +0.000 C 
ENDBRANCH  16  18
BRANCH  16  20
ATOM     20  C   UNL     1       6.516   4.284  15.903  0.00  0.00    +0.000 C 
BRANCH  20  22
ATOM     21  C   UNL     1       5.130   6.408  15.515  0.00  0.00    +0.000 C 
ATOM     22  C   UNL     1       5.585   5.059  14.971  0.00  0.00    +0.000 C 
ENDBRANCH  20  22
ENDBRANCH  16  20
ENDBRANCH   1  17
TORSDOF 5
ENDMDL
MODEL 7
REMARK VINA RESULT:      -6.9      2.528      6.273
REMARK  Name = 
REMARK  7 active torsions:
REMARK  status: ('A' for Active; 'I' for Inactive)
REMARK    1  A    between atoms: C_1  and  C_2
REMARK    2  A    between atoms: C_2  and  C_3
REMARK    3  A    between atoms: C_3  and  C_4
REMARK    4  A    between atoms: C_4  and  C_5
REMARK    5  A    between atoms: C_5  and  C_6
REMARK    6  A    between atoms: N_7  and  N_8
REMARK    7  A    between atoms: C_15  and  C_17
REMARK                            x       y       z     vdW  Elec       q    Type
REMARK                         _______ _______ _______ _____ _____    ______ ____
ROOT
ATOM      1  N   UNL     1       2.850   8.423  17.328  0.00  0.00    +0.000 NA
ATOM      2  C   UNL     1       3.575   7.378  17.581  0.00  0.00    +0.000 C 
ATOM      3  S   UNL     1       5.005   7.189  16.581  0.00  0.00    +0.000 S 
ATOM      4  C   UNL     1       5.627   5.837  17.568  0.00  0.00    +0.000 C 
ATOM      5  C   UNL     1       4.593   5.568  18.626  0.00  0.00    +0.000 C 
ATOM      6  O   UNL     1       4.821   4.758  19.521  0.00  0.00    +0.000 OA
ATOM      7  N   UNL     1       3.466   6.342  18.491  0.00  0.00    +0.000 N 
ATOM      8  C   UNL     1       2.422   6.157  19.400  0.00  0.00    +0.000 C 
ATOM      9  O   UNL     1       2.094   6.998  20.236  0.00  0.00    +0.000 OA
ENDROOT
BRANCH   8  10
ATOM     10  C   UNL     1       1.855   4.762  19.553  0.00  0.00    +0.000 A 
ATOM     11  C   UNL     1       1.747   4.243  20.852  0.00  0.00    +0.000 A 
ATOM     12  C   UNL     1       1.299   2.938  21.072  0.00  0.00    +0.000 A 
ATOM     13  C   UNL     1       0.947   2.132  19.993  0.00  0.00    +0.000 A 
ATOM     14  C   UNL     1       1.026   2.640  18.696  0.00  0.00    +0.000 A 
ATOM     15  C   UNL     1       1.461   3.954  18.473  0.00  0.00    +0.000 A 
ENDBRANCH   8  10
BRANCH   1  17
ATOM     16  C   UNL     1       1.437   9.839  18.381  0.00  0.00    +0.000 C 
ATOM     17  N   UNL     1       1.746   8.599  18.126  0.00  0.00    +0.000 NA
BRANCH  16  18
ATOM     18  C   UNL     1       0.276  10.082  19.330  0.00  0.00    +0.000 C 
ATOM     19  C   UNL     1      -1.037  10.240  18.586  0.00  0.00    +0.000 C 
ENDBRANCH  16  18
BRANCH  16  20
ATOM     20  C   UNL     1       2.170  11.064  17.836  0.00  0.00    +0.000 C 
BRANCH  20  22
ATOM     21  C   UNL     1       2.953  13.459  18.325  0.00  0.00    +0.000 C 
ATOM     22  C   UNL     1       1.955  12.349  18.635  0.00  0.00    +0.000 C 
ENDBRANCH  20  22
ENDBRANCH  16  20
ENDBRANCH   1  17
TORSDOF 5
ENDMDL
MODEL 8
REMARK VINA RESULT:      -6.9      2.503      6.138
REMARK  Name = 
REMARK  7 active torsions:
REMARK  status: ('A' for Active; 'I' for Inactive)
REMARK    1  A    between atoms: C_1  and  C_2
REMARK    2  A    between atoms: C_2  and  C_3
REMARK    3  A    between atoms: C_3  and  C_4
REMARK    4  A    between atoms: C_4  and  C_5
REMARK    5  A    between atoms: C_5  and  C_6
REMARK    6  A    between atoms: N_7  and  N_8
REMARK    7  A    between atoms: C_15  and  C_17
REMARK                            x       y       z     vdW  Elec       q    Type
REMARK                         _______ _______ _______ _____ _____    ______ ____
ROOT
ATOM      1  N   UNL     1       2.884   8.310  17.212  0.00  0.00    +0.000 NA
ATOM      2  C   UNL     1       3.636   7.304  17.535  0.00  0.00    +0.000 C 
ATOM      3  S   UNL     1       5.087   7.103  16.567  0.00  0.00    +0.000 S 
ATOM      4  C   UNL     1       5.734   5.829  17.638  0.00  0.00    +0.000 C 
ATOM      5  C   UNL     1       4.692   5.589  18.695  0.00  0.00    +0.000 C 
ATOM      6  O   UNL     1       4.930   4.838  19.638  0.00  0.00    +0.000 OA
ATOM      7  N   UNL     1       3.544   6.319  18.501  0.00  0.00    +0.000 N 
ATOM      8  C   UNL     1       2.493   6.153  19.405  0.00  0.00    +0.000 C 
ATOM      9  O   UNL     1       2.126   7.031  20.187  0.00  0.00    +0.000 OA
ENDROOT
BRANCH   8  10
ATOM     10  C   UNL     1       1.965   4.753  19.629  0.00  0.00    +0.000 A 
ATOM     11  C   UNL     1       1.585   4.013  18.499  0.00  0.00    +0.000 A 
ATOM     12  C   UNL     1       1.023   2.740  18.627  0.00  0.00    +0.000 A 
ATOM     13  C   UNL     1       0.837   2.185  19.889  0.00  0.00    +0.000 A 
ATOM     14  C   UNL     1       1.230   2.897  21.023  0.00  0.00    +0.000 A 
ATOM     15  C   UNL     1       1.808   4.168  20.897  0.00  0.00    +0.000 A 
ENDBRANCH   8  10
BRANCH   1  17
ATOM     16  C   UNL     1       1.506   9.735  18.298  0.00  0.00    +0.000 C 
ATOM     17  N   UNL     1       1.763   8.497  17.984  0.00  0.00    +0.000 NA
BRANCH  16  18
ATOM     18  C   UNL     1       0.326   9.984  19.222  0.00  0.00    +0.000 C 
ATOM     19  C   UNL     1      -0.967  10.169  18.449  0.00  0.00    +0.000 C 
ENDBRANCH  16  18
BRANCH  16  20
ATOM     20  C   UNL     1       2.314  10.951  17.846  0.00  0.00    +0.000 C 
BRANCH  20  22
ATOM     21  C   UNL     1       2.927  13.401  18.297  0.00  0.00    +0.000 C 
ATOM     22  C   UNL     1       1.944  12.262  18.538  0.00  0.00    +0.000 C 
ENDBRANCH  20  22
ENDBRANCH  16  20
ENDBRANCH   1  17
TORSDOF 5
ENDMDL
MODEL 9
REMARK VINA RESULT:      -6.4      4.402      6.698
REMARK  Name = 
REMARK  7 active torsions:
REMARK  status: ('A' for Active; 'I' for Inactive)
REMARK    1  A    between atoms: C_1  and  C_2
REMARK    2  A    between atoms: C_2  and  C_3
REMARK    3  A    between atoms: C_3  and  C_4
REMARK    4  A    between atoms: C_4  and  C_5
REMARK    5  A    between atoms: C_5  and  C_6
REMARK    6  A    between atoms: N_7  and  N_8
REMARK    7  A    between atoms: C_15  and  C_17
REMARK                            x       y       z     vdW  Elec       q    Type
REMARK                         _______ _______ _______ _____ _____    ______ ____
ROOT
ATOM      1  N   UNL     1       1.231   8.242  21.278  0.00  0.00    +0.000 NA
ATOM      2  C   UNL     1       0.429   9.248  21.446  0.00  0.00    +0.000 C 
ATOM      3  S   UNL     1      -0.075   9.544  23.102  0.00  0.00    +0.000 S 
ATOM      4  C   UNL     1      -0.855  11.094  22.682  0.00  0.00    +0.000 C 
ATOM      5  C   UNL     1      -0.720  11.252  21.193  0.00  0.00    +0.000 C 
ATOM      6  O   UNL     1      -1.070  12.296  20.648  0.00  0.00    +0.000 OA
ATOM      7  N   UNL     1      -0.139  10.167  20.583  0.00  0.00    +0.000 N 
ATOM      8  C   UNL     1       0.010  10.187  19.195  0.00  0.00    +0.000 C 
ATOM      9  O   UNL     1       1.103  10.251  18.631  0.00  0.00    +0.000 OA
ENDROOT
BRANCH   8  10
ATOM     10  C   UNL     1      -1.226  10.423  18.353  0.00  0.00    +0.000 A 
ATOM     11  C   UNL     1      -2.248   9.465  18.419  0.00  0.00    +0.000 A 
ATOM     12  C   UNL     1      -3.389   9.573  17.620  0.00  0.00    +0.000 A 
ATOM     13  C   UNL     1      -3.526  10.646  16.744  0.00  0.00    +0.000 A 
ATOM     14  C   UNL     1      -2.530  11.621  16.683  0.00  0.00    +0.000 A 
ATOM     15  C   UNL     1      -1.391  11.522  17.494  0.00  0.00    +0.000 A 
ENDBRANCH   8  10
BRANCH   1  17
ATOM     16  C   UNL     1       2.029   6.798  19.733  0.00  0.00    +0.000 C 
ATOM     17  N   UNL     1       1.658   8.020  19.992  0.00  0.00    +0.000 NA
BRANCH  16  18
ATOM     18  C   UNL     1       2.592   6.524  18.348  0.00  0.00    +0.000 C 
ATOM     19  C   UNL     1       3.250   7.755  17.752  0.00  0.00    +0.000 C 
ENDBRANCH  16  18
BRANCH  16  20
ATOM     20  C   UNL     1       1.981   5.630  20.717  0.00  0.00    +0.000 C 
BRANCH  20  22
ATOM     21  C   UNL     1       1.371   3.158  21.033  0.00  0.00    +0.000 C 
ATOM     22  C   UNL     1       1.111   4.453  20.275  0.00  0.00    +0.000 C 
ENDBRANCH  20  22
ENDBRANCH  16  20
ENDBRANCH   1  17
TORSDOF 5
ENDMDL
