MODEL 1
REMARK VINA RESULT:      -7.4      0.000      0.000
REMARK  Name = 
REMARK  7 active torsions:
REMARK  status: ('A' for Active; 'I' for Inactive)
REMARK    1  A    between atoms: C_1  and  O_2
REMARK    2  A    between atoms: O_2  and  C_3
REMARK    3  A    between atoms: C_6  and  N_7
REMARK    4  A    between atoms: N_7  and  C_8
REMARK    5  A    between atoms: N_7  and  C_9
REMARK    6  A    between atoms: C_11  and  C_12
REMARK    7  A    between atoms: C_16  and  N_17
REMARK                            x       y       z     vdW  Elec       q    Type
REMARK                         _______ _______ _______ _____ _____    ______ ____
ROOT
ATOM      1  C   UNL     1       2.616   3.557  18.570  0.00  0.00    +0.000 A 
ATOM      2  N   UNL     1       1.978   2.624  19.304  0.00  0.00    +0.000 NA
ATOM      3  C   UNL     1       1.459   3.007  20.455  0.00  0.00    +0.000 A 
ATOM      4  C   UNL     1       2.355   2.738  21.635  0.00  0.00    +0.000 C 
ATOM      5  N   UNL     1       0.919   4.187  20.595  0.00  0.00    +0.000 NA
ATOM      6  C   UNL     1       1.566   5.143  19.995  0.00  0.00    +0.000 A 
ATOM      7  C   UNL     1       1.453   6.266  20.766  0.00  0.00    +0.000 A 
ATOM      8  C   UNL     1       1.797   7.534  20.375  0.00  0.00    +0.000 A 
ATOM      9  C   UNL     1       2.350   7.608  19.104  0.00  0.00    +0.000 A 
ATOM     10  C   UNL     1       2.687   6.396  18.370  0.00  0.00    +0.000 A 
ATOM     11  C   UNL     1       2.382   5.032  18.849  0.00  0.00    +0.000 A 
ENDROOT
BRANCH   8  12
ATOM     12  N   UNL     1       1.692   8.580  21.292  0.00  0.00    +0.000 N 
ATOM     13  H   UNL     1       2.517   9.175  21.328  0.00  0.00    +0.000 HD
ATOM     14  H   UNL     1       1.452   8.293  22.229  0.00  0.00    +0.000 HD
ENDBRANCH   8  12
BRANCH   1  15
ATOM     15  N   UNL     1       3.604   2.904  17.797  0.00  0.00    +0.000 N 
ATOM     16  C   UNL     1       3.977   1.527  18.039  0.00  0.00    +0.000 C 
BRANCH  15  20
ATOM     17  C   UNL     1       6.714   4.853  15.445  0.00  0.00    +0.000 A 
ATOM     18  C   UNL     1       6.795   4.792  16.842  0.00  0.00    +0.000 A 
ATOM     19  C   UNL     1       5.769   4.180  17.622  0.00  0.00    +0.000 A 
ATOM     20  C   UNL     1       4.624   3.628  17.030  0.00  0.00    +0.000 A 
ATOM     21  C   UNL     1       4.554   3.740  15.625  0.00  0.00    +0.000 A 
ATOM     22  C   UNL     1       5.582   4.330  14.846  0.00  0.00    +0.000 A 
BRANCH  17  24
ATOM     23  C   UNL     1       7.832   5.392  13.387  0.00  0.00    +0.000 C 
ATOM     24  O   UNL     1       7.773   5.455  14.813  0.00  0.00    +0.000 OA
ENDBRANCH  17  24
ENDBRANCH  15  20
ENDBRANCH   1  15
TORSDOF 4
ENDMDL
MODEL 2
REMARK VINA RESULT:      -7.3      0.205      1.035
REMARK  Name = 
REMARK  7 active torsions:
REMARK  status: ('A' for Active; 'I' for Inactive)
REMARK    1  A    between atoms: C_1  and  O_2
REMARK    2  A    between atoms: O_2  and  C_3
REMARK    3  A    between atoms: C_6  and  N_7
REMARK    4  A    between atoms: N_7  and  C_8
REMARK    5  A    between atoms: N_7  and  C_9
REMARK    6  A    between atoms: C_11  and  C_12
REMARK    7  A    between atoms: C_16  and  N_17
REMARK                            x       y       z     vdW  Elec       q    Type
REMARK                         _______ _______ _______ _____ _____    ______ ____
ROOT
ATOM      1  C   UNL     1       2.551   3.506  18.638  0.00  0.00    +0.000 A 
ATOM      2  N   UNL     1       1.858   2.611  19.369  0.00  0.00    +0.000 NA
ATOM      3  C   UNL     1       1.321   3.034  20.498  0.00  0.00    +0.000 A 
ATOM      4  C   UNL     1       2.172   2.754  21.708  0.00  0.00    +0.000 C 
ATOM      5  N   UNL     1       0.821   4.235  20.601  0.00  0.00    +0.000 NA
ATOM      6  C   UNL     1       1.520   5.156  20.003  0.00  0.00    +0.000 A 
ATOM      7  C   UNL     1       1.426   6.296  20.750  0.00  0.00    +0.000 A 
ATOM      8  C   UNL     1       1.828   7.543  20.346  0.00  0.00    +0.000 A 
ATOM      9  C   UNL     1       2.420   7.572  19.091  0.00  0.00    +0.000 A 
ATOM     10  C   UNL     1       2.732   6.336  18.389  0.00  0.00    +0.000 A 
ATOM     11  C   UNL     1       2.364   4.993  18.884  0.00  0.00    +0.000 A 
ENDROOT
BRANCH   8  12
ATOM     12  N   UNL     1       1.736   8.609  21.241  0.00  0.00    +0.000 N 
ATOM     13  H   UNL     1       1.837   8.334  22.216  0.00  0.00    +0.000 HD
ATOM     14  H   UNL     1       0.902   9.169  21.142  0.00  0.00    +0.000 HD
ENDBRANCH   8  12
BRANCH   1  15
ATOM     15  N   UNL     1       3.535   2.802  17.906  0.00  0.00    +0.000 N 
ATOM     16  C   UNL     1       3.837   1.412  18.171  0.00  0.00    +0.000 C 
BRANCH  15  20
ATOM     17  C   UNL     1       6.659   4.995  15.798  0.00  0.00    +0.000 A 
ATOM     18  C   UNL     1       5.607   4.386  15.102  0.00  0.00    +0.000 A 
ATOM     19  C   UNL     1       4.595   3.644  15.781  0.00  0.00    +0.000 A 
ATOM     20  C   UNL     1       4.615   3.473  17.172  0.00  0.00    +0.000 A 
ATOM     21  C   UNL     1       5.708   4.066  17.840  0.00  0.00    +0.000 A 
ATOM     22  C   UNL     1       6.704   4.821  17.171  0.00  0.00    +0.000 A 
BRANCH  17  24
ATOM     23  C   UNL     1       7.693   5.327  13.654  0.00  0.00    +0.000 C 
ATOM     24  O   UNL     1       7.557   5.691  15.029  0.00  0.00    +0.000 OA
ENDBRANCH  17  24
ENDBRANCH  15  20
ENDBRANCH   1  15
TORSDOF 4
ENDMDL
MODEL 3
REMARK VINA RESULT:      -7.2      2.860      6.143
REMARK  Name = 
REMARK  7 active torsions:
REMARK  status: ('A' for Active; 'I' for Inactive)
REMARK    1  A    between atoms: C_1  and  O_2
REMARK    2  A    between atoms: O_2  and  C_3
REMARK    3  A    between atoms: C_6  and  N_7
REMARK    4  A    between atoms: N_7  and  C_8
REMARK    5  A    between atoms: N_7  and  C_9
REMARK    6  A    between atoms: C_11  and  C_12
REMARK    7  A    between atoms: C_16  and  N_17
REMARK                            x       y       z     vdW  Elec       q    Type
REMARK                         _______ _______ _______ _____ _____    ______ ____
ROOT
ATOM      1  C   UNL     1       3.764   4.825  19.195  0.00  0.00    +0.000 A 
ATOM      2  N   UNL     1       3.173   3.625  19.031  0.00  0.00    +0.000 NA
ATOM      3  C   UNL     1       3.435   2.967  17.917  0.00  0.00    +0.000 A 
ATOM      4  C   UNL     1       2.397   3.170  16.845  0.00  0.00    +0.000 C 
ATOM      5  N   UNL     1       4.619   3.004  17.371  0.00  0.00    +0.000 NA
ATOM      6  C   UNL     1       5.186   4.175  17.406  0.00  0.00    +0.000 A 
ATOM      7  C   UNL     1       5.912   4.315  16.257  0.00  0.00    +0.000 A 
ATOM      8  C   UNL     1       6.831   5.305  16.017  0.00  0.00    +0.000 A 
ATOM      9  C   UNL     1       6.944   6.238  17.038  0.00  0.00    +0.000 A 
ATOM     10  C   UNL     1       6.014   6.227  18.158  0.00  0.00    +0.000 A 
ATOM     11  C   UNL     1       4.973   5.197  18.355  0.00  0.00    +0.000 A 
ENDROOT
BRANCH   8  12
ATOM     12  N   UNL     1       7.452   5.367  14.769  0.00  0.00    +0.000 N 
ATOM     13  H   UNL     1       6.990   4.808  14.055  0.00  0.00    +0.000 HD
ATOM     14  H   UNL     1       8.436   5.140  14.779  0.00  0.00    +0.000 HD
ENDBRANCH   8  12
BRANCH   1  15
ATOM     15  N   UNL     1       2.926   5.615  20.016  0.00  0.00    +0.000 N 
ATOM     16  C   UNL     1       2.147   5.039  21.092  0.00  0.00    +0.000 C 
BRANCH  15  20
ATOM     17  C   UNL     1       1.209   9.436  18.810  0.00  0.00    +0.000 A 
ATOM     18  C   UNL     1       1.904   8.635  17.896  0.00  0.00    +0.000 A 
ATOM     19  C   UNL     1       2.492   7.395  18.287  0.00  0.00    +0.000 A 
ATOM     20  C   UNL     1       2.419   6.930  19.608  0.00  0.00    +0.000 A 
ATOM     21  C   UNL     1       1.747   7.780  20.514  0.00  0.00    +0.000 A 
ATOM     22  C   UNL     1       1.145   9.002  20.123  0.00  0.00    +0.000 A 
BRANCH  17  24
ATOM     23  C   UNL     1      -0.704  10.864  18.536  0.00  0.00    +0.000 C 
ATOM     24  O   UNL     1       0.680  10.596  18.304  0.00  0.00    +0.000 OA
ENDBRANCH  17  24
ENDBRANCH  15  20
ENDBRANCH   1  15
TORSDOF 4
ENDMDL
MODEL 4
REMARK VINA RESULT:      -7.2      2.833      6.046
REMARK  Name = 
REMARK  7 active torsions:
REMARK  status: ('A' for Active; 'I' for Inactive)
REMARK    1  A    between atoms: C_1  and  O_2
REMARK    2  A    between atoms: O_2  and  C_3
REMARK    3  A    between atoms: C_6  and  N_7
REMARK    4  A    between atoms: N_7  and  C_8
REMARK    5  A    between atoms: N_7  and  C_9
REMARK    6  A    between atoms: C_11  and  C_12
REMARK    7  A    between atoms: C_16  and  N_17
REMARK                            x       y       z     vdW  Elec       q    Type
REMARK                         _______ _______ _______ _____ _____    ______ ____
ROOT
ATOM      1  C   UNL     1       3.786   4.792  19.195  0.00  0.00    +0.000 A 
ATOM      2  N   UNL     1       3.205   3.588  19.030  0.00  0.00    +0.000 NA
ATOM      3  C   UNL     1       3.470   2.933  17.914  0.00  0.00    +0.000 A 
ATOM      4  C   UNL     1       2.429   3.129  16.844  0.00  0.00    +0.000 C 
ATOM      5  N   UNL     1       4.653   2.980  17.367  0.00  0.00    +0.000 NA
ATOM      6  C   UNL     1       5.210   4.156  17.402  0.00  0.00    +0.000 A 
ATOM      7  C   UNL     1       5.934   4.303  16.252  0.00  0.00    +0.000 A 
ATOM      8  C   UNL     1       6.845   5.301  16.011  0.00  0.00    +0.000 A 
ATOM      9  C   UNL     1       6.951   6.233  17.034  0.00  0.00    +0.000 A 
ATOM     10  C   UNL     1       6.023   6.214  18.156  0.00  0.00    +0.000 A 
ATOM     11  C   UNL     1       4.991   5.175  18.353  0.00  0.00    +0.000 A 
ENDROOT
BRANCH   8  12
ATOM     12  N   UNL     1       7.463   5.370  14.763  0.00  0.00    +0.000 N 
ATOM     13  H   UNL     1       7.839   6.290  14.544  0.00  0.00    +0.000 HD
ATOM     14  H   UNL     1       6.889   5.058  13.993  0.00  0.00    +0.000 HD
ENDBRANCH   8  12
BRANCH   1  15
ATOM     15  N   UNL     1       2.943   5.574  20.018  0.00  0.00    +0.000 N 
ATOM     16  C   UNL     1       2.235   5.006  21.145  0.00  0.00    +0.000 C 
BRANCH  15  20
ATOM     17  C   UNL     1       1.417   9.443  18.711  0.00  0.00    +0.000 A 
ATOM     18  C   UNL     1       1.249   9.008  20.032  0.00  0.00    +0.000 A 
ATOM     19  C   UNL     1       1.722   7.733  20.462  0.00  0.00    +0.000 A 
ATOM     20  C   UNL     1       2.359   6.846  19.581  0.00  0.00    +0.000 A 
ATOM     21  C   UNL     1       2.476   7.298  18.248  0.00  0.00    +0.000 A 
ATOM     22  C   UNL     1       2.026   8.573  17.823  0.00  0.00    +0.000 A 
BRANCH  17  24
ATOM     23  C   UNL     1       0.721  11.597  19.517  0.00  0.00    +0.000 C 
ATOM     24  O   UNL     1       0.930  10.694  18.430  0.00  0.00    +0.000 OA
ENDBRANCH  17  24
ENDBRANCH  15  20
ENDBRANCH   1  15
TORSDOF 4
ENDMDL
MODEL 5
REMARK VINA RESULT:      -6.9      1.486      1.983
REMARK  Name = 
REMARK  7 active torsions:
REMARK  status: ('A' for Active; 'I' for Inactive)
REMARK    1  A    between atoms: C_1  and  O_2
REMARK    2  A    between atoms: O_2  and  C_3
REMARK    3  A    between atoms: C_6  and  N_7
REMARK    4  A    between atoms: N_7  and  C_8
REMARK    5  A    between atoms: N_7  and  C_9
REMARK    6  A    between atoms: C_11  and  C_12
REMARK    7  A    between atoms: C_16  and  N_17
REMARK                            x       y       z     vdW  Elec       q    Type
REMARK                         _______ _______ _______ _____ _____    ______ ____
ROOT
ATOM      1  C   UNL     1       2.666   4.275  18.672  0.00  0.00    +0.000 A 
ATOM      2  N   UNL     1       2.108   3.182  19.227  0.00  0.00    +0.000 NA
ATOM      3  C   UNL     1       1.494   3.335  20.386  0.00  0.00    +0.000 A 
ATOM      4  C   UNL     1       2.359   2.997  21.570  0.00  0.00    +0.000 C 
ATOM      5  N   UNL     1       0.814   4.416  20.653  0.00  0.00    +0.000 NA
ATOM      6  C   UNL     1       1.372   5.514  20.233  0.00  0.00    +0.000 A 
ATOM      7  C   UNL     1       1.091   6.494  21.144  0.00  0.00    +0.000 A 
ATOM      8  C   UNL     1       1.303   7.836  20.954  0.00  0.00    +0.000 A 
ATOM      9  C   UNL     1       1.903   8.152  19.743  0.00  0.00    +0.000 A 
ATOM     10  C   UNL     1       2.413   7.103  18.871  0.00  0.00    +0.000 A 
ATOM     11  C   UNL     1       2.248   5.659  19.137  0.00  0.00    +0.000 A 
ENDROOT
BRANCH   8  12
ATOM     12  N   UNL     1       1.033   8.720  21.998  0.00  0.00    +0.000 N 
ATOM     13  H   UNL     1       0.258   9.351  21.809  0.00  0.00    +0.000 HD
ATOM     14  H   UNL     1       1.829   9.260  22.306  0.00  0.00    +0.000 HD
ENDBRANCH   8  12
BRANCH   1  15
ATOM     15  N   UNL     1       3.758   3.853  17.880  0.00  0.00    +0.000 N 
ATOM     16  C   UNL     1       4.060   2.452  17.679  0.00  0.00    +0.000 C 
BRANCH  15  20
ATOM     17  C   UNL     1       7.114   6.543  17.169  0.00  0.00    +0.000 A 
ATOM     18  C   UNL     1       5.988   6.556  16.336  0.00  0.00    +0.000 A 
ATOM     19  C   UNL     1       4.897   5.661  16.544  0.00  0.00    +0.000 A 
ATOM     20  C   UNL     1       4.907   4.715  17.580  0.00  0.00    +0.000 A 
ATOM     21  C   UNL     1       6.072   4.702  18.377  0.00  0.00    +0.000 A 
ATOM     22  C   UNL     1       7.149   5.603  18.185  0.00  0.00    +0.000 A 
BRANCH  17  24
ATOM     23  C   UNL     1       8.147   8.660  17.649  0.00  0.00    +0.000 C 
ATOM     24  O   UNL     1       8.087   7.464  16.870  0.00  0.00    +0.000 OA
ENDBRANCH  17  24
ENDBRANCH  15  20
ENDBRANCH   1  15
TORSDOF 4
ENDMDL
MODEL 6
REMARK VINA RESULT:      -6.7      3.723      7.375
REMARK  Name = 
REMARK  7 active torsions:
REMARK  status: ('A' for Active; 'I' for Inactive)
REMARK    1  A    between atoms: C_1  and  O_2
REMARK    2  A    between atoms: O_2  and  C_3
REMARK    3  A    between atoms: C_6  and  N_7
REMARK    4  A    between atoms: N_7  and  C_8
REMARK    5  A    between atoms: N_7  and  C_9
REMARK    6  A    between atoms: C_11  and  C_12
REMARK    7  A    between atoms: C_16  and  N_17
REMARK                            x       y       z     vdW  Elec       q    Type
REMARK                         _______ _______ _______ _____ _____    ______ ____
ROOT
ATOM      1  C   UNL     1       2.682   6.999  19.059  0.00  0.00    +0.000 A 
ATOM      2  N   UNL     1       2.195   6.258  20.073  0.00  0.00    +0.000 NA
ATOM      3  C   UNL     1       2.425   4.958  20.041  0.00  0.00    +0.000 A 
ATOM      4  C   UNL     1       1.290   4.164  19.452  0.00  0.00    +0.000 C 
ATOM      5  N   UNL     1       3.553   4.482  19.591  0.00  0.00    +0.000 NA
ATOM      6  C   UNL     1       4.009   5.097  18.539  0.00  0.00    +0.000 A 
ATOM      7  C   UNL     1       4.625   4.166  17.751  0.00  0.00    +0.000 A 
ATOM      8  C   UNL     1       5.425   4.445  16.672  0.00  0.00    +0.000 A 
ATOM      9  C   UNL     1       5.533   5.797  16.378  0.00  0.00    +0.000 A 
ATOM     10  C   UNL     1       4.701   6.775  17.065  0.00  0.00    +0.000 A 
ATOM     11  C   UNL     1       3.780   6.440  18.170  0.00  0.00    +0.000 A 
ENDROOT
BRANCH   8  12
ATOM     12  N   UNL     1       5.935   3.391  15.914  0.00  0.00    +0.000 N 
ATOM     13  H   UNL     1       5.607   3.386  14.951  0.00  0.00    +0.000 HD
ATOM     14  H   UNL     1       5.788   2.476  16.316  0.00  0.00    +0.000 HD
ENDBRANCH   8  12
BRANCH   1  15
ATOM     15  N   UNL     1       1.844   8.126  18.900  0.00  0.00    +0.000 N 
ATOM     16  C   UNL     1       1.933   8.989  17.742  0.00  0.00    +0.000 C 
BRANCH  15  20
ATOM     17  C   UNL     1      -0.053  10.250  22.202  0.00  0.00    +0.000 A 
ATOM     18  C   UNL     1       0.868   9.221  22.438  0.00  0.00    +0.000 A 
ATOM     19  C   UNL     1       1.473   8.502  21.364  0.00  0.00    +0.000 A 
ATOM     20  C   UNL     1       1.163   8.778  20.024  0.00  0.00    +0.000 A 
ATOM     21  C   UNL     1       0.203   9.794  19.822  0.00  0.00    +0.000 A 
ATOM     22  C   UNL     1      -0.386  10.523  20.886  0.00  0.00    +0.000 A 
BRANCH  17  24
ATOM     23  C   UNL     1      -1.562  11.865  23.145  0.00  0.00    +0.000 C 
ATOM     24  O   UNL     1      -0.551  10.870  23.320  0.00  0.00    +0.000 OA
ENDBRANCH  17  24
ENDBRANCH  15  20
ENDBRANCH   1  15
TORSDOF 4
ENDMDL
MODEL 7
REMARK VINA RESULT:      -6.7      3.791      7.496
REMARK  Name = 
REMARK  7 active torsions:
REMARK  status: ('A' for Active; 'I' for Inactive)
REMARK    1  A    between atoms: C_1  and  O_2
REMARK    2  A    between atoms: O_2  and  C_3
REMARK    3  A    between atoms: C_6  and  N_7
REMARK    4  A    between atoms: N_7  and  C_8
REMARK    5  A    between atoms: N_7  and  C_9
REMARK    6  A    between atoms: C_11  and  C_12
REMARK    7  A    between atoms: C_16  and  N_17
REMARK                            x       y       z     vdW  Elec       q    Type
REMARK                         _______ _______ _______ _____ _____    ______ ____
ROOT
ATOM      1  C   UNL     1       2.525   7.082  19.269  0.00  0.00    +0.000 A 
ATOM      2  N   UNL     1       2.045   6.369  20.306  0.00  0.00    +0.000 NA
ATOM      3  C   UNL     1       2.284   5.070  20.313  0.00  0.00    +0.000 A 
ATOM      4  C   UNL     1       1.151   4.252  19.752  0.00  0.00    +0.000 C 
ATOM      5  N   UNL     1       3.412   4.587  19.872  0.00  0.00    +0.000 NA
ATOM      6  C   UNL     1       3.861   5.173  18.801  0.00  0.00    +0.000 A 
ATOM      7  C   UNL     1       4.479   4.222  18.038  0.00  0.00    +0.000 A 
ATOM      8  C   UNL     1       5.274   4.474  16.949  0.00  0.00    +0.000 A 
ATOM      9  C   UNL     1       5.373   5.817  16.614  0.00  0.00    +0.000 A 
ATOM     10  C   UNL     1       4.538   6.810  17.274  0.00  0.00    +0.000 A 
ATOM     11  C   UNL     1       3.622   6.503  18.393  0.00  0.00    +0.000 A 
ENDROOT
BRANCH   8  12
ATOM     12  N   UNL     1       5.787   3.400  16.221  0.00  0.00    +0.000 N 
ATOM     13  H   UNL     1       6.631   3.628  15.699  0.00  0.00    +0.000 HD
ATOM     14  H   UNL     1       5.125   2.961  15.598  0.00  0.00    +0.000 HD
ENDBRANCH   8  12
BRANCH   1  15
ATOM     15  N   UNL     1       1.679   8.199  19.080  0.00  0.00    +0.000 N 
ATOM     16  C   UNL     1       1.685   8.964  17.851  0.00  0.00    +0.000 C 
BRANCH  15  20
ATOM     17  C   UNL     1      -0.220  10.235  22.434  0.00  0.00    +0.000 A 
ATOM     18  C   UNL     1      -0.527  10.580  21.112  0.00  0.00    +0.000 A 
ATOM     19  C   UNL     1       0.109   9.938  20.008  0.00  0.00    +0.000 A 
ATOM     20  C   UNL     1       1.083   8.946  20.193  0.00  0.00    +0.000 A 
ATOM     21  C   UNL     1       1.398   8.650  21.538  0.00  0.00    +0.000 A 
ATOM     22  C   UNL     1       0.753   9.272  22.636  0.00  0.00    +0.000 A 
BRANCH  17  24
ATOM     23  C   UNL     1      -1.861  11.902  22.988  0.00  0.00    +0.000 C 
ATOM     24  O   UNL     1      -0.912  10.918  23.403  0.00  0.00    +0.000 OA
ENDBRANCH  17  24
ENDBRANCH  15  20
ENDBRANCH   1  15
TORSDOF 4
ENDMDL
MODEL 8
REMARK VINA RESULT:      -6.7      2.984      6.039
REMARK  Name = 
REMARK  7 active torsions:
REMARK  status: ('A' for Active; 'I' for Inactive)
REMARK    1  A    between atoms: C_1  and  O_2
REMARK    2  A    between atoms: O_2  and  C_3
REMARK    3  A    between atoms: C_6  and  N_7
REMARK    4  A    between atoms: N_7  and  C_8
REMARK    5  A    between atoms: N_7  and  C_9
REMARK    6  A    between atoms: C_11  and  C_12
REMARK    7  A    between atoms: C_16  and  N_17
REMARK                            x       y       z     vdW  Elec       q    Type
REMARK                         _______ _______ _______ _____ _____    ______ ____
ROOT
ATOM      1  C   UNL     1       3.654   5.180  19.597  0.00  0.00    +0.000 A 
ATOM      2  N   UNL     1       3.724   3.929  20.092  0.00  0.00    +0.000 NA
ATOM      3  C   UNL     1       4.449   3.051  19.423  0.00  0.00    +0.000 A 
ATOM      4  C   UNL     1       3.638   2.198  18.484  0.00  0.00    +0.000 C 
ATOM      5  N   UNL     1       5.555   3.401  18.828  0.00  0.00    +0.000 NA
ATOM      6  C   UNL     1       5.500   4.559  18.236  0.00  0.00    +0.000 A 
ATOM      7  C   UNL     1       6.265   4.482  17.107  0.00  0.00    +0.000 A 
ATOM      8  C   UNL     1       6.648   5.550  16.335  0.00  0.00    +0.000 A 
ATOM      9  C   UNL     1       6.137   6.770  16.757  0.00  0.00    +0.000 A 
ATOM     10  C   UNL     1       5.140   6.830  17.816  0.00  0.00    +0.000 A 
ATOM     11  C   UNL     1       4.678   5.653  18.580  0.00  0.00    +0.000 A 
ENDROOT
BRANCH   8  12
ATOM     12  N   UNL     1       7.374   5.318  15.167  0.00  0.00    +0.000 N 
ATOM     13  H   UNL     1       8.063   4.574  15.256  0.00  0.00    +0.000 HD
ATOM     14  H   UNL     1       7.823   6.137  14.783  0.00  0.00    +0.000 HD
ENDBRANCH   8  12
BRANCH   1  15
ATOM     15  N   UNL     1       2.417   5.738  19.998  0.00  0.00    +0.000 N 
ATOM     16  C   UNL     1       1.311   4.913  20.431  0.00  0.00    +0.000 C 
BRANCH  15  20
ATOM     17  C   UNL     1       1.349   9.791  18.799  0.00  0.00    +0.000 A 
ATOM     18  C   UNL     1       1.217   9.372  20.129  0.00  0.00    +0.000 A 
ATOM     19  C   UNL     1       1.539   8.040  20.526  0.00  0.00    +0.000 A 
ATOM     20  C   UNL     1       1.984   7.083  19.602  0.00  0.00    +0.000 A 
ATOM     21  C   UNL     1       2.068   7.525  18.264  0.00  0.00    +0.000 A 
ATOM     22  C   UNL     1       1.768   8.854  17.870  0.00  0.00    +0.000 A 
BRANCH  17  24
ATOM     23  C   UNL     1      -0.308  11.531  18.854  0.00  0.00    +0.000 C 
ATOM     24  O   UNL     1       1.020  11.100  18.552  0.00  0.00    +0.000 OA
ENDBRANCH  17  24
ENDBRANCH  15  20
ENDBRANCH   1  15
TORSDOF 4
ENDMDL
MODEL 9
REMARK VINA RESULT:      -6.6      5.193      8.661
REMARK  Name = 
REMARK  7 active torsions:
REMARK  status: ('A' for Active; 'I' for Inactive)
REMARK    1  A    between atoms: C_1  and  O_2
REMARK    2  A    between atoms: O_2  and  C_3
REMARK    3  A    between atoms: C_6  and  N_7
REMARK    4  A    between atoms: N_7  and  C_8
REMARK    5  A    between atoms: N_7  and  C_9
REMARK    6  A    between atoms: C_11  and  C_12
REMARK    7  A    between atoms: C_16  and  N_17
REMARK                            x       y       z     vdW  Elec       q    Type
REMARK                         _______ _______ _______ _____ _____    ______ ____
ROOT
ATOM      1  C   UNL     1       0.961  10.089  19.592  0.00  0.00    +0.000 A 
ATOM      2  N   UNL     1       0.700  10.297  20.897  0.00  0.00    +0.000 NA
ATOM      3  C   UNL     1       0.727   9.247  21.697  0.00  0.00    +0.000 A 
ATOM      4  C   UNL     1      -0.632   8.645  21.939  0.00  0.00    +0.000 C 
ATOM      5  N   UNL     1       1.591   8.285  21.522  0.00  0.00    +0.000 NA
ATOM      6  C   UNL     1       1.793   7.971  20.276  0.00  0.00    +0.000 A 
ATOM      7  C   UNL     1       2.009   6.622  20.221  0.00  0.00    +0.000 A 
ATOM      8  C   UNL     1       2.481   5.940  19.129  0.00  0.00    +0.000 A 
ATOM      9  C   UNL     1       2.684   6.731  18.006  0.00  0.00    +0.000 A 
ATOM     10  C   UNL     1       2.240   8.117  17.986  0.00  0.00    +0.000 A 
ATOM     11  C   UNL     1       1.654   8.811  19.151  0.00  0.00    +0.000 A 
ENDROOT
BRANCH   8  12
ATOM     12  N   UNL     1       2.589   4.550  19.191  0.00  0.00    +0.000 N 
ATOM     13  H   UNL     1       1.839   4.061  18.707  0.00  0.00    +0.000 HD
ATOM     14  H   UNL     1       2.674   4.178  20.125  0.00  0.00    +0.000 HD
ENDBRANCH   8  12
BRANCH   1  15
ATOM     15  N   UNL     1       0.279  11.080  18.848  0.00  0.00    +0.000 N 
ATOM     16  C   UNL     1       0.769  12.438  18.754  0.00  0.00    +0.000 C 
BRANCH  15  20
ATOM     17  C   UNL     1      -3.899  10.882  17.619  0.00  0.00    +0.000 A 
ATOM     18  C   UNL     1      -3.476  11.786  18.602  0.00  0.00    +0.000 A 
ATOM     19  C   UNL     1      -2.116  11.839  19.030  0.00  0.00    +0.000 A 
ATOM     20  C   UNL     1      -1.143  10.979  18.501  0.00  0.00    +0.000 A 
ATOM     21  C   UNL     1      -1.609  10.054  17.542  0.00  0.00    +0.000 A 
ATOM     22  C   UNL     1      -2.955  10.011  17.100  0.00  0.00    +0.000 A 
BRANCH  17  24
ATOM     23  C   UNL     1      -5.948  12.137  17.595  0.00  0.00    +0.000 C 
ATOM     24  O   UNL     1      -5.229  10.941  17.288  0.00  0.00    +0.000 OA
ENDBRANCH  17  24
ENDBRANCH  15  20
ENDBRANCH   1  15
TORSDOF 4
ENDMDL
