MODEL 1
REMARK VINA RESULT:      -6.8      0.000      0.000
REMARK  Name = 
REMARK  18 active torsions:
REMARK  status: ('A' for Active; 'I' for Inactive)
REMARK    1  A    between atoms: C_1  and  C_2
REMARK    2  A    between atoms: C_2  and  C_3
REMARK    3  A    between atoms: C_3  and  C_4
REMARK    4  A    between atoms: C_4  and  C_5
REMARK    5  A    between atoms: C_5  and  C_6
REMARK    6  A    between atoms: C_6  and  C_7
REMARK    7  A    between atoms: C_7  and  C_8
REMARK    8  A    between atoms: C_8  and  C_9
REMARK    9  A    between atoms: C_9  and  C_10
REMARK   10  A    between atoms: C_10  and  C_11
REMARK   11  A    between atoms: C_11  and  N_12
REMARK   12  A    between atoms: N_12  and  C_13
REMARK   13  A    between atoms: C_13  and  C_14
REMARK   14  A    between atoms: N_27  and  C_28
REMARK   15  A    between atoms: C_28  and  C_29
REMARK   16  A    between atoms: C_29  and  C_30
REMARK   17  A    between atoms: C_29  and  C_31
REMARK   18  A    between atoms: C_29  and  O_32
REMARK                            x       y       z     vdW  Elec       q    Type
REMARK                         _______ _______ _______ _____ _____    ______ ____
ROOT
ATOM      1  C   UNL     1      -0.512  10.340  18.370  0.00  0.00    +0.000 A 
ATOM      2  N   UNL     1      -1.025  10.026  17.200  0.00  0.00    +0.000 NA
ATOM      3  C   UNL     1      -2.302  10.515  17.193  0.00  0.00    +0.000 A 
ATOM      4  C   UNL     1      -3.240  10.430  16.154  0.00  0.00    +0.000 A 
ATOM      5  N   UNL     1      -2.952   9.760  14.968  0.00  0.00    +0.000 N 
ATOM      6  N   UNL     1      -4.438  11.033  16.288  0.00  0.00    +0.000 NA
ATOM      7  C   UNL     1      -4.748  11.682  17.417  0.00  0.00    +0.000 A 
ATOM      8  C   UNL     1      -6.004  12.261  17.479  0.00  0.00    +0.000 A 
ATOM      9  C   UNL     1      -6.450  12.968  18.600  0.00  0.00    +0.000 A 
ATOM     10  C   UNL     1      -5.618  13.086  19.706  0.00  0.00    +0.000 A 
ATOM     11  C   UNL     1      -4.350  12.507  19.682  0.00  0.00    +0.000 A 
ATOM     12  C   UNL     1      -3.889  11.803  18.542  0.00  0.00    +0.000 A 
ATOM     13  C   UNL     1      -2.610  11.177  18.379  0.00  0.00    +0.000 A 
ATOM     14  N   UNL     1      -1.454  11.009  19.144  0.00  0.00    +0.000 N 
ATOM     15  H   UNL     1      -1.953   9.668  14.828  0.00  0.00    +0.000 HD
ATOM     16  H   UNL     1      -3.506  10.122  14.201  0.00  0.00    +0.000 HD
ENDROOT
BRANCH   1  17
ATOM     17  C   UNL     1       0.889   9.924  18.730  0.00  0.00    +0.000 C 
BRANCH  17  18
ATOM     18  N   UNL     1       1.778   9.794  17.567  0.00  0.00    +0.000 NA
ATOM     19  H   UNL     1       1.198   9.574  16.755  0.00  0.00    +0.000 HD
BRANCH  18  20
ATOM     20  C   UNL     1       2.696   8.670  17.793  0.00  0.00    +0.000 C 
BRANCH  20  21
ATOM     21  C   UNL     1       1.914   7.448  18.265  0.00  0.00    +0.000 C 
BRANCH  21  22
ATOM     22  C   UNL     1       2.854   6.345  18.749  0.00  0.00    +0.000 C 
BRANCH  22  23
ATOM     23  C   UNL     1       4.083   6.254  17.850  0.00  0.00    +0.000 C 
BRANCH  23  24
ATOM     24  C   UNL     1       4.093   4.942  17.072  0.00  0.00    +0.000 C 
BRANCH  24  25
ATOM     25  C   UNL     1       3.909   3.758  18.013  0.00  0.00    +0.000 C 
BRANCH  25  26
ATOM     26  C   UNL     1       2.724   2.902  17.578  0.00  0.00    +0.000 C 
BRANCH  26  27
ATOM     27  C   UNL     1       2.128   2.157  18.768  0.00  0.00    +0.000 C 
BRANCH  27  28
ATOM     28  C   UNL     1       0.818   2.801  19.207  0.00  0.00    +0.000 C 
BRANCH  28  30
ATOM     29  C   UNL     1       1.876   2.875  21.481  0.00  0.00    +0.000 C 
ATOM     30  C   UNL     1       1.007   3.617  20.482  0.00  0.00    +0.000 C 
ENDBRANCH  28  30
ENDBRANCH  27  28
ENDBRANCH  26  27
ENDBRANCH  25  26
ENDBRANCH  24  25
ENDBRANCH  23  24
ENDBRANCH  22  23
ENDBRANCH  21  22
ENDBRANCH  20  21
ENDBRANCH  18  20
ENDBRANCH  17  18
ENDBRANCH   1  17
BRANCH  14  31
ATOM     31  C   UNL     1      -1.246  11.555  20.472  0.00  0.00    +0.000 C 
BRANCH  31  32
ATOM     32  C   UNL     1      -0.801  13.042  20.544  0.00  0.00    +0.000 C 
ATOM     33  C   UNL     1      -1.527  13.772  21.678  0.00  0.00    +0.000 C 
ATOM     34  C   UNL     1       0.725  13.085  20.736  0.00  0.00    +0.000 C 
BRANCH  32  35
ATOM     35  O   UNL     1      -1.026  13.755  19.321  0.00  0.00    +0.000 OA
ATOM     36  H   UNL     1      -1.672  14.467  19.469  0.00  0.00    +0.000 HD
ENDBRANCH  32  35
ENDBRANCH  31  32
ENDBRANCH  14  31
TORSDOF 15
ENDMDL
MODEL 2
REMARK VINA RESULT:      -6.7      2.065      2.872
REMARK  Name = 
REMARK  18 active torsions:
REMARK  status: ('A' for Active; 'I' for Inactive)
REMARK    1  A    between atoms: C_1  and  C_2
REMARK    2  A    between atoms: C_2  and  C_3
REMARK    3  A    between atoms: C_3  and  C_4
REMARK    4  A    between atoms: C_4  and  C_5
REMARK    5  A    between atoms: C_5  and  C_6
REMARK    6  A    between atoms: C_6  and  C_7
REMARK    7  A    between atoms: C_7  and  C_8
REMARK    8  A    between atoms: C_8  and  C_9
REMARK    9  A    between atoms: C_9  and  C_10
REMARK   10  A    between atoms: C_10  and  C_11
REMARK   11  A    between atoms: C_11  and  N_12
REMARK   12  A    between atoms: N_12  and  C_13
REMARK   13  A    between atoms: C_13  and  C_14
REMARK   14  A    between atoms: N_27  and  C_28
REMARK   15  A    between atoms: C_28  and  C_29
REMARK   16  A    between atoms: C_29  and  C_30
REMARK   17  A    between atoms: C_29  and  C_31
REMARK   18  A    between atoms: C_29  and  O_32
REMARK                            x       y       z     vdW  Elec       q    Type
REMARK                         _______ _______ _______ _____ _____    ______ ____
ROOT
ATOM      1  C   UNL     1      -0.068  10.989  19.069  0.00  0.00    +0.000 A 
ATOM      2  N   UNL     1      -1.088  11.224  18.272  0.00  0.00    +0.000 NA
ATOM      3  C   UNL     1      -2.117  11.637  19.072  0.00  0.00    +0.000 A 
ATOM      4  C   UNL     1      -3.410  12.009  18.673  0.00  0.00    +0.000 A 
ATOM      5  N   UNL     1      -3.803  11.949  17.339  0.00  0.00    +0.000 N 
ATOM      6  N   UNL     1      -4.285  12.463  19.592  0.00  0.00    +0.000 NA
ATOM      7  C   UNL     1      -3.940  12.528  20.884  0.00  0.00    +0.000 A 
ATOM      8  C   UNL     1      -4.903  12.992  21.764  0.00  0.00    +0.000 A 
ATOM      9  C   UNL     1      -4.668  13.111  23.138  0.00  0.00    +0.000 A 
ATOM     10  C   UNL     1      -3.434  12.737  23.653  0.00  0.00    +0.000 A 
ATOM     11  C   UNL     1      -2.444  12.256  22.796  0.00  0.00    +0.000 A 
ATOM     12  C   UNL     1      -2.673  12.149  21.402  0.00  0.00    +0.000 A 
ATOM     13  C   UNL     1      -1.743  11.689  20.413  0.00  0.00    +0.000 A 
ATOM     14  N   UNL     1      -0.428  11.219  20.392  0.00  0.00    +0.000 N 
ATOM     15  H   UNL     1      -3.004  11.951  16.717  0.00  0.00    +0.000 HD
ATOM     16  H   UNL     1      -4.551  12.605  17.150  0.00  0.00    +0.000 HD
ENDROOT
BRANCH   1  17
ATOM     17  C   UNL     1       1.238  10.485  18.515  0.00  0.00    +0.000 C 
BRANCH  17  18
ATOM     18  N   UNL     1       1.148   9.133  17.944  0.00  0.00    +0.000 NA
ATOM     19  H   UNL     1       0.185   8.811  18.055  0.00  0.00    +0.000 HD
BRANCH  18  20
ATOM     20  C   UNL     1       2.024   8.234  18.708  0.00  0.00    +0.000 C 
BRANCH  20  21
ATOM     21  C   UNL     1       3.116   7.679  17.799  0.00  0.00    +0.000 C 
BRANCH  21  22
ATOM     22  C   UNL     1       3.111   6.151  17.804  0.00  0.00    +0.000 C 
BRANCH  22  23
ATOM     23  C   UNL     1       4.395   5.607  17.184  0.00  0.00    +0.000 C 
BRANCH  23  24
ATOM     24  C   UNL     1       4.241   4.136  16.813  0.00  0.00    +0.000 C 
BRANCH  24  25
ATOM     25  C   UNL     1       3.752   3.328  18.009  0.00  0.00    +0.000 C 
BRANCH  25  26
ATOM     26  C   UNL     1       2.667   2.343  17.588  0.00  0.00    +0.000 C 
BRANCH  26  27
ATOM     27  C   UNL     1       1.631   2.172  18.695  0.00  0.00    +0.000 C 
BRANCH  27  28
ATOM     28  C   UNL     1       1.051   3.522  19.103  0.00  0.00    +0.000 C 
BRANCH  28  30
ATOM     29  C   UNL     1       1.770   5.107  20.911  0.00  0.00    +0.000 C 
ATOM     30  C   UNL     1       1.179   3.742  20.608  0.00  0.00    +0.000 C 
ENDBRANCH  28  30
ENDBRANCH  27  28
ENDBRANCH  26  27
ENDBRANCH  25  26
ENDBRANCH  24  25
ENDBRANCH  23  24
ENDBRANCH  22  23
ENDBRANCH  21  22
ENDBRANCH  20  21
ENDBRANCH  18  20
ENDBRANCH  17  18
ENDBRANCH   1  17
BRANCH  14  31
ATOM     31  C   UNL     1       0.438  11.115  21.550  0.00  0.00    +0.000 C 
BRANCH  31  32
ATOM     32  C   UNL     1       0.421   9.755  22.304  0.00  0.00    +0.000 C 
ATOM     33  C   UNL     1      -0.598   8.800  21.678  0.00  0.00    +0.000 C 
ATOM     34  C   UNL     1       1.840   9.162  22.270  0.00  0.00    +0.000 C 
BRANCH  32  35
ATOM     35  O   UNL     1       0.126   9.891  23.699  0.00  0.00    +0.000 OA
ATOM     36  H   UNL     1      -0.826  10.056  23.821  0.00  0.00    +0.000 HD
ENDBRANCH  32  35
ENDBRANCH  31  32
ENDBRANCH  14  31
TORSDOF 15
ENDMDL
MODEL 3
REMARK VINA RESULT:      -6.7      1.961      3.919
REMARK  Name = 
REMARK  18 active torsions:
REMARK  status: ('A' for Active; 'I' for Inactive)
REMARK    1  A    between atoms: C_1  and  C_2
REMARK    2  A    between atoms: C_2  and  C_3
REMARK    3  A    between atoms: C_3  and  C_4
REMARK    4  A    between atoms: C_4  and  C_5
REMARK    5  A    between atoms: C_5  and  C_6
REMARK    6  A    between atoms: C_6  and  C_7
REMARK    7  A    between atoms: C_7  and  C_8
REMARK    8  A    between atoms: C_8  and  C_9
REMARK    9  A    between atoms: C_9  and  C_10
REMARK   10  A    between atoms: C_10  and  C_11
REMARK   11  A    between atoms: C_11  and  N_12
REMARK   12  A    between atoms: N_12  and  C_13
REMARK   13  A    between atoms: C_13  and  C_14
REMARK   14  A    between atoms: N_27  and  C_28
REMARK   15  A    between atoms: C_28  and  C_29
REMARK   16  A    between atoms: C_29  and  C_30
REMARK   17  A    between atoms: C_29  and  C_31
REMARK   18  A    between atoms: C_29  and  O_32
REMARK                            x       y       z     vdW  Elec       q    Type
REMARK                         _______ _______ _______ _____ _____    ______ ____
ROOT
ATOM      1  C   UNL     1      -0.052  10.161  19.099  0.00  0.00    +0.000 A 
ATOM      2  N   UNL     1       0.316   9.770  20.301  0.00  0.00    +0.000 NA
ATOM      3  C   UNL     1      -0.442  10.482  21.189  0.00  0.00    +0.000 A 
ATOM      4  C   UNL     1      -0.410  10.403  22.590  0.00  0.00    +0.000 A 
ATOM      5  N   UNL     1       0.484   9.566  23.250  0.00  0.00    +0.000 N 
ATOM      6  N   UNL     1      -1.282  11.129  23.316  0.00  0.00    +0.000 NA
ATOM      7  C   UNL     1      -2.152  11.948  22.712  0.00  0.00    +0.000 A 
ATOM      8  C   UNL     1      -3.003  12.669  23.533  0.00  0.00    +0.000 A 
ATOM      9  C   UNL     1      -3.959  13.557  23.028  0.00  0.00    +0.000 A 
ATOM     10  C   UNL     1      -4.057  13.743  21.656  0.00  0.00    +0.000 A 
ATOM     11  C   UNL     1      -3.209  13.040  20.800  0.00  0.00    +0.000 A 
ATOM     12  C   UNL     1      -2.250  12.129  21.307  0.00  0.00    +0.000 A 
ATOM     13  C   UNL     1      -1.333  11.335  20.543  0.00  0.00    +0.000 A 
ATOM     14  N   UNL     1      -1.029  11.146  19.194  0.00  0.00    +0.000 N 
ATOM     15  H   UNL     1       0.821   8.829  22.641  0.00  0.00    +0.000 HD
ATOM     16  H   UNL     1       0.131   9.301  24.161  0.00  0.00    +0.000 HD
ENDROOT
BRANCH   1  17
ATOM     17  C   UNL     1       0.608   9.594  17.872  0.00  0.00    +0.000 C 
BRANCH  17  18
ATOM     18  N   UNL     1       2.049   9.357  18.039  0.00  0.00    +0.000 NA
ATOM     19  H   UNL     1       2.480   9.394  17.114  0.00  0.00    +0.000 HD
BRANCH  18  20
ATOM     20  C   UNL     1       2.250   8.009  18.586  0.00  0.00    +0.000 C 
BRANCH  20  21
ATOM     21  C   UNL     1       3.318   7.276  17.779  0.00  0.00    +0.000 C 
BRANCH  21  22
ATOM     22  C   UNL     1       3.281   5.773  18.054  0.00  0.00    +0.000 C 
BRANCH  22  23
ATOM     23  C   UNL     1       4.555   5.103  17.548  0.00  0.00    +0.000 C 
BRANCH  23  24
ATOM     24  C   UNL     1       4.232   3.818  16.794  0.00  0.00    +0.000 C 
BRANCH  24  25
ATOM     25  C   UNL     1       2.846   3.308  17.169  0.00  0.00    +0.000 C 
BRANCH  25  26
ATOM     26  C   UNL     1       2.942   1.989  17.929  0.00  0.00    +0.000 C 
BRANCH  26  27
ATOM     27  C   UNL     1       2.169   2.063  19.242  0.00  0.00    +0.000 C 
BRANCH  27  28
ATOM     28  C   UNL     1       3.015   2.716  20.330  0.00  0.00    +0.000 C 
BRANCH  28  30
ATOM     29  C   UNL     1       1.010   4.217  20.485  0.00  0.00    +0.000 C 
ATOM     30  C   UNL     1       2.155   3.578  21.250  0.00  0.00    +0.000 C 
ENDBRANCH  28  30
ENDBRANCH  27  28
ENDBRANCH  26  27
ENDBRANCH  25  26
ENDBRANCH  24  25
ENDBRANCH  23  24
ENDBRANCH  22  23
ENDBRANCH  21  22
ENDBRANCH  20  21
ENDBRANCH  18  20
ENDBRANCH  17  18
ENDBRANCH   1  17
BRANCH  14  31
ATOM     31  C   UNL     1      -1.714  11.787  18.087  0.00  0.00    +0.000 C 
BRANCH  31  32
ATOM     32  C   UNL     1      -2.873  10.982  17.435  0.00  0.00    +0.000 C 
ATOM     33  C   UNL     1      -4.222  11.654  17.707  0.00  0.00    +0.000 C 
ATOM     34  C   UNL     1      -2.598  10.870  15.925  0.00  0.00    +0.000 C 
BRANCH  32  35
ATOM     35  O   UNL     1      -2.937   9.624  17.886  0.00  0.00    +0.000 OA
ATOM     36  H   UNL     1      -3.260   9.053  17.167  0.00  0.00    +0.000 HD
ENDBRANCH  32  35
ENDBRANCH  31  32
ENDBRANCH  14  31
TORSDOF 15
ENDMDL
MODEL 4
REMARK VINA RESULT:      -6.7      2.284      4.776
REMARK  Name = 
REMARK  18 active torsions:
REMARK  status: ('A' for Active; 'I' for Inactive)
REMARK    1  A    between atoms: C_1  and  C_2
REMARK    2  A    between atoms: C_2  and  C_3
REMARK    3  A    between atoms: C_3  and  C_4
REMARK    4  A    between atoms: C_4  and  C_5
REMARK    5  A    between atoms: C_5  and  C_6
REMARK    6  A    between atoms: C_6  and  C_7
REMARK    7  A    between atoms: C_7  and  C_8
REMARK    8  A    between atoms: C_8  and  C_9
REMARK    9  A    between atoms: C_9  and  C_10
REMARK   10  A    between atoms: C_10  and  C_11
REMARK   11  A    between atoms: C_11  and  N_12
REMARK   12  A    between atoms: N_12  and  C_13
REMARK   13  A    between atoms: C_13  and  C_14
REMARK   14  A    between atoms: N_27  and  C_28
REMARK   15  A    between atoms: C_28  and  C_29
REMARK   16  A    between atoms: C_29  and  C_30
REMARK   17  A    between atoms: C_29  and  C_31
REMARK   18  A    between atoms: C_29  and  O_32
REMARK                            x       y       z     vdW  Elec       q    Type
REMARK                         _______ _______ _______ _____ _____    ______ ____
ROOT
ATOM      1  C   UNL     1       1.587  10.986  18.180  0.00  0.00    +0.000 A 
ATOM      2  N   UNL     1       2.622  11.772  17.974  0.00  0.00    +0.000 NA
ATOM      3  C   UNL     1       2.240  13.025  18.365  0.00  0.00    +0.000 A 
ATOM      4  C   UNL     1       3.011  14.197  18.338  0.00  0.00    +0.000 A 
ATOM      5  N   UNL     1       4.311  14.200  17.841  0.00  0.00    +0.000 N 
ATOM      6  N   UNL     1       2.498  15.342  18.830  0.00  0.00    +0.000 NA
ATOM      7  C   UNL     1       1.249  15.375  19.312  0.00  0.00    +0.000 A 
ATOM      8  C   UNL     1       0.795  16.594  19.785  0.00  0.00    +0.000 A 
ATOM      9  C   UNL     1      -0.489  16.762  20.316  0.00  0.00    +0.000 A 
ATOM     10  C   UNL     1      -1.354  15.677  20.359  0.00  0.00    +0.000 A 
ATOM     11  C   UNL     1      -0.932  14.436  19.882  0.00  0.00    +0.000 A 
ATOM     12  C   UNL     1       0.372  14.259  19.358  0.00  0.00    +0.000 A 
ATOM     13  C   UNL     1       0.936  13.042  18.853  0.00  0.00    +0.000 A 
ATOM     14  N   UNL     1       0.517  11.721  18.678  0.00  0.00    +0.000 N 
ATOM     15  H   UNL     1       4.710  13.268  17.841  0.00  0.00    +0.000 HD
ATOM     16  H   UNL     1       4.857  14.948  18.251  0.00  0.00    +0.000 HD
ENDROOT
BRANCH   1  17
ATOM     17  C   UNL     1       1.651   9.524  17.828  0.00  0.00    +0.000 C 
BRANCH  17  18
ATOM     18  N   UNL     1       1.826   8.649  18.996  0.00  0.00    +0.000 NA
ATOM     19  H   UNL     1       2.488   9.101  19.629  0.00  0.00    +0.000 HD
BRANCH  18  20
ATOM     20  C   UNL     1       2.410   7.375  18.554  0.00  0.00    +0.000 C 
BRANCH  20  21
ATOM     21  C   UNL     1       2.794   6.533  19.767  0.00  0.00    +0.000 C 
BRANCH  21  22
ATOM     22  C   UNL     1       1.738   5.466  20.053  0.00  0.00    +0.000 C 
BRANCH  22  23
ATOM     23  C   UNL     1       2.180   4.568  21.204  0.00  0.00    +0.000 C 
BRANCH  23  24
ATOM     24  C   UNL     1       1.449   3.230  21.163  0.00  0.00    +0.000 C 
BRANCH  24  25
ATOM     25  C   UNL     1       0.859   2.982  19.780  0.00  0.00    +0.000 C 
BRANCH  25  26
ATOM     26  C   UNL     1       1.701   1.974  19.005  0.00  0.00    +0.000 C 
BRANCH  26  27
ATOM     27  C   UNL     1       2.218   2.586  17.706  0.00  0.00    +0.000 C 
BRANCH  27  28
ATOM     28  C   UNL     1       3.740   2.518  17.646  0.00  0.00    +0.000 C 
BRANCH  28  30
ATOM     29  C   UNL     1       5.276   4.118  18.821  0.00  0.00    +0.000 C 
ATOM     30  C   UNL     1       4.351   3.916  17.634  0.00  0.00    +0.000 C 
ENDBRANCH  28  30
ENDBRANCH  27  28
ENDBRANCH  26  27
ENDBRANCH  25  26
ENDBRANCH  24  25
ENDBRANCH  23  24
ENDBRANCH  22  23
ENDBRANCH  21  22
ENDBRANCH  20  21
ENDBRANCH  18  20
ENDBRANCH  17  18
ENDBRANCH   1  17
BRANCH  14  31
ATOM     31  C   UNL     1      -0.778  11.198  19.072  0.00  0.00    +0.000 C 
BRANCH  31  32
ATOM     32  C   UNL     1      -1.904  11.270  18.004  0.00  0.00    +0.000 C 
ATOM     33  C   UNL     1      -2.079   9.918  17.306  0.00  0.00    +0.000 C 
ATOM     34  C   UNL     1      -3.204  11.714  18.698  0.00  0.00    +0.000 C 
BRANCH  32  35
ATOM     35  O   UNL     1      -1.671  12.274  17.009  0.00  0.00    +0.000 OA
ATOM     36  H   UNL     1      -0.721  12.482  16.967  0.00  0.00    +0.000 HD
ENDBRANCH  32  35
ENDBRANCH  31  32
ENDBRANCH  14  31
TORSDOF 15
ENDMDL
MODEL 5
REMARK VINA RESULT:      -6.7      2.222      4.373
REMARK  Name = 
REMARK  18 active torsions:
REMARK  status: ('A' for Active; 'I' for Inactive)
REMARK    1  A    between atoms: C_1  and  C_2
REMARK    2  A    between atoms: C_2  and  C_3
REMARK    3  A    between atoms: C_3  and  C_4
REMARK    4  A    between atoms: C_4  and  C_5
REMARK    5  A    between atoms: C_5  and  C_6
REMARK    6  A    between atoms: C_6  and  C_7
REMARK    7  A    between atoms: C_7  and  C_8
REMARK    8  A    between atoms: C_8  and  C_9
REMARK    9  A    between atoms: C_9  and  C_10
REMARK   10  A    between atoms: C_10  and  C_11
REMARK   11  A    between atoms: C_11  and  N_12
REMARK   12  A    between atoms: N_12  and  C_13
REMARK   13  A    between atoms: C_13  and  C_14
REMARK   14  A    between atoms: N_27  and  C_28
REMARK   15  A    between atoms: C_28  and  C_29
REMARK   16  A    between atoms: C_29  and  C_30
REMARK   17  A    between atoms: C_29  and  C_31
REMARK   18  A    between atoms: C_29  and  O_32
REMARK                            x       y       z     vdW  Elec       q    Type
REMARK                         _______ _______ _______ _____ _____    ______ ____
ROOT
ATOM      1  C   UNL     1       1.328  10.829  18.414  0.00  0.00    +0.000 A 
ATOM      2  N   UNL     1       2.419  11.512  18.140  0.00  0.00    +0.000 NA
ATOM      3  C   UNL     1       2.126  12.825  18.384  0.00  0.00    +0.000 A 
ATOM      4  C   UNL     1       2.979  13.929  18.242  0.00  0.00    +0.000 A 
ATOM      5  N   UNL     1       4.280  13.785  17.768  0.00  0.00    +0.000 N 
ATOM      6  N   UNL     1       2.546  15.155  18.597  0.00  0.00    +0.000 NA
ATOM      7  C   UNL     1       1.299  15.329  19.052  0.00  0.00    +0.000 A 
ATOM      8  C   UNL     1       0.930  16.622  19.382  0.00  0.00    +0.000 A 
ATOM      9  C   UNL     1      -0.343  16.938  19.870  0.00  0.00    +0.000 A 
ATOM     10  C   UNL     1      -1.284  15.928  20.018  0.00  0.00    +0.000 A 
ATOM     11  C   UNL     1      -0.949  14.616  19.687  0.00  0.00    +0.000 A 
ATOM     12  C   UNL     1       0.343  14.290  19.206  0.00  0.00    +0.000 A 
ATOM     13  C   UNL     1       0.822  12.987  18.846  0.00  0.00    +0.000 A 
ATOM     14  N   UNL     1       0.310  11.689  18.811  0.00  0.00    +0.000 N 
ATOM     15  H   UNL     1       4.610  12.833  17.876  0.00  0.00    +0.000 HD
ATOM     16  H   UNL     1       4.875  14.533  18.103  0.00  0.00    +0.000 HD
ENDROOT
BRANCH   1  17
ATOM     17  C   UNL     1       1.290   9.337  18.226  0.00  0.00    +0.000 C 
BRANCH  17  18
ATOM     18  N   UNL     1       2.578   8.767  17.806  0.00  0.00    +0.000 NA
ATOM     19  H   UNL     1       2.631   8.832  16.787  0.00  0.00    +0.000 HD
BRANCH  18  20
ATOM     20  C   UNL     1       2.615   7.346  18.177  0.00  0.00    +0.000 C 
BRANCH  20  21
ATOM     21  C   UNL     1       3.855   6.686  17.580  0.00  0.00    +0.000 C 
BRANCH  21  22
ATOM     22  C   UNL     1       4.591   5.851  18.626  0.00  0.00    +0.000 C 
BRANCH  22  23
ATOM     23  C   UNL     1       4.811   4.428  18.121  0.00  0.00    +0.000 C 
BRANCH  23  24
ATOM     24  C   UNL     1       3.998   4.167  16.857  0.00  0.00    +0.000 C 
BRANCH  24  25
ATOM     25  C   UNL     1       2.810   3.262  17.159  0.00  0.00    +0.000 C 
BRANCH  25  26
ATOM     26  C   UNL     1       3.170   2.236  18.228  0.00  0.00    +0.000 C 
BRANCH  26  27
ATOM     27  C   UNL     1       1.960   1.914  19.098  0.00  0.00    +0.000 C 
BRANCH  27  28
ATOM     28  C   UNL     1       1.061   3.137  19.248  0.00  0.00    +0.000 C 
BRANCH  28  30
ATOM     29  C   UNL     1       2.162   4.635  20.933  0.00  0.00    +0.000 C 
ATOM     30  C   UNL     1       1.047   3.634  20.690  0.00  0.00    +0.000 C 
ENDBRANCH  28  30
ENDBRANCH  27  28
ENDBRANCH  26  27
ENDBRANCH  25  26
ENDBRANCH  24  25
ENDBRANCH  23  24
ENDBRANCH  22  23
ENDBRANCH  21  22
ENDBRANCH  20  21
ENDBRANCH  18  20
ENDBRANCH  17  18
ENDBRANCH   1  17
BRANCH  14  31
ATOM     31  C   UNL     1      -1.022  11.305  19.239  0.00  0.00    +0.000 C 
BRANCH  31  32
ATOM     32  C   UNL     1      -2.122  11.295  18.142  0.00  0.00    +0.000 C 
ATOM     33  C   UNL     1      -2.336   9.880  17.599  0.00  0.00    +0.000 C 
ATOM     34  C   UNL     1      -3.417  11.865  18.747  0.00  0.00    +0.000 C 
BRANCH  32  35
ATOM     35  O   UNL     1      -1.829  12.169  17.045  0.00  0.00    +0.000 OA
ATOM     36  H   UNL     1      -2.502  12.063  16.350  0.00  0.00    +0.000 HD
ENDBRANCH  32  35
ENDBRANCH  31  32
ENDBRANCH  14  31
TORSDOF 15
ENDMDL
MODEL 6
REMARK VINA RESULT:      -6.6      2.511      4.842
REMARK  Name = 
REMARK  18 active torsions:
REMARK  status: ('A' for Active; 'I' for Inactive)
REMARK    1  A    between atoms: C_1  and  C_2
REMARK    2  A    between atoms: C_2  and  C_3
REMARK    3  A    between atoms: C_3  and  C_4
REMARK    4  A    between atoms: C_4  and  C_5
REMARK    5  A    between atoms: C_5  and  C_6
REMARK    6  A    between atoms: C_6  and  C_7
REMARK    7  A    between atoms: C_7  and  C_8
REMARK    8  A    between atoms: C_8  and  C_9
REMARK    9  A    between atoms: C_9  and  C_10
REMARK   10  A    between atoms: C_10  and  C_11
REMARK   11  A    between atoms: C_11  and  N_12
REMARK   12  A    between atoms: N_12  and  C_13
REMARK   13  A    between atoms: C_13  and  C_14
REMARK   14  A    between atoms: N_27  and  C_28
REMARK   15  A    between atoms: C_28  and  C_29
REMARK   16  A    between atoms: C_29  and  C_30
REMARK   17  A    between atoms: C_29  and  C_31
REMARK   18  A    between atoms: C_29  and  O_32
REMARK                            x       y       z     vdW  Elec       q    Type
REMARK                         _______ _______ _______ _____ _____    ______ ____
ROOT
ATOM      1  C   UNL     1       0.110  10.110  19.073  0.00  0.00    +0.000 A 
ATOM      2  N   UNL     1       0.400   9.684  20.283  0.00  0.00    +0.000 NA
ATOM      3  C   UNL     1      -0.340  10.440  21.149  0.00  0.00    +0.000 A 
ATOM      4  C   UNL     1      -0.371  10.347  22.549  0.00  0.00    +0.000 A 
ATOM      5  N   UNL     1       0.434   9.442  23.234  0.00  0.00    +0.000 N 
ATOM      6  N   UNL     1      -1.218  11.127  23.249  0.00  0.00    +0.000 NA
ATOM      7  C   UNL     1      -2.003  12.011  22.620  0.00  0.00    +0.000 A 
ATOM      8  C   UNL     1      -2.833  12.784  23.414  0.00  0.00    +0.000 A 
ATOM      9  C   UNL     1      -3.703  13.742  22.882  0.00  0.00    +0.000 A 
ATOM     10  C   UNL     1      -3.731  13.947  21.509  0.00  0.00    +0.000 A 
ATOM     11  C   UNL     1      -2.901  13.192  20.679  0.00  0.00    +0.000 A 
ATOM     12  C   UNL     1      -2.031  12.211  21.214  0.00  0.00    +0.000 A 
ATOM     13  C   UNL     1      -1.142  11.360  20.478  0.00  0.00    +0.000 A 
ATOM     14  N   UNL     1      -0.798  11.161  19.140  0.00  0.00    +0.000 N 
ATOM     15  H   UNL     1       0.742   8.689  22.631  0.00  0.00    +0.000 HD
ATOM     16  H   UNL     1       0.026   9.196  24.128  0.00  0.00    +0.000 HD
ENDROOT
BRANCH   1  17
ATOM     17  C   UNL     1       0.777   9.508  17.866  0.00  0.00    +0.000 C 
BRANCH  17  18
ATOM     18  N   UNL     1       2.215   9.265  18.053  0.00  0.00    +0.000 NA
ATOM     19  H   UNL     1       2.720   9.866  17.400  0.00  0.00    +0.000 HD
BRANCH  18  20
ATOM     20  C   UNL     1       2.509   7.866  17.713  0.00  0.00    +0.000 C 
BRANCH  20  21
ATOM     21  C   UNL     1       2.625   7.036  18.988  0.00  0.00    +0.000 C 
BRANCH  21  22
ATOM     22  C   UNL     1       3.690   5.950  18.843  0.00  0.00    +0.000 C 
BRANCH  22  23
ATOM     23  C   UNL     1       3.417   5.091  17.612  0.00  0.00    +0.000 C 
BRANCH  23  24
ATOM     24  C   UNL     1       4.707   4.474  17.081  0.00  0.00    +0.000 C 
BRANCH  24  25
ATOM     25  C   UNL     1       5.299   5.338  15.973  0.00  0.00    +0.000 C 
BRANCH  25  26
ATOM     26  C   UNL     1       6.818   5.407  16.097  0.00  0.00    +0.000 C 
BRANCH  26  27
ATOM     27  C   UNL     1       7.262   5.057  17.513  0.00  0.00    +0.000 C 
BRANCH  27  28
ATOM     28  C   UNL     1       7.472   6.320  18.341  0.00  0.00    +0.000 C 
BRANCH  28  30
ATOM     29  C   UNL     1       8.255   8.678  17.984  0.00  0.00    +0.000 C 
ATOM     30  C   UNL     1       7.351   7.570  17.474  0.00  0.00    +0.000 C 
ENDBRANCH  28  30
ENDBRANCH  27  28
ENDBRANCH  26  27
ENDBRANCH  25  26
ENDBRANCH  24  25
ENDBRANCH  23  24
ENDBRANCH  22  23
ENDBRANCH  21  22
ENDBRANCH  20  21
ENDBRANCH  18  20
ENDBRANCH  17  18
ENDBRANCH   1  17
BRANCH  14  31
ATOM     31  C   UNL     1      -1.391  11.859  18.014  0.00  0.00    +0.000 C 
BRANCH  31  32
ATOM     32  C   UNL     1      -2.685  11.236  17.420  0.00  0.00    +0.000 C 
ATOM     33  C   UNL     1      -2.590  11.135  15.896  0.00  0.00    +0.000 C 
ATOM     34  C   UNL     1      -2.897   9.853  18.061  0.00  0.00    +0.000 C 
BRANCH  32  35
ATOM     35  O   UNL     1      -3.868  11.969  17.760  0.00  0.00    +0.000 OA
ATOM     36  H   UNL     1      -3.624  12.801  18.202  0.00  0.00    +0.000 HD
ENDBRANCH  32  35
ENDBRANCH  31  32
ENDBRANCH  14  31
TORSDOF 15
ENDMDL
MODEL 7
REMARK VINA RESULT:      -6.6      2.009      3.958
REMARK  Name = 
REMARK  18 active torsions:
REMARK  status: ('A' for Active; 'I' for Inactive)
REMARK    1  A    between atoms: C_1  and  C_2
REMARK    2  A    between atoms: C_2  and  C_3
REMARK    3  A    between atoms: C_3  and  C_4
REMARK    4  A    between atoms: C_4  and  C_5
REMARK    5  A    between atoms: C_5  and  C_6
REMARK    6  A    between atoms: C_6  and  C_7
REMARK    7  A    between atoms: C_7  and  C_8
REMARK    8  A    between atoms: C_8  and  C_9
REMARK    9  A    between atoms: C_9  and  C_10
REMARK   10  A    between atoms: C_10  and  C_11
REMARK   11  A    between atoms: C_11  and  N_12
REMARK   12  A    between atoms: N_12  and  C_13
REMARK   13  A    between atoms: C_13  and  C_14
REMARK   14  A    between atoms: N_27  and  C_28
REMARK   15  A    between atoms: C_28  and  C_29
REMARK   16  A    between atoms: C_29  and  C_30
REMARK   17  A    between atoms: C_29  and  C_31
REMARK   18  A    between atoms: C_29  and  O_32
REMARK                            x       y       z     vdW  Elec       q    Type
REMARK                         _______ _______ _______ _____ _____    ______ ____
ROOT
ATOM      1  C   UNL     1       0.147  10.170  18.969  0.00  0.00    +0.000 A 
ATOM      2  N   UNL     1       0.529   9.754  20.157  0.00  0.00    +0.000 NA
ATOM      3  C   UNL     1      -0.221  10.443  21.069  0.00  0.00    +0.000 A 
ATOM      4  C   UNL     1      -0.174  10.334  22.467  0.00  0.00    +0.000 A 
ATOM      5  N   UNL     1       0.731   9.485  23.099  0.00  0.00    +0.000 N 
ATOM      6  N   UNL     1      -1.040  11.041  23.219  0.00  0.00    +0.000 NA
ATOM      7  C   UNL     1      -1.919  11.870  22.643  0.00  0.00    +0.000 A 
ATOM      8  C   UNL     1      -2.763  12.570  23.489  0.00  0.00    +0.000 A 
ATOM      9  C   UNL     1      -3.728  13.466  23.014  0.00  0.00    +0.000 A 
ATOM     10  C   UNL     1      -3.841  13.682  21.647  0.00  0.00    +0.000 A 
ATOM     11  C   UNL     1      -3.000  13.001  20.767  0.00  0.00    +0.000 A 
ATOM     12  C   UNL     1      -2.033  12.082  21.243  0.00  0.00    +0.000 A 
ATOM     13  C   UNL     1      -1.122  11.308  20.452  0.00  0.00    +0.000 A 
ATOM     14  N   UNL     1      -0.833  11.149  19.095  0.00  0.00    +0.000 N 
ATOM     15  H   UNL     1       1.062   8.763  22.470  0.00  0.00    +0.000 HD
ATOM     16  H   UNL     1       0.388   9.200  24.008  0.00  0.00    +0.000 HD
ENDROOT
BRANCH   1  17
ATOM     17  C   UNL     1       0.795   9.633  17.722  0.00  0.00    +0.000 C 
BRANCH  17  18
ATOM     18  N   UNL     1       2.169   9.158  17.935  0.00  0.00    +0.000 NA
ATOM     19  H   UNL     1       2.768   9.619  17.247  0.00  0.00    +0.000 HD
BRANCH  18  20
ATOM     20  C   UNL     1       2.217   7.711  17.690  0.00  0.00    +0.000 C 
BRANCH  20  21
ATOM     21  C   UNL     1       3.535   7.141  18.208  0.00  0.00    +0.000 C 
BRANCH  21  22
ATOM     22  C   UNL     1       4.482   6.808  17.056  0.00  0.00    +0.000 C 
BRANCH  22  23
ATOM     23  C   UNL     1       4.707   5.302  16.964  0.00  0.00    +0.000 C 
BRANCH  23  24
ATOM     24  C   UNL     1       3.912   4.565  18.037  0.00  0.00    +0.000 C 
BRANCH  24  25
ATOM     25  C   UNL     1       2.819   3.712  17.405  0.00  0.00    +0.000 C 
BRANCH  25  26
ATOM     26  C   UNL     1       1.451   4.078  17.972  0.00  0.00    +0.000 C 
BRANCH  26  27
ATOM     27  C   UNL     1       1.103   3.189  19.161  0.00  0.00    +0.000 C 
BRANCH  27  28
ATOM     28  C   UNL     1       0.894   4.026  20.419  0.00  0.00    +0.000 C 
BRANCH  28  30
ATOM     29  C   UNL     1       2.775   2.602  21.276  0.00  0.00    +0.000 C 
ATOM     30  C   UNL     1       2.122   3.972  21.323  0.00  0.00    +0.000 C 
ENDBRANCH  28  30
ENDBRANCH  27  28
ENDBRANCH  26  27
ENDBRANCH  25  26
ENDBRANCH  24  25
ENDBRANCH  23  24
ENDBRANCH  22  23
ENDBRANCH  21  22
ENDBRANCH  20  21
ENDBRANCH  18  20
ENDBRANCH  17  18
ENDBRANCH   1  17
BRANCH  14  31
ATOM     31  C   UNL     1      -1.532  11.812  18.011  0.00  0.00    +0.000 C 
BRANCH  31  32
ATOM     32  C   UNL     1      -2.565  10.953  17.230  0.00  0.00    +0.000 C 
ATOM     33  C   UNL     1      -2.797   9.612  17.930  0.00  0.00    +0.000 C 
ATOM     34  C   UNL     1      -3.873  11.756  17.110  0.00  0.00    +0.000 C 
BRANCH  32  35
ATOM     35  O   UNL     1      -2.177  10.703  15.874  0.00  0.00    +0.000 OA
ATOM     36  H   UNL     1      -2.960  10.726  15.297  0.00  0.00    +0.000 HD
ENDBRANCH  32  35
ENDBRANCH  31  32
ENDBRANCH  14  31
TORSDOF 15
ENDMDL
MODEL 8
REMARK VINA RESULT:      -6.5      1.996      3.782
REMARK  Name = 
REMARK  18 active torsions:
REMARK  status: ('A' for Active; 'I' for Inactive)
REMARK    1  A    between atoms: C_1  and  C_2
REMARK    2  A    between atoms: C_2  and  C_3
REMARK    3  A    between atoms: C_3  and  C_4
REMARK    4  A    between atoms: C_4  and  C_5
REMARK    5  A    between atoms: C_5  and  C_6
REMARK    6  A    between atoms: C_6  and  C_7
REMARK    7  A    between atoms: C_7  and  C_8
REMARK    8  A    between atoms: C_8  and  C_9
REMARK    9  A    between atoms: C_9  and  C_10
REMARK   10  A    between atoms: C_10  and  C_11
REMARK   11  A    between atoms: C_11  and  N_12
REMARK   12  A    between atoms: N_12  and  C_13
REMARK   13  A    between atoms: C_13  and  C_14
REMARK   14  A    between atoms: N_27  and  C_28
REMARK   15  A    between atoms: C_28  and  C_29
REMARK   16  A    between atoms: C_29  and  C_30
REMARK   17  A    between atoms: C_29  and  C_31
REMARK   18  A    between atoms: C_29  and  O_32
REMARK                            x       y       z     vdW  Elec       q    Type
REMARK                         _______ _______ _______ _____ _____    ______ ____
ROOT
ATOM      1  C   UNL     1      -0.194  10.166  19.190  0.00  0.00    +0.000 A 
ATOM      2  N   UNL     1       0.028   9.782  20.428  0.00  0.00    +0.000 NA
ATOM      3  C   UNL     1      -0.737  10.585  21.227  0.00  0.00    +0.000 A 
ATOM      4  C   UNL     1      -0.837  10.548  22.626  0.00  0.00    +0.000 A 
ATOM      5  N   UNL     1      -0.086   9.655  23.385  0.00  0.00    +0.000 N 
ATOM      6  N   UNL     1      -1.700  11.372  23.253  0.00  0.00    +0.000 NA
ATOM      7  C   UNL     1      -2.434  12.247  22.553  0.00  0.00    +0.000 A 
ATOM      8  C   UNL     1      -3.285  13.066  23.276  0.00  0.00    +0.000 A 
ATOM      9  C   UNL     1      -4.106  14.020  22.665  0.00  0.00    +0.000 A 
ATOM     10  C   UNL     1      -4.064  14.171  21.285  0.00  0.00    +0.000 A 
ATOM     11  C   UNL     1      -3.211  13.368  20.527  0.00  0.00    +0.000 A 
ATOM     12  C   UNL     1      -2.389  12.392  21.141  0.00  0.00    +0.000 A 
ATOM     13  C   UNL     1      -1.485  11.495  20.483  0.00  0.00    +0.000 A 
ATOM     14  N   UNL     1      -1.081  11.237  19.171  0.00  0.00    +0.000 N 
ATOM     15  H   UNL     1       0.234   8.873  22.826  0.00  0.00    +0.000 HD
ATOM     16  H   UNL     1      -0.542   9.453  24.266  0.00  0.00    +0.000 HD
ENDROOT
BRANCH   1  17
ATOM     17  C   UNL     1       0.518   9.503  18.041  0.00  0.00    +0.000 C 
BRANCH  17  18
ATOM     18  N   UNL     1       1.841  10.080  17.762  0.00  0.00    +0.000 NA
ATOM     19  H   UNL     1       1.762  10.643  16.913  0.00  0.00    +0.000 HD
BRANCH  18  20
ATOM     20  C   UNL     1       2.791   8.990  17.504  0.00  0.00    +0.000 C 
BRANCH  20  21
ATOM     21  C   UNL     1       2.298   7.706  18.167  0.00  0.00    +0.000 C 
BRANCH  21  22
ATOM     22  C   UNL     1       3.470   6.829  18.606  0.00  0.00    +0.000 C 
BRANCH  22  23
ATOM     23  C   UNL     1       3.651   5.655  17.649  0.00  0.00    +0.000 C 
BRANCH  23  24
ATOM     24  C   UNL     1       3.847   4.351  18.416  0.00  0.00    +0.000 C 
BRANCH  24  25
ATOM     25  C   UNL     1       3.766   3.156  17.474  0.00  0.00    +0.000 C 
BRANCH  25  26
ATOM     26  C   UNL     1       2.462   2.393  17.680  0.00  0.00    +0.000 C 
BRANCH  26  27
ATOM     27  C   UNL     1       1.361   3.327  18.173  0.00  0.00    +0.000 C 
BRANCH  27  28
ATOM     28  C   UNL     1       0.743   2.799  19.463  0.00  0.00    +0.000 C 
BRANCH  28  30
ATOM     29  C   UNL     1       2.172   3.040  21.512  0.00  0.00    +0.000 C 
ATOM     30  C   UNL     1       1.106   3.689  20.649  0.00  0.00    +0.000 C 
ENDBRANCH  28  30
ENDBRANCH  27  28
ENDBRANCH  26  27
ENDBRANCH  25  26
ENDBRANCH  24  25
ENDBRANCH  23  24
ENDBRANCH  22  23
ENDBRANCH  21  22
ENDBRANCH  20  21
ENDBRANCH  18  20
ENDBRANCH  17  18
ENDBRANCH   1  17
BRANCH  14  31
ATOM     31  C   UNL     1      -1.603  11.901  17.992  0.00  0.00    +0.000 C 
BRANCH  31  32
ATOM     32  C   UNL     1      -2.861  11.262  17.340  0.00  0.00    +0.000 C 
ATOM     33  C   UNL     1      -2.611  10.957  15.861  0.00  0.00    +0.000 C 
ATOM     34  C   UNL     1      -3.219   9.986  18.123  0.00  0.00    +0.000 C 
BRANCH  32  35
ATOM     35  O   UNL     1      -4.029  12.085  17.449  0.00  0.00    +0.000 OA
ATOM     36  H   UNL     1      -3.771  12.995  17.677  0.00  0.00    +0.000 HD
ENDBRANCH  32  35
ENDBRANCH  31  32
ENDBRANCH  14  31
TORSDOF 15
ENDMDL
MODEL 9
REMARK VINA RESULT:      -6.5      2.034      3.326
REMARK  Name = 
REMARK  18 active torsions:
REMARK  status: ('A' for Active; 'I' for Inactive)
REMARK    1  A    between atoms: C_1  and  C_2
REMARK    2  A    between atoms: C_2  and  C_3
REMARK    3  A    between atoms: C_3  and  C_4
REMARK    4  A    between atoms: C_4  and  C_5
REMARK    5  A    between atoms: C_5  and  C_6
REMARK    6  A    between atoms: C_6  and  C_7
REMARK    7  A    between atoms: C_7  and  C_8
REMARK    8  A    between atoms: C_8  and  C_9
REMARK    9  A    between atoms: C_9  and  C_10
REMARK   10  A    between atoms: C_10  and  C_11
REMARK   11  A    between atoms: C_11  and  N_12
REMARK   12  A    between atoms: N_12  and  C_13
REMARK   13  A    between atoms: C_13  and  C_14
REMARK   14  A    between atoms: N_27  and  C_28
REMARK   15  A    between atoms: C_28  and  C_29
REMARK   16  A    between atoms: C_29  and  C_30
REMARK   17  A    between atoms: C_29  and  C_31
REMARK   18  A    between atoms: C_29  and  O_32
REMARK                            x       y       z     vdW  Elec       q    Type
REMARK                         _______ _______ _______ _____ _____    ______ ____
ROOT
ATOM      1  C   UNL     1       0.414   9.923  18.711  0.00  0.00    +0.000 A 
ATOM      2  N   UNL     1      -0.341   9.745  17.649  0.00  0.00    +0.000 NA
ATOM      3  C   UNL     1      -1.525  10.380  17.904  0.00  0.00    +0.000 A 
ATOM      4  C   UNL     1      -2.642  10.471  17.060  0.00  0.00    +0.000 A 
ATOM      5  N   UNL     1      -2.665   9.846  15.816  0.00  0.00    +0.000 N 
ATOM      6  N   UNL     1      -3.708  11.201  17.442  0.00  0.00    +0.000 NA
ATOM      7  C   UNL     1      -3.720  11.810  18.635  0.00  0.00    +0.000 A 
ATOM      8  C   UNL     1      -4.860  12.529  18.956  0.00  0.00    +0.000 A 
ATOM      9  C   UNL     1      -4.998  13.213  20.169  0.00  0.00    +0.000 A 
ATOM     10  C   UNL     1      -3.969  13.163  21.099  0.00  0.00    +0.000 A 
ATOM     11  C   UNL     1      -2.810  12.441  20.812  0.00  0.00    +0.000 A 
ATOM     12  C   UNL     1      -2.661  11.760  19.579  0.00  0.00    +0.000 A 
ATOM     13  C   UNL     1      -1.523  10.999  19.152  0.00  0.00    +0.000 A 
ATOM     14  N   UNL     1      -0.277  10.649  19.675  0.00  0.00    +0.000 N 
ATOM     15  H   UNL     1      -1.728   9.646  15.485  0.00  0.00    +0.000 HD
ATOM     16  H   UNL     1      -3.300  10.317  15.183  0.00  0.00    +0.000 HD
ENDROOT
BRANCH   1  17
ATOM     17  C   UNL     1       1.793   9.325  18.782  0.00  0.00    +0.000 C 
BRANCH  17  18
ATOM     18  N   UNL     1       2.371   9.032  17.463  0.00  0.00    +0.000 NA
ATOM     19  H   UNL     1       1.600   8.887  16.809  0.00  0.00    +0.000 HD
BRANCH  18  20
ATOM     20  C   UNL     1       3.141   7.783  17.548  0.00  0.00    +0.000 C 
BRANCH  20  21
ATOM     21  C   UNL     1       2.522   6.862  18.595  0.00  0.00    +0.000 C 
BRANCH  21  22
ATOM     22  C   UNL     1       2.158   5.507  17.991  0.00  0.00    +0.000 C 
BRANCH  22  23
ATOM     23  C   UNL     1       2.759   4.373  18.816  0.00  0.00    +0.000 C 
BRANCH  23  24
ATOM     24  C   UNL     1       4.230   4.166  18.470  0.00  0.00    +0.000 C 
BRANCH  24  25
ATOM     25  C   UNL     1       4.389   3.793  17.000  0.00  0.00    +0.000 C 
BRANCH  25  26
ATOM     26  C   UNL     1       5.248   4.821  16.272  0.00  0.00    +0.000 C 
BRANCH  26  27
ATOM     27  C   UNL     1       6.731   4.508  16.448  0.00  0.00    +0.000 C 
BRANCH  27  28
ATOM     28  C   UNL     1       7.367   5.458  17.458  0.00  0.00    +0.000 C 
BRANCH  28  30
ATOM     29  C   UNL     1       7.794   7.922  17.676  0.00  0.00    +0.000 C 
ATOM     30  C   UNL     1       6.764   6.856  17.350  0.00  0.00    +0.000 C 
ENDBRANCH  28  30
ENDBRANCH  27  28
ENDBRANCH  26  27
ENDBRANCH  25  26
ENDBRANCH  24  25
ENDBRANCH  23  24
ENDBRANCH  22  23
ENDBRANCH  21  22
ENDBRANCH  20  21
ENDBRANCH  18  20
ENDBRANCH  17  18
ENDBRANCH   1  17
BRANCH  14  31
ATOM     31  C   UNL     1       0.239  11.084  20.960  0.00  0.00    +0.000 C 
BRANCH  31  32
ATOM     32  C   UNL     1       0.036  10.107  22.151  0.00  0.00    +0.000 C 
ATOM     33  C   UNL     1      -0.976  10.671  23.151  0.00  0.00    +0.000 C 
ATOM     34  C   UNL     1      -0.425   8.749  21.593  0.00  0.00    +0.000 C 
BRANCH  32  35
ATOM     35  O   UNL     1       1.253   9.810  22.847  0.00  0.00    +0.000 OA
ATOM     36  H   UNL     1       1.164  10.055  23.785  0.00  0.00    +0.000 HD
ENDBRANCH  32  35
ENDBRANCH  31  32
ENDBRANCH  14  31
TORSDOF 15
ENDMDL
