MODEL 1
REMARK VINA RESULT:      -7.6      0.000      0.000
REMARK  Name = 
REMARK  9 active torsions:
REMARK  status: ('A' for Active; 'I' for Inactive)
REMARK    1  A    between atoms: C_1  and  C_2
REMARK    2  A    between atoms: C_2  and  O_3
REMARK    3  A    between atoms: O_3  and  C_4
REMARK    4  A    between atoms: C_4  and  C_6
REMARK    5  A    between atoms: C_7  and  C_8
REMARK    6  A    between atoms: C_10  and  O_11
REMARK    7  A    between atoms: O_11  and  C_12
REMARK    8  A    between atoms: C_15  and  O_16
REMARK    9  A    between atoms: O_16  and  C_17
REMARK                            x       y       z     vdW  Elec       q    Type
REMARK                         _______ _______ _______ _____ _____    ______ ____
ROOT
ATOM      1  C   UNL     1       5.006   4.716  16.468  0.00  0.00    +0.000 A 
ATOM      2  C   UNL     1       4.417   3.479  16.744  0.00  0.00    +0.000 A 
ATOM      3  C   UNL     1       3.356   3.335  17.649  0.00  0.00    +0.000 A 
ATOM      4  C   UNL     1       2.869   4.490  18.284  0.00  0.00    +0.000 A 
ATOM      5  C   UNL     1       3.435   5.772  17.968  0.00  0.00    +0.000 A 
ATOM      6  C   UNL     1       4.519   5.893  17.071  0.00  0.00    +0.000 A 
ATOM      7  C   UNL     1       2.804   6.934  18.643  0.00  0.00    +0.000 C 
ATOM      8  O   UNL     1       2.571   8.006  18.103  0.00  0.00    +0.000 OA
ATOM      9  C   UNL     1       2.348   6.737  20.026  0.00  0.00    +0.000 C 
ATOM     10  C   UNL     1       1.860   5.544  20.357  0.00  0.00    +0.000 C 
ATOM     11  C   UNL     1       1.800   4.487  19.331  0.00  0.00    +0.000 C 
ATOM     12  O   UNL     1       0.871   3.701  19.391  0.00  0.00    +0.000 OA
ENDROOT
BRANCH   1  14
ATOM     13  C   UNL     1       6.016   4.700  14.231  0.00  0.00    +0.000 C 
ATOM     14  C   UNL     1       6.169   4.720  15.565  0.00  0.00    +0.000 C 
BRANCH  13  15
ATOM     15  C   UNL     1       7.197   4.780  13.349  0.00  0.00    +0.000 C 
ATOM     16  O   UNL     1       8.155   5.516  13.515  0.00  0.00    +0.000 OA
BRANCH  15  17
ATOM     17  O   UNL     1       6.959   3.979  12.280  0.00  0.00    +0.000 OA
BRANCH  17  19
ATOM     18  C   UNL     1       5.853   2.008  11.495  0.00  0.00    +0.000 C 
ATOM     19  C   UNL     1       5.702   3.287  12.300  0.00  0.00    +0.000 C 
ENDBRANCH  17  19
ENDBRANCH  15  17
ENDBRANCH  13  15
ENDBRANCH   1  14
BRANCH   3  20
ATOM     20  O   UNL     1       3.054   2.010  17.745  0.00  0.00    +0.000 OA
ATOM     21  C   UNL     1       3.683   1.119  18.640  0.00  0.00    +0.000 C 
ENDBRANCH   3  20
BRANCH   6  22
ATOM     22  O   UNL     1       5.268   6.970  16.695  0.00  0.00    +0.000 OA
ATOM     23  C   UNL     1       6.418   7.429  17.370  0.00  0.00    +0.000 C 
ENDBRANCH   6  22
TORSDOF 6
ENDMDL
MODEL 2
REMARK VINA RESULT:      -7.4      1.377      3.501
REMARK  Name = 
REMARK  9 active torsions:
REMARK  status: ('A' for Active; 'I' for Inactive)
REMARK    1  A    between atoms: C_1  and  C_2
REMARK    2  A    between atoms: C_2  and  O_3
REMARK    3  A    between atoms: O_3  and  C_4
REMARK    4  A    between atoms: C_4  and  C_6
REMARK    5  A    between atoms: C_7  and  C_8
REMARK    6  A    between atoms: C_10  and  O_11
REMARK    7  A    between atoms: O_11  and  C_12
REMARK    8  A    between atoms: C_15  and  O_16
REMARK    9  A    between atoms: O_16  and  C_17
REMARK                            x       y       z     vdW  Elec       q    Type
REMARK                         _______ _______ _______ _____ _____    ______ ____
ROOT
ATOM      1  C   UNL     1       4.485   4.921  17.149  0.00  0.00    +0.000 A 
ATOM      2  C   UNL     1       4.178   6.283  17.210  0.00  0.00    +0.000 A 
ATOM      3  C   UNL     1       3.350   6.826  18.204  0.00  0.00    +0.000 A 
ATOM      4  C   UNL     1       2.826   5.955  19.174  0.00  0.00    +0.000 A 
ATOM      5  C   UNL     1       3.177   4.562  19.148  0.00  0.00    +0.000 A 
ATOM      6  C   UNL     1       3.995   4.032  18.126  0.00  0.00    +0.000 A 
ATOM      7  C   UNL     1       2.626   3.743  20.257  0.00  0.00    +0.000 C 
ATOM      8  O   UNL     1       3.247   2.874  20.851  0.00  0.00    +0.000 OA
ATOM      9  C   UNL     1       1.272   4.074  20.723  0.00  0.00    +0.000 C 
ATOM     10  C   UNL     1       0.906   5.353  20.715  0.00  0.00    +0.000 C 
ATOM     11  C   UNL     1       1.866   6.368  20.244  0.00  0.00    +0.000 C 
ATOM     12  O   UNL     1       1.829   7.464  20.777  0.00  0.00    +0.000 OA
ENDROOT
BRANCH   1  14
ATOM     13  C   UNL     1       6.017   5.330  15.276  0.00  0.00    +0.000 C 
ATOM     14  C   UNL     1       5.295   4.466  16.007  0.00  0.00    +0.000 C 
BRANCH  13  15
ATOM     15  C   UNL     1       6.879   4.835  14.184  0.00  0.00    +0.000 C 
ATOM     16  O   UNL     1       7.826   5.434  13.704  0.00  0.00    +0.000 OA
BRANCH  15  17
ATOM     17  O   UNL     1       6.350   3.663  13.751  0.00  0.00    +0.000 OA
BRANCH  17  19
ATOM     18  C   UNL     1       4.895   3.319  11.883  0.00  0.00    +0.000 C 
ATOM     19  C   UNL     1       6.338   3.485  12.327  0.00  0.00    +0.000 C 
ENDBRANCH  17  19
ENDBRANCH  15  17
ENDBRANCH  13  15
ENDBRANCH   1  14
BRANCH   3  20
ATOM     20  O   UNL     1       3.196   8.155  17.950  0.00  0.00    +0.000 OA
ATOM     21  C   UNL     1       1.957   8.765  17.656  0.00  0.00    +0.000 C 
ENDBRANCH   3  20
BRANCH   6  22
ATOM     22  O   UNL     1       4.378   2.752  17.846  0.00  0.00    +0.000 OA
ATOM     23  C   UNL     1       3.504   1.649  17.749  0.00  0.00    +0.000 C 
ENDBRANCH   6  22
TORSDOF 6
ENDMDL
MODEL 3
REMARK VINA RESULT:      -7.0      2.947      7.432
REMARK  Name = 
REMARK  9 active torsions:
REMARK  status: ('A' for Active; 'I' for Inactive)
REMARK    1  A    between atoms: C_1  and  C_2
REMARK    2  A    between atoms: C_2  and  O_3
REMARK    3  A    between atoms: O_3  and  C_4
REMARK    4  A    between atoms: C_4  and  C_6
REMARK    5  A    between atoms: C_7  and  C_8
REMARK    6  A    between atoms: C_10  and  O_11
REMARK    7  A    between atoms: O_11  and  C_12
REMARK    8  A    between atoms: C_15  and  O_16
REMARK    9  A    between atoms: O_16  and  C_17
REMARK                            x       y       z     vdW  Elec       q    Type
REMARK                         _______ _______ _______ _____ _____    ______ ____
ROOT
ATOM      1  C   UNL     1       1.836   7.043  20.354  0.00  0.00    +0.000 A 
ATOM      2  C   UNL     1       1.837   5.837  21.060  0.00  0.00    +0.000 A 
ATOM      3  C   UNL     1       2.597   4.729  20.658  0.00  0.00    +0.000 A 
ATOM      4  C   UNL     1       3.392   4.857  19.507  0.00  0.00    +0.000 A 
ATOM      5  C   UNL     1       3.436   6.109  18.805  0.00  0.00    +0.000 A 
ATOM      6  C   UNL     1       2.646   7.206  19.212  0.00  0.00    +0.000 A 
ATOM      7  C   UNL     1       4.360   6.159  17.643  0.00  0.00    +0.000 C 
ATOM      8  O   UNL     1       5.079   7.108  17.369  0.00  0.00    +0.000 OA
ATOM      9  C   UNL     1       4.475   4.940  16.828  0.00  0.00    +0.000 C 
ATOM     10  C   UNL     1       4.392   3.766  17.449  0.00  0.00    +0.000 C 
ATOM     11  C   UNL     1       4.192   3.743  18.909  0.00  0.00    +0.000 C 
ATOM     12  O   UNL     1       4.713   2.833  19.531  0.00  0.00    +0.000 OA
ENDROOT
BRANCH   1  14
ATOM     13  C   UNL     1       1.177   8.771  21.967  0.00  0.00    +0.000 C 
ATOM     14  C   UNL     1       0.929   8.100  20.831  0.00  0.00    +0.000 C 
BRANCH  13  15
ATOM     15  C   UNL     1       0.291   9.877  22.382  0.00  0.00    +0.000 C 
ATOM     16  O   UNL     1      -0.063  10.108  23.525  0.00  0.00    +0.000 OA
BRANCH  15  17
ATOM     17  O   UNL     1      -0.136  10.498  21.254  0.00  0.00    +0.000 OA
BRANCH  17  19
ATOM     18  C   UNL     1       1.012  11.782  19.593  0.00  0.00    +0.000 C 
ATOM     19  C   UNL     1       0.448  11.784  21.003  0.00  0.00    +0.000 C 
ENDBRANCH  17  19
ENDBRANCH  15  17
ENDBRANCH  13  15
ENDBRANCH   1  14
BRANCH   3  20
ATOM     20  O   UNL     1       2.331   3.699  21.509  0.00  0.00    +0.000 OA
ATOM     21  C   UNL     1       1.328   2.730  21.289  0.00  0.00    +0.000 C 
ENDBRANCH   3  20
BRANCH   6  22
ATOM     22  O   UNL     1       2.454   8.439  18.659  0.00  0.00    +0.000 OA
ATOM     23  C   UNL     1       1.615   8.708  17.557  0.00  0.00    +0.000 C 
ENDBRANCH   6  22
TORSDOF 6
ENDMDL
MODEL 4
REMARK VINA RESULT:      -6.5      0.953      1.517
REMARK  Name = 
REMARK  9 active torsions:
REMARK  status: ('A' for Active; 'I' for Inactive)
REMARK    1  A    between atoms: C_1  and  C_2
REMARK    2  A    between atoms: C_2  and  O_3
REMARK    3  A    between atoms: O_3  and  C_4
REMARK    4  A    between atoms: C_4  and  C_6
REMARK    5  A    between atoms: C_7  and  C_8
REMARK    6  A    between atoms: C_10  and  O_11
REMARK    7  A    between atoms: O_11  and  C_12
REMARK    8  A    between atoms: C_15  and  O_16
REMARK    9  A    between atoms: O_16  and  C_17
REMARK                            x       y       z     vdW  Elec       q    Type
REMARK                         _______ _______ _______ _____ _____    ______ ____
ROOT
ATOM      1  C   UNL     1       4.575   4.594  16.780  0.00  0.00    +0.000 A 
ATOM      2  C   UNL     1       4.027   3.407  17.274  0.00  0.00    +0.000 A 
ATOM      3  C   UNL     1       3.040   3.390  18.270  0.00  0.00    +0.000 A 
ATOM      4  C   UNL     1       2.587   4.622  18.772  0.00  0.00    +0.000 A 
ATOM      5  C   UNL     1       3.109   5.847  18.234  0.00  0.00    +0.000 A 
ATOM      6  C   UNL     1       4.118   5.843  17.247  0.00  0.00    +0.000 A 
ATOM      7  C   UNL     1       2.514   7.092  18.784  0.00  0.00    +0.000 C 
ATOM      8  O   UNL     1       2.226   8.075  18.118  0.00  0.00    +0.000 OA
ATOM      9  C   UNL     1       2.169   7.093  20.213  0.00  0.00    +0.000 C 
ATOM     10  C   UNL     1       1.725   5.958  20.747  0.00  0.00    +0.000 C 
ATOM     11  C   UNL     1       1.602   4.765  19.888  0.00  0.00    +0.000 C 
ATOM     12  O   UNL     1       0.691   3.992  20.131  0.00  0.00    +0.000 OA
ENDROOT
BRANCH   1  14
ATOM     13  C   UNL     1       5.409   4.334  14.487  0.00  0.00    +0.000 C 
ATOM     14  C   UNL     1       5.665   4.473  15.798  0.00  0.00    +0.000 C 
BRANCH  13  15
ATOM     15  C   UNL     1       6.521   4.290  13.517  0.00  0.00    +0.000 C 
ATOM     16  O   UNL     1       6.688   3.428  12.671  0.00  0.00    +0.000 OA
BRANCH  15  17
ATOM     17  O   UNL     1       7.364   5.308  13.822  0.00  0.00    +0.000 OA
BRANCH  17  19
ATOM     18  C   UNL     1       7.894   6.215  11.672  0.00  0.00    +0.000 C 
ATOM     19  C   UNL     1       8.444   5.508  12.899  0.00  0.00    +0.000 C 
ENDBRANCH  17  19
ENDBRANCH  15  17
ENDBRANCH  13  15
ENDBRANCH   1  14
BRANCH   3  20
ATOM     20  O   UNL     1       2.766   2.091  18.576  0.00  0.00    +0.000 OA
ATOM     21  C   UNL     1       3.743   1.076  18.663  0.00  0.00    +0.000 C 
ENDBRANCH   3  20
BRANCH   6  22
ATOM     22  O   UNL     1       4.821   6.859  16.664  0.00  0.00    +0.000 OA
ATOM     23  C   UNL     1       5.997   7.432  17.190  0.00  0.00    +0.000 C 
ENDBRANCH   6  22
TORSDOF 6
ENDMDL
MODEL 5
REMARK VINA RESULT:      -6.4      2.487      7.438
REMARK  Name = 
REMARK  9 active torsions:
REMARK  status: ('A' for Active; 'I' for Inactive)
REMARK    1  A    between atoms: C_1  and  C_2
REMARK    2  A    between atoms: C_2  and  O_3
REMARK    3  A    between atoms: O_3  and  C_4
REMARK    4  A    between atoms: C_4  and  C_6
REMARK    5  A    between atoms: C_7  and  C_8
REMARK    6  A    between atoms: C_10  and  O_11
REMARK    7  A    between atoms: O_11  and  C_12
REMARK    8  A    between atoms: C_15  and  O_16
REMARK    9  A    between atoms: O_16  and  C_17
REMARK                            x       y       z     vdW  Elec       q    Type
REMARK                         _______ _______ _______ _____ _____    ______ ____
ROOT
ATOM      1  C   UNL     1       2.316   6.305  19.640  0.00  0.00    +0.000 A 
ATOM      2  C   UNL     1       3.246   6.911  18.791  0.00  0.00    +0.000 A 
ATOM      3  C   UNL     1       3.927   6.203  17.790  0.00  0.00    +0.000 A 
ATOM      4  C   UNL     1       3.643   4.835  17.640  0.00  0.00    +0.000 A 
ATOM      5  C   UNL     1       2.652   4.216  18.475  0.00  0.00    +0.000 A 
ATOM      6  C   UNL     1       1.993   4.941  19.492  0.00  0.00    +0.000 A 
ATOM      7  C   UNL     1       2.378   2.785  18.189  0.00  0.00    +0.000 C 
ATOM      8  O   UNL     1       1.265   2.279  18.184  0.00  0.00    +0.000 OA
ATOM      9  C   UNL     1       3.523   1.952  17.794  0.00  0.00    +0.000 C 
ATOM     10  C   UNL     1       4.478   2.514  17.058  0.00  0.00    +0.000 C 
ATOM     11  C   UNL     1       4.344   3.932  16.676  0.00  0.00    +0.000 C 
ATOM     12  O   UNL     1       4.789   4.264  15.591  0.00  0.00    +0.000 OA
ENDROOT
BRANCH   1  14
ATOM     13  C   UNL     1       1.457   8.436  20.501  0.00  0.00    +0.000 C 
ATOM     14  C   UNL     1       1.735   7.139  20.705  0.00  0.00    +0.000 C 
BRANCH  13  15
ATOM     15  C   UNL     1       0.805   9.229  21.562  0.00  0.00    +0.000 C 
ATOM     16  O   UNL     1       1.195   9.325  22.713  0.00  0.00    +0.000 OA
BRANCH  15  17
ATOM     17  O   UNL     1      -0.349   9.723  21.047  0.00  0.00    +0.000 OA
BRANCH  17  19
ATOM     18  C   UNL     1      -1.234  10.446  18.945  0.00  0.00    +0.000 C 
ATOM     19  C   UNL     1      -0.189  10.707  20.016  0.00  0.00    +0.000 C 
ENDBRANCH  17  19
ENDBRANCH  15  17
ENDBRANCH  13  15
ENDBRANCH   1  14
BRANCH   3  20
ATOM     20  O   UNL     1       4.803   7.054  17.187  0.00  0.00    +0.000 OA
ATOM     21  C   UNL     1       6.207   6.955  17.299  0.00  0.00    +0.000 C 
ENDBRANCH   3  20
BRANCH   6  22
ATOM     22  O   UNL     1       1.102   4.552  20.450  0.00  0.00    +0.000 OA
ATOM     23  C   UNL     1       1.313   3.504  21.371  0.00  0.00    +0.000 C 
ENDBRANCH   6  22
TORSDOF 6
ENDMDL
MODEL 6
REMARK VINA RESULT:      -6.3      1.008      1.107
REMARK  Name = 
REMARK  9 active torsions:
REMARK  status: ('A' for Active; 'I' for Inactive)
REMARK    1  A    between atoms: C_1  and  C_2
REMARK    2  A    between atoms: C_2  and  O_3
REMARK    3  A    between atoms: O_3  and  C_4
REMARK    4  A    between atoms: C_4  and  C_6
REMARK    5  A    between atoms: C_7  and  C_8
REMARK    6  A    between atoms: C_10  and  O_11
REMARK    7  A    between atoms: O_11  and  C_12
REMARK    8  A    between atoms: C_15  and  O_16
REMARK    9  A    between atoms: O_16  and  C_17
REMARK                            x       y       z     vdW  Elec       q    Type
REMARK                         _______ _______ _______ _____ _____    ______ ____
ROOT
ATOM      1  C   UNL     1       4.594   4.990  16.912  0.00  0.00    +0.000 A 
ATOM      2  C   UNL     1       4.248   3.637  16.969  0.00  0.00    +0.000 A 
ATOM      3  C   UNL     1       3.321   3.135  17.894  0.00  0.00    +0.000 A 
ATOM      4  C   UNL     1       2.717   4.042  18.782  0.00  0.00    +0.000 A 
ATOM      5  C   UNL     1       3.030   5.441  18.696  0.00  0.00    +0.000 A 
ATOM      6  C   UNL     1       3.983   5.923  17.772  0.00  0.00    +0.000 A 
ATOM      7  C   UNL     1       2.287   6.321  19.633  0.00  0.00    +0.000 C 
ATOM      8  O   UNL     1       1.827   7.415  19.339  0.00  0.00    +0.000 OA
ATOM      9  C   UNL     1       2.011   5.787  20.974  0.00  0.00    +0.000 C 
ATOM     10  C   UNL     1       1.762   4.485  21.088  0.00  0.00    +0.000 C 
ATOM     11  C   UNL     1       1.774   3.648  19.874  0.00  0.00    +0.000 C 
ATOM     12  O   UNL     1       0.998   2.709  19.834  0.00  0.00    +0.000 OA
ENDROOT
BRANCH   1  14
ATOM     13  C   UNL     1       6.105   4.506  15.039  0.00  0.00    +0.000 C 
ATOM     14  C   UNL     1       5.643   5.374  15.953  0.00  0.00    +0.000 C 
BRANCH  13  15
ATOM     15  C   UNL     1       7.103   4.941  14.043  0.00  0.00    +0.000 C 
ATOM     16  O   UNL     1       8.092   5.613  14.279  0.00  0.00    +0.000 OA
BRANCH  15  17
ATOM     17  O   UNL     1       6.652   4.555  12.823  0.00  0.00    +0.000 OA
BRANCH  17  19
ATOM     18  C   UNL     1       4.947   3.246  11.772  0.00  0.00    +0.000 C 
ATOM     19  C   UNL     1       6.097   3.233  12.764  0.00  0.00    +0.000 C 
ENDBRANCH  17  19
ENDBRANCH  15  17
ENDBRANCH  13  15
ENDBRANCH   1  14
BRANCH   3  20
ATOM     20  O   UNL     1       3.253   1.783  17.738  0.00  0.00    +0.000 OA
ATOM     21  C   UNL     1       3.864   0.855  18.609  0.00  0.00    +0.000 C 
ENDBRANCH   3  20
BRANCH   6  22
ATOM     22  O   UNL     1       4.502   7.170  17.574  0.00  0.00    +0.000 OA
ATOM     23  C   UNL     1       3.762   8.296  17.156  0.00  0.00    +0.000 C 
ENDBRANCH   6  22
TORSDOF 6
ENDMDL
MODEL 7
REMARK VINA RESULT:      -6.3      2.964      7.180
REMARK  Name = 
REMARK  9 active torsions:
REMARK  status: ('A' for Active; 'I' for Inactive)
REMARK    1  A    between atoms: C_1  and  C_2
REMARK    2  A    between atoms: C_2  and  O_3
REMARK    3  A    between atoms: O_3  and  C_4
REMARK    4  A    between atoms: C_4  and  C_6
REMARK    5  A    between atoms: C_7  and  C_8
REMARK    6  A    between atoms: C_10  and  O_11
REMARK    7  A    between atoms: O_11  and  C_12
REMARK    8  A    between atoms: C_15  and  O_16
REMARK    9  A    between atoms: O_16  and  C_17
REMARK                            x       y       z     vdW  Elec       q    Type
REMARK                         _______ _______ _______ _____ _____    ______ ____
ROOT
ATOM      1  C   UNL     1       1.911   6.619  20.114  0.00  0.00    +0.000 A 
ATOM      2  C   UNL     1       1.950   5.615  21.085  0.00  0.00    +0.000 A 
ATOM      3  C   UNL     1       2.526   4.359  20.847  0.00  0.00    +0.000 A 
ATOM      4  C   UNL     1       3.090   4.120  19.582  0.00  0.00    +0.000 A 
ATOM      5  C   UNL     1       3.099   5.164  18.596  0.00  0.00    +0.000 A 
ATOM      6  C   UNL     1       2.495   6.415  18.848  0.00  0.00    +0.000 A 
ATOM      7  C   UNL     1       3.780   4.832  17.319  0.00  0.00    +0.000 C 
ATOM      8  O   UNL     1       4.508   5.597  16.703  0.00  0.00    +0.000 OA
ATOM      9  C   UNL     1       3.636   3.456  16.823  0.00  0.00    +0.000 C 
ATOM     10  C   UNL     1       3.580   2.474  17.718  0.00  0.00    +0.000 C 
ATOM     11  C   UNL     1       3.666   2.809  19.152  0.00  0.00    +0.000 C 
ATOM     12  O   UNL     1       4.222   2.006  19.882  0.00  0.00    +0.000 OA
ENDROOT
BRANCH   1  14
ATOM     13  C   UNL     1       1.386   8.461  21.650  0.00  0.00    +0.000 C 
ATOM     14  C   UNL     1       1.202   7.862  20.462  0.00  0.00    +0.000 C 
BRANCH  13  15
ATOM     15  C   UNL     1       0.720   9.745  21.942  0.00  0.00    +0.000 C 
ATOM     16  O   UNL     1       0.287  10.086  23.029  0.00  0.00    +0.000 OA
BRANCH  15  17
ATOM     17  O   UNL     1       0.584  10.407  20.765  0.00  0.00    +0.000 OA
BRANCH  17  19
ATOM     18  C   UNL     1      -1.136  10.596  19.113  0.00  0.00    +0.000 C 
ATOM     19  C   UNL     1      -0.715  10.968  20.524  0.00  0.00    +0.000 C 
ENDBRANCH  17  19
ENDBRANCH  15  17
ENDBRANCH  13  15
ENDBRANCH   1  14
BRANCH   3  20
ATOM     20  O   UNL     1       2.347   3.590  21.957  0.00  0.00    +0.000 OA
ATOM     21  C   UNL     1       1.470   2.486  22.023  0.00  0.00    +0.000 C 
ENDBRANCH   3  20
BRANCH   6  22
ATOM     22  O   UNL     1       2.300   7.505  18.049  0.00  0.00    +0.000 OA
ATOM     23  C   UNL     1       3.290   8.454  17.722  0.00  0.00    +0.000 C 
ENDBRANCH   6  22
TORSDOF 6
ENDMDL
MODEL 8
REMARK VINA RESULT:      -6.3      2.958      7.665
REMARK  Name = 
REMARK  9 active torsions:
REMARK  status: ('A' for Active; 'I' for Inactive)
REMARK    1  A    between atoms: C_1  and  C_2
REMARK    2  A    between atoms: C_2  and  O_3
REMARK    3  A    between atoms: O_3  and  C_4
REMARK    4  A    between atoms: C_4  and  C_6
REMARK    5  A    between atoms: C_7  and  C_8
REMARK    6  A    between atoms: C_10  and  O_11
REMARK    7  A    between atoms: O_11  and  C_12
REMARK    8  A    between atoms: C_15  and  O_16
REMARK    9  A    between atoms: O_16  and  C_17
REMARK                            x       y       z     vdW  Elec       q    Type
REMARK                         _______ _______ _______ _____ _____    ______ ____
ROOT
ATOM      1  C   UNL     1       1.985   7.090  20.120  0.00  0.00    +0.000 A 
ATOM      2  C   UNL     1       1.861   5.950  20.919  0.00  0.00    +0.000 A 
ATOM      3  C   UNL     1       2.504   4.742  20.613  0.00  0.00    +0.000 A 
ATOM      4  C   UNL     1       3.309   4.695  19.463  0.00  0.00    +0.000 A 
ATOM      5  C   UNL     1       3.482   5.877  18.664  0.00  0.00    +0.000 A 
ATOM      6  C   UNL     1       2.809   7.078  18.977  0.00  0.00    +0.000 A 
ATOM      7  C   UNL     1       4.407   5.739  17.511  0.00  0.00    +0.000 C 
ATOM      8  O   UNL     1       5.221   6.585  17.170  0.00  0.00    +0.000 OA
ATOM      9  C   UNL     1       4.397   4.454  16.796  0.00  0.00    +0.000 C 
ATOM     10  C   UNL     1       4.194   3.348  17.506  0.00  0.00    +0.000 C 
ATOM     11  C   UNL     1       3.991   3.461  18.962  0.00  0.00    +0.000 C 
ATOM     12  O   UNL     1       4.414   2.555  19.659  0.00  0.00    +0.000 OA
ENDROOT
BRANCH   1  14
ATOM     13  C   UNL     1       1.628   9.130  21.437  0.00  0.00    +0.000 C 
ATOM     14  C   UNL     1       1.191   8.269  20.504  0.00  0.00    +0.000 C 
BRANCH  13  15
ATOM     15  C   UNL     1       0.847  10.344  21.748  0.00  0.00    +0.000 C 
ATOM     16  O   UNL     1       0.717  11.308  21.014  0.00  0.00    +0.000 OA
BRANCH  15  17
ATOM     17  O   UNL     1       0.409  10.226  23.026  0.00  0.00    +0.000 OA
BRANCH  17  19
ATOM     18  C   UNL     1      -1.582  11.545  23.157  0.00  0.00    +0.000 C 
ATOM     19  C   UNL     1      -1.014  10.137  23.182  0.00  0.00    +0.000 C 
ENDBRANCH  17  19
ENDBRANCH  15  17
ENDBRANCH  13  15
ENDBRANCH   1  14
BRANCH   3  20
ATOM     20  O   UNL     1       2.132   3.815  21.540  0.00  0.00    +0.000 OA
ATOM     21  C   UNL     1       1.285   2.719  21.267  0.00  0.00    +0.000 C 
ENDBRANCH   3  20
BRANCH   6  22
ATOM     22  O   UNL     1       2.745   8.276  18.327  0.00  0.00    +0.000 OA
ATOM     23  C   UNL     1       1.672   8.698  17.515  0.00  0.00    +0.000 C 
ENDBRANCH   6  22
TORSDOF 6
ENDMDL
MODEL 9
REMARK VINA RESULT:      -6.2      2.281      5.196
REMARK  Name = 
REMARK  9 active torsions:
REMARK  status: ('A' for Active; 'I' for Inactive)
REMARK    1  A    between atoms: C_1  and  C_2
REMARK    2  A    between atoms: C_2  and  O_3
REMARK    3  A    between atoms: O_3  and  C_4
REMARK    4  A    between atoms: C_4  and  C_6
REMARK    5  A    between atoms: C_7  and  C_8
REMARK    6  A    between atoms: C_10  and  O_11
REMARK    7  A    between atoms: O_11  and  C_12
REMARK    8  A    between atoms: C_15  and  O_16
REMARK    9  A    between atoms: O_16  and  C_17
REMARK                            x       y       z     vdW  Elec       q    Type
REMARK                         _______ _______ _______ _____ _____    ______ ____
ROOT
ATOM      1  C   UNL     1       4.646   5.519  18.174  0.00  0.00    +0.000 A 
ATOM      2  C   UNL     1       3.799   6.219  19.037  0.00  0.00    +0.000 A 
ATOM      3  C   UNL     1       2.670   5.632  19.626  0.00  0.00    +0.000 A 
ATOM      4  C   UNL     1       2.400   4.284  19.336  0.00  0.00    +0.000 A 
ATOM      5  C   UNL     1       3.293   3.543  18.491  0.00  0.00    +0.000 A 
ATOM      6  C   UNL     1       4.413   4.158  17.890  0.00  0.00    +0.000 A 
ATOM      7  C   UNL     1       2.955   2.109  18.304  0.00  0.00    +0.000 C 
ATOM      8  O   UNL     1       3.773   1.200  18.293  0.00  0.00    +0.000 OA
ATOM      9  C   UNL     1       1.529   1.764  18.221  0.00  0.00    +0.000 C 
ATOM     10  C   UNL     1       0.675   2.466  18.960  0.00  0.00    +0.000 C 
ATOM     11  C   UNL     1       1.194   3.544  19.821  0.00  0.00    +0.000 C 
ATOM     12  O   UNL     1       0.620   3.742  20.879  0.00  0.00    +0.000 OA
ENDROOT
BRANCH   1  14
ATOM     13  C   UNL     1       6.672   6.898  18.303  0.00  0.00    +0.000 C 
ATOM     14  C   UNL     1       5.748   6.274  17.555  0.00  0.00    +0.000 C 
BRANCH  13  15
ATOM     15  C   UNL     1       7.807   7.585  17.655  0.00  0.00    +0.000 C 
ATOM     16  O   UNL     1       8.162   7.428  16.500  0.00  0.00    +0.000 OA
BRANCH  15  17
ATOM     17  O   UNL     1       8.434   8.317  18.610  0.00  0.00    +0.000 OA
BRANCH  17  19
ATOM     18  C   UNL     1       9.484  10.323  19.383  0.00  0.00    +0.000 C 
ATOM     19  C   UNL     1       8.636   9.700  18.288  0.00  0.00    +0.000 C 
ENDBRANCH  17  19
ENDBRANCH  15  17
ENDBRANCH  13  15
ENDBRANCH   1  14
BRANCH   3  20
ATOM     20  O   UNL     1       2.024   6.586  20.354  0.00  0.00    +0.000 OA
ATOM     21  C   UNL     1       1.895   7.933  19.954  0.00  0.00    +0.000 C 
ENDBRANCH   3  20
BRANCH   6  22
ATOM     22  O   UNL     1       5.331   3.692  16.993  0.00  0.00    +0.000 OA
ATOM     23  C   UNL     1       5.221   3.804  15.592  0.00  0.00    +0.000 C 
ENDBRANCH   6  22
TORSDOF 6
ENDMDL
