MODEL 1
REMARK VINA RESULT:      -8.1      0.000      0.000
REMARK  Name = 
REMARK  7 active torsions:
REMARK  status: ('A' for Active; 'I' for Inactive)
REMARK    1  A    between atoms: C_1  and  C_2
REMARK    2  A    between atoms: N_4  and  C_5
REMARK    3  A    between atoms: C_5  and  C_6
REMARK    4  A    between atoms: C_14  and  C_15
REMARK    5  A    between atoms: C_18  and  C_19
REMARK    6  A    between atoms: N_21  and  C_22
REMARK    7  A    between atoms: N_21  and  C_23
REMARK                            x       y       z     vdW  Elec       q    Type
REMARK                         _______ _______ _______ _____ _____    ______ ____
ROOT
ATOM      1  C   UNL     1       4.299   4.430  18.349  0.00  0.00    +0.000 C 
ATOM      2  O   UNL     1       4.518   5.305  17.214  0.00  0.00    +0.000 OA
ATOM      3  C   UNL     1       3.794   6.459  17.374  0.00  0.00    +0.000 C 
ATOM      4  O   UNL     1       3.732   7.312  16.505  0.00  0.00    +0.000 OA
ATOM      5  N   UNL     1       3.194   6.442  18.602  0.00  0.00    +0.000 N 
ATOM      6  C   UNL     1       2.306   7.352  19.196  0.00  0.00    +0.000 A 
ATOM      7  C   UNL     1       2.061   8.621  18.678  0.00  0.00    +0.000 A 
ATOM      8  C   UNL     1       1.220   9.510  19.363  0.00  0.00    +0.000 A 
ATOM      9  C   UNL     1       0.600   9.162  20.579  0.00  0.00    +0.000 A 
ATOM     10  C   UNL     1       0.834   7.861  21.067  0.00  0.00    +0.000 A 
ATOM     11  C   UNL     1       1.666   6.965  20.383  0.00  0.00    +0.000 A 
ATOM     12  O   UNL     1       1.814   5.717  20.962  0.00  0.00    +0.000 OA
ATOM     13  C   UNL     1       2.394   4.730  20.081  0.00  0.00    +0.000 C 
ATOM     14  C   UNL     1       3.605   5.309  19.372  0.00  0.00    +0.000 C 
ENDROOT
BRANCH   9  15
ATOM     15  C   UNL     1      -0.262  10.119  21.310  0.00  0.00    +0.000 A 
ATOM     16  C   UNL     1      -0.523   9.991  22.678  0.00  0.00    +0.000 A 
ATOM     17  C   UNL     1      -1.353  10.903  23.334  0.00  0.00    +0.000 A 
ATOM     18  C   UNL     1      -1.927  11.939  22.606  0.00  0.00    +0.000 A 
ATOM     19  N   UNL     1      -1.701  12.110  21.280  0.00  0.00    +0.000 NA
ATOM     20  C   UNL     1      -0.875  11.211  20.682  0.00  0.00    +0.000 A 
BRANCH  18  21
ATOM     21  C   UNL     1      -2.920  12.826  23.304  0.00  0.00    +0.000 C 
ATOM     22  O   UNL     1      -4.078  12.402  23.387  0.00  0.00    +0.000 OA
ATOM     23  N   UNL     1      -2.558  14.066  23.837  0.00  0.00    +0.000 N 
ATOM     24  C   UNL     1      -1.213  14.618  23.846  0.00  0.00    +0.000 C 
ATOM     25  C   UNL     1      -3.612  14.953  24.306  0.00  0.00    +0.000 C 
ENDBRANCH  18  21
ENDBRANCH   9  15
BRANCH   1  26
ATOM     26  C   UNL     1       5.673   3.959  18.847  0.00  0.00    +0.000 C 
BRANCH  26  30
ATOM     27  C   UNL     1       8.335   6.653  19.034  0.00  0.00    +0.000 C 
ATOM     28  C   UNL     1       7.568   5.500  18.443  0.00  0.00    +0.000 C 
ATOM     29  O   UNL     1       7.831   5.008  17.352  0.00  0.00    +0.000 OA
ATOM     30  N   UNL     1       6.542   5.054  19.242  0.00  0.00    +0.000 N 
ATOM     31  H   UNL     1       6.289   5.595  20.062  0.00  0.00    +0.000 HD
ENDBRANCH  26  30
ENDBRANCH   1  26
TORSDOF 4
ENDMDL
MODEL 2
REMARK VINA RESULT:      -7.8      2.446     10.183
REMARK  Name = 
REMARK  7 active torsions:
REMARK  status: ('A' for Active; 'I' for Inactive)
REMARK    1  A    between atoms: C_1  and  C_2
REMARK    2  A    between atoms: N_4  and  C_5
REMARK    3  A    between atoms: C_5  and  C_6
REMARK    4  A    between atoms: C_14  and  C_15
REMARK    5  A    between atoms: C_18  and  C_19
REMARK    6  A    between atoms: N_21  and  C_22
REMARK    7  A    between atoms: N_21  and  C_23
REMARK                            x       y       z     vdW  Elec       q    Type
REMARK                         _______ _______ _______ _____ _____    ______ ____
ROOT
ATOM      1  C   UNL     1      -1.988  13.864  21.397  0.00  0.00    +0.000 C 
ATOM      2  O   UNL     1      -1.673  14.325  20.060  0.00  0.00    +0.000 OA
ATOM      3  C   UNL     1      -0.885  13.399  19.425  0.00  0.00    +0.000 C 
ATOM      4  O   UNL     1      -0.403  13.601  18.324  0.00  0.00    +0.000 OA
ATOM      5  N   UNL     1      -0.751  12.302  20.230  0.00  0.00    +0.000 N 
ATOM      6  C   UNL     1       0.005  11.132  20.059  0.00  0.00    +0.000 A 
ATOM      7  C   UNL     1       0.599  10.782  18.849  0.00  0.00    +0.000 A 
ATOM      8  C   UNL     1       1.277   9.560  18.725  0.00  0.00    +0.000 A 
ATOM      9  C   UNL     1       1.384   8.656  19.798  0.00  0.00    +0.000 A 
ATOM     10  C   UNL     1       0.807   9.046  21.023  0.00  0.00    +0.000 A 
ATOM     11  C   UNL     1       0.136  10.268  21.157  0.00  0.00    +0.000 A 
ATOM     12  O   UNL     1      -0.385  10.537  22.410  0.00  0.00    +0.000 OA
ATOM     13  C   UNL     1      -0.769  11.917  22.599  0.00  0.00    +0.000 C 
ATOM     14  C   UNL     1      -1.563  12.408  21.402  0.00  0.00    +0.000 C 
ENDROOT
BRANCH   9  15
ATOM     15  C   UNL     1       2.076   7.355  19.649  0.00  0.00    +0.000 A 
ATOM     16  C   UNL     1       2.858   7.052  18.529  0.00  0.00    +0.000 A 
ATOM     17  C   UNL     1       3.486   5.810  18.414  0.00  0.00    +0.000 A 
ATOM     18  C   UNL     1       3.315   4.870  19.424  0.00  0.00    +0.000 A 
ATOM     19  N   UNL     1       2.573   5.117  20.531  0.00  0.00    +0.000 NA
ATOM     20  C   UNL     1       1.992   6.343  20.614  0.00  0.00    +0.000 A 
BRANCH  18  21
ATOM     21  C   UNL     1       3.889   3.496  19.213  0.00  0.00    +0.000 C 
ATOM     22  O   UNL     1       5.103   3.368  19.403  0.00  0.00    +0.000 OA
ATOM     23  N   UNL     1       3.094   2.414  18.824  0.00  0.00    +0.000 N 
ATOM     24  C   UNL     1       1.652   2.453  18.640  0.00  0.00    +0.000 C 
ATOM     25  C   UNL     1       3.751   1.175  18.437  0.00  0.00    +0.000 C 
ENDBRANCH  18  21
ENDBRANCH   9  15
BRANCH   1  26
ATOM     26  C   UNL     1      -3.503  14.012  21.597  0.00  0.00    +0.000 C 
BRANCH  26  30
ATOM     27  C   UNL     1      -4.856  12.362  24.731  0.00  0.00    +0.000 C 
ATOM     28  C   UNL     1      -4.281  13.465  23.882  0.00  0.00    +0.000 C 
ATOM     29  O   UNL     1      -4.052  14.590  24.309  0.00  0.00    +0.000 OA
ATOM     30  N   UNL     1      -4.042  13.090  22.582  0.00  0.00    +0.000 N 
ATOM     31  H   UNL     1      -4.387  12.192  22.259  0.00  0.00    +0.000 HD
ENDBRANCH  26  30
ENDBRANCH   1  26
TORSDOF 4
ENDMDL
MODEL 3
REMARK VINA RESULT:      -7.7      2.671     10.216
REMARK  Name = 
REMARK  7 active torsions:
REMARK  status: ('A' for Active; 'I' for Inactive)
REMARK    1  A    between atoms: C_1  and  C_2
REMARK    2  A    between atoms: N_4  and  C_5
REMARK    3  A    between atoms: C_5  and  C_6
REMARK    4  A    between atoms: C_14  and  C_15
REMARK    5  A    between atoms: C_18  and  C_19
REMARK    6  A    between atoms: N_21  and  C_22
REMARK    7  A    between atoms: N_21  and  C_23
REMARK                            x       y       z     vdW  Elec       q    Type
REMARK                         _______ _______ _______ _____ _____    ______ ____
ROOT
ATOM      1  C   UNL     1      -2.116  13.749  21.410  0.00  0.00    +0.000 C 
ATOM      2  O   UNL     1      -1.794  14.220  20.077  0.00  0.00    +0.000 OA
ATOM      3  C   UNL     1      -0.988  13.307  19.446  0.00  0.00    +0.000 C 
ATOM      4  O   UNL     1      -0.499  13.521  18.350  0.00  0.00    +0.000 OA
ATOM      5  N   UNL     1      -0.846  12.209  20.247  0.00  0.00    +0.000 N 
ATOM      6  C   UNL     1      -0.072  11.049  20.078  0.00  0.00    +0.000 A 
ATOM      7  C   UNL     1       0.537  10.714  18.873  0.00  0.00    +0.000 A 
ATOM      8  C   UNL     1       1.233   9.501  18.750  0.00  0.00    +0.000 A 
ATOM      9  C   UNL     1       1.343   8.595  19.821  0.00  0.00    +0.000 A 
ATOM     10  C   UNL     1       0.749   8.971  21.042  0.00  0.00    +0.000 A 
ATOM     11  C   UNL     1       0.060  10.183  21.174  0.00  0.00    +0.000 A 
ATOM     12  O   UNL     1      -0.476  10.440  22.423  0.00  0.00    +0.000 OA
ATOM     13  C   UNL     1      -0.881  11.813  22.614  0.00  0.00    +0.000 C 
ATOM     14  C   UNL     1      -1.671  12.298  21.412  0.00  0.00    +0.000 C 
ENDROOT
BRANCH   9  15
ATOM     15  C   UNL     1       2.054   7.304  19.672  0.00  0.00    +0.000 A 
ATOM     16  C   UNL     1       2.867   7.024  18.569  0.00  0.00    +0.000 A 
ATOM     17  C   UNL     1       3.513   5.791  18.454  0.00  0.00    +0.000 A 
ATOM     18  C   UNL     1       3.329   4.837  19.448  0.00  0.00    +0.000 A 
ATOM     19  N   UNL     1       2.556   5.060  20.539  0.00  0.00    +0.000 NA
ATOM     20  C   UNL     1       1.959   6.278  20.623  0.00  0.00    +0.000 A 
BRANCH  18  21
ATOM     21  C   UNL     1       3.924   3.472  19.234  0.00  0.00    +0.000 C 
ATOM     22  O   UNL     1       5.111   3.331  19.546  0.00  0.00    +0.000 OA
ATOM     23  N   UNL     1       3.177   2.412  18.711  0.00  0.00    +0.000 N 
ATOM     24  C   UNL     1       1.763   2.464  18.377  0.00  0.00    +0.000 C 
ATOM     25  C   UNL     1       3.874   1.191  18.338  0.00  0.00    +0.000 C 
ENDBRANCH  18  21
ENDBRANCH   9  15
BRANCH   1  26
ATOM     26  C   UNL     1      -3.634  13.874  21.595  0.00  0.00    +0.000 C 
BRANCH  26  30
ATOM     27  C   UNL     1      -6.322  11.643  20.120  0.00  0.00    +0.000 C 
ATOM     28  C   UNL     1      -5.751  12.829  20.852  0.00  0.00    +0.000 C 
ATOM     29  O   UNL     1      -6.444  13.725  21.321  0.00  0.00    +0.000 OA
ATOM     30  N   UNL     1      -4.380  12.813  20.941  0.00  0.00    +0.000 N 
ATOM     31  H   UNL     1      -3.862  12.122  20.409  0.00  0.00    +0.000 HD
ENDBRANCH  26  30
ENDBRANCH   1  26
TORSDOF 4
ENDMDL
MODEL 4
REMARK VINA RESULT:      -7.7      1.014      1.392
REMARK  Name = 
REMARK  7 active torsions:
REMARK  status: ('A' for Active; 'I' for Inactive)
REMARK    1  A    between atoms: C_1  and  C_2
REMARK    2  A    between atoms: N_4  and  C_5
REMARK    3  A    between atoms: C_5  and  C_6
REMARK    4  A    between atoms: C_14  and  C_15
REMARK    5  A    between atoms: C_18  and  C_19
REMARK    6  A    between atoms: N_21  and  C_22
REMARK    7  A    between atoms: N_21  and  C_23
REMARK                            x       y       z     vdW  Elec       q    Type
REMARK                         _______ _______ _______ _____ _____    ______ ____
ROOT
ATOM      1  C   UNL     1       3.905   4.511  18.556  0.00  0.00    +0.000 C 
ATOM      2  O   UNL     1       4.180   5.312  17.378  0.00  0.00    +0.000 OA
ATOM      3  C   UNL     1       3.556   6.528  17.491  0.00  0.00    +0.000 C 
ATOM      4  O   UNL     1       3.553   7.343  16.584  0.00  0.00    +0.000 OA
ATOM      5  N   UNL     1       2.974   6.618  18.724  0.00  0.00    +0.000 N 
ATOM      6  C   UNL     1       2.172   7.626  19.283  0.00  0.00    +0.000 A 
ATOM      7  C   UNL     1       2.025   8.885  18.708  0.00  0.00    +0.000 A 
ATOM      8  C   UNL     1       1.270   9.872  19.359  0.00  0.00    +0.000 A 
ATOM      9  C   UNL     1       0.640   9.633  20.595  0.00  0.00    +0.000 A 
ATOM     10  C   UNL     1       0.773   8.342  21.142  0.00  0.00    +0.000 A 
ATOM     11  C   UNL     1       1.518   7.349  20.493  0.00  0.00    +0.000 A 
ATOM     12  O   UNL     1       1.570   6.121  21.129  0.00  0.00    +0.000 OA
ATOM     13  C   UNL     1       2.055   5.049  20.290  0.00  0.00    +0.000 C 
ATOM     14  C   UNL     1       3.300   5.492  19.543  0.00  0.00    +0.000 C 
ENDROOT
BRANCH   9  15
ATOM     15  C   UNL     1      -0.130  10.692  21.288  0.00  0.00    +0.000 A 
ATOM     16  C   UNL     1      -0.519  11.872  20.646  0.00  0.00    +0.000 A 
ATOM     17  C   UNL     1      -1.234  12.855  21.334  0.00  0.00    +0.000 A 
ATOM     18  C   UNL     1      -1.545  12.651  22.674  0.00  0.00    +0.000 A 
ATOM     19  N   UNL     1      -1.196  11.523  23.340  0.00  0.00    +0.000 NA
ATOM     20  C   UNL     1      -0.517  10.583  22.631  0.00  0.00    +0.000 A 
BRANCH  18  21
ATOM     21  C   UNL     1      -2.194  13.780  23.426  0.00  0.00    +0.000 C 
ATOM     22  O   UNL     1      -1.442  14.531  24.055  0.00  0.00    +0.000 OA
ATOM     23  N   UNL     1      -3.579  13.977  23.416  0.00  0.00    +0.000 N 
ATOM     24  C   UNL     1      -4.535  13.189  22.655  0.00  0.00    +0.000 C 
ATOM     25  C   UNL     1      -4.146  14.954  24.332  0.00  0.00    +0.000 C 
ENDBRANCH  18  21
ENDBRANCH   9  15
BRANCH   1  26
ATOM     26  C   UNL     1       5.241   3.952  19.062  0.00  0.00    +0.000 C 
BRANCH  26  30
ATOM     27  C   UNL     1       8.176   6.353  19.027  0.00  0.00    +0.000 C 
ATOM     28  C   UNL     1       7.299   5.228  18.545  0.00  0.00    +0.000 C 
ATOM     29  O   UNL     1       7.526   4.590  17.524  0.00  0.00    +0.000 OA
ATOM     30  N   UNL     1       6.218   4.986  19.359  0.00  0.00    +0.000 N 
ATOM     31  H   UNL     1       6.010   5.641  20.105  0.00  0.00    +0.000 HD
ENDBRANCH  26  30
ENDBRANCH   1  26
TORSDOF 4
ENDMDL
MODEL 5
REMARK VINA RESULT:      -7.6      2.024      2.872
REMARK  Name = 
REMARK  7 active torsions:
REMARK  status: ('A' for Active; 'I' for Inactive)
REMARK    1  A    between atoms: C_1  and  C_2
REMARK    2  A    between atoms: N_4  and  C_5
REMARK    3  A    between atoms: C_5  and  C_6
REMARK    4  A    between atoms: C_14  and  C_15
REMARK    5  A    between atoms: C_18  and  C_19
REMARK    6  A    between atoms: N_21  and  C_22
REMARK    7  A    between atoms: N_21  and  C_23
REMARK                            x       y       z     vdW  Elec       q    Type
REMARK                         _______ _______ _______ _____ _____    ______ ____
ROOT
ATOM      1  C   UNL     1       4.058   5.251  18.040  0.00  0.00    +0.000 C 
ATOM      2  O   UNL     1       3.765   4.479  19.232  0.00  0.00    +0.000 OA
ATOM      3  C   UNL     1       2.950   5.203  20.064  0.00  0.00    +0.000 C 
ATOM      4  O   UNL     1       2.643   4.810  21.176  0.00  0.00    +0.000 OA
ATOM      5  N   UNL     1       2.600   6.368  19.441  0.00  0.00    +0.000 N 
ATOM      6  C   UNL     1       1.846   7.459  19.902  0.00  0.00    +0.000 A 
ATOM      7  C   UNL     1       1.091   7.418  21.071  0.00  0.00    +0.000 A 
ATOM      8  C   UNL     1       0.299   8.518  21.435  0.00  0.00    +0.000 A 
ATOM      9  C   UNL     1       0.238   9.684  20.650  0.00  0.00    +0.000 A 
ATOM     10  C   UNL     1       1.037   9.717  19.490  0.00  0.00    +0.000 A 
ATOM     11  C   UNL     1       1.837   8.627  19.125  0.00  0.00    +0.000 A 
ATOM     12  O   UNL     1       2.578   8.782  17.967  0.00  0.00    +0.000 OA
ATOM     13  C   UNL     1       3.620   7.796  17.804  0.00  0.00    +0.000 C 
ATOM     14  C   UNL     1       3.077   6.408  18.094  0.00  0.00    +0.000 C 
ENDROOT
BRANCH   9  15
ATOM     15  C   UNL     1      -0.624  10.828  21.028  0.00  0.00    +0.000 A 
ATOM     16  C   UNL     1      -0.933  11.120  22.360  0.00  0.00    +0.000 A 
ATOM     17  C   UNL     1      -1.761  12.198  22.681  0.00  0.00    +0.000 A 
ATOM     18  C   UNL     1      -2.285  12.975  21.654  0.00  0.00    +0.000 A 
ATOM     19  N   UNL     1      -2.012  12.738  20.347  0.00  0.00    +0.000 NA
ATOM     20  C   UNL     1      -1.189  11.690  20.078  0.00  0.00    +0.000 A 
BRANCH  18  21
ATOM     21  C   UNL     1      -3.279  14.044  22.016  0.00  0.00    +0.000 C 
ATOM     22  O   UNL     1      -2.817  15.129  22.383  0.00  0.00    +0.000 OA
ATOM     23  N   UNL     1      -4.659  13.828  21.940  0.00  0.00    +0.000 N 
ATOM     24  C   UNL     1      -5.295  12.612  21.459  0.00  0.00    +0.000 C 
ATOM     25  C   UNL     1      -5.549  14.830  22.505  0.00  0.00    +0.000 C 
ENDBRANCH  18  21
ENDBRANCH   9  15
BRANCH   1  26
ATOM     26  C   UNL     1       3.803   4.350  16.825  0.00  0.00    +0.000 C 
BRANCH  26  30
ATOM     27  C   UNL     1       6.870   4.524  14.602  0.00  0.00    +0.000 C 
ATOM     28  C   UNL     1       5.631   5.023  15.298  0.00  0.00    +0.000 C 
ATOM     29  O   UNL     1       5.221   6.173  15.195  0.00  0.00    +0.000 OA
ATOM     30  N   UNL     1       5.006   4.066  16.062  0.00  0.00    +0.000 N 
ATOM     31  H   UNL     1       5.474   3.180  16.218  0.00  0.00    +0.000 HD
ENDBRANCH  26  30
ENDBRANCH   1  26
TORSDOF 4
ENDMDL
MODEL 6
REMARK VINA RESULT:      -7.6      2.746      3.663
REMARK  Name = 
REMARK  7 active torsions:
REMARK  status: ('A' for Active; 'I' for Inactive)
REMARK    1  A    between atoms: C_1  and  C_2
REMARK    2  A    between atoms: N_4  and  C_5
REMARK    3  A    between atoms: C_5  and  C_6
REMARK    4  A    between atoms: C_14  and  C_15
REMARK    5  A    between atoms: C_18  and  C_19
REMARK    6  A    between atoms: N_21  and  C_22
REMARK    7  A    between atoms: N_21  and  C_23
REMARK                            x       y       z     vdW  Elec       q    Type
REMARK                         _______ _______ _______ _____ _____    ______ ____
ROOT
ATOM      1  C   UNL     1       5.452   4.169  16.262  0.00  0.00    +0.000 C 
ATOM      2  O   UNL     1       5.147   3.103  17.196  0.00  0.00    +0.000 OA
ATOM      3  C   UNL     1       4.360   3.588  18.210  0.00  0.00    +0.000 C 
ATOM      4  O   UNL     1       4.051   2.909  19.174  0.00  0.00    +0.000 OA
ATOM      5  N   UNL     1       4.039   4.889  17.941  0.00  0.00    +0.000 N 
ATOM      6  C   UNL     1       3.320   5.827  18.699  0.00  0.00    +0.000 A 
ATOM      7  C   UNL     1       2.574   5.482  19.822  0.00  0.00    +0.000 A 
ATOM      8  C   UNL     1       1.817   6.457  20.491  0.00  0.00    +0.000 A 
ATOM      9  C   UNL     1       1.784   7.797  20.061  0.00  0.00    +0.000 A 
ATOM     10  C   UNL     1       2.574   8.131  18.944  0.00  0.00    +0.000 A 
ATOM     11  C   UNL     1       3.339   7.165  18.277  0.00  0.00    +0.000 A 
ATOM     12  O   UNL     1       4.074   7.618  17.197  0.00  0.00    +0.000 OA
ATOM     13  C   UNL     1       5.086   6.689  16.748  0.00  0.00    +0.000 C 
ATOM     14  C   UNL     1       4.506   5.290  16.650  0.00  0.00    +0.000 C 
ENDROOT
BRANCH   9  15
ATOM     15  C   UNL     1       0.958   8.812  20.756  0.00  0.00    +0.000 A 
ATOM     16  C   UNL     1      -0.052   9.525  20.101  0.00  0.00    +0.000 A 
ATOM     17  C   UNL     1      -0.803  10.486  20.783  0.00  0.00    +0.000 A 
ATOM     18  C   UNL     1      -0.527  10.733  22.122  0.00  0.00    +0.000 A 
ATOM     19  N   UNL     1       0.437  10.066  22.803  0.00  0.00    +0.000 NA
ATOM     20  C   UNL     1       1.134   9.127  22.109  0.00  0.00    +0.000 A 
BRANCH  18  21
ATOM     21  C   UNL     1      -1.255  11.863  22.795  0.00  0.00    +0.000 C 
ATOM     22  O   UNL     1      -2.216  11.556  23.509  0.00  0.00    +0.000 OA
ATOM     23  N   UNL     1      -0.869  13.197  22.628  0.00  0.00    +0.000 N 
ATOM     24  C   UNL     1       0.283  13.649  21.864  0.00  0.00    +0.000 C 
ATOM     25  C   UNL     1      -1.745  14.241  23.136  0.00  0.00    +0.000 C 
ENDBRANCH  18  21
ENDBRANCH   9  15
BRANCH   1  26
ATOM     26  C   UNL     1       5.161   3.648  14.848  0.00  0.00    +0.000 C 
BRANCH  26  30
ATOM     27  C   UNL     1       7.302   4.072  11.748  0.00  0.00    +0.000 C 
ATOM     28  C   UNL     1       6.114   3.637  12.563  0.00  0.00    +0.000 C 
ATOM     29  O   UNL     1       5.151   3.048  12.085  0.00  0.00    +0.000 OA
ATOM     30  N   UNL     1       6.210   3.966  13.895  0.00  0.00    +0.000 N 
ATOM     31  H   UNL     1       6.961   4.577  14.196  0.00  0.00    +0.000 HD
ENDBRANCH  26  30
ENDBRANCH   1  26
TORSDOF 4
ENDMDL
MODEL 7
REMARK VINA RESULT:      -7.5      1.295      1.582
REMARK  Name = 
REMARK  7 active torsions:
REMARK  status: ('A' for Active; 'I' for Inactive)
REMARK    1  A    between atoms: C_1  and  C_2
REMARK    2  A    between atoms: N_4  and  C_5
REMARK    3  A    between atoms: C_5  and  C_6
REMARK    4  A    between atoms: C_14  and  C_15
REMARK    5  A    between atoms: C_18  and  C_19
REMARK    6  A    between atoms: N_21  and  C_22
REMARK    7  A    between atoms: N_21  and  C_23
REMARK                            x       y       z     vdW  Elec       q    Type
REMARK                         _______ _______ _______ _____ _____    ______ ____
ROOT
ATOM      1  C   UNL     1       5.306   4.645  17.171  0.00  0.00    +0.000 C 
ATOM      2  O   UNL     1       5.288   5.537  16.028  0.00  0.00    +0.000 OA
ATOM      3  C   UNL     1       4.442   6.588  16.276  0.00  0.00    +0.000 C 
ATOM      4  O   UNL     1       4.178   7.423  15.427  0.00  0.00    +0.000 OA
ATOM      5  N   UNL     1       3.984   6.498  17.560  0.00  0.00    +0.000 N 
ATOM      6  C   UNL     1       3.053   7.288  18.254  0.00  0.00    +0.000 A 
ATOM      7  C   UNL     1       2.592   8.512  17.778  0.00  0.00    +0.000 A 
ATOM      8  C   UNL     1       1.721   9.288  18.557  0.00  0.00    +0.000 A 
ATOM      9  C   UNL     1       1.285   8.867  19.828  0.00  0.00    +0.000 A 
ATOM     10  C   UNL     1       1.735   7.609  20.275  0.00  0.00    +0.000 A 
ATOM     11  C   UNL     1       2.598   6.826  19.498  0.00  0.00    +0.000 A 
ATOM     12  O   UNL     1       2.967   5.610  20.045  0.00  0.00    +0.000 OA
ATOM     13  C   UNL     1       3.573   4.703  19.099  0.00  0.00    +0.000 C 
ATOM     14  C   UNL     1       4.617   5.431  18.271  0.00  0.00    +0.000 C 
ENDROOT
BRANCH   9  15
ATOM     15  C   UNL     1       0.388   9.706  20.656  0.00  0.00    +0.000 A 
ATOM     16  C   UNL     1      -0.548  10.579  20.091  0.00  0.00    +0.000 A 
ATOM     17  C   UNL     1      -1.368  11.367  20.901  0.00  0.00    +0.000 A 
ATOM     18  C   UNL     1      -1.236  11.281  22.283  0.00  0.00    +0.000 A 
ATOM     19  N   UNL     1      -0.348  10.448  22.879  0.00  0.00    +0.000 NA
ATOM     20  C   UNL     1       0.420   9.686  22.057  0.00  0.00    +0.000 A 
BRANCH  18  21
ATOM     21  C   UNL     1      -2.033  12.236  23.128  0.00  0.00    +0.000 C 
ATOM     22  O   UNL     1      -3.031  11.775  23.691  0.00  0.00    +0.000 OA
ATOM     23  N   UNL     1      -1.667  13.577  23.275  0.00  0.00    +0.000 N 
ATOM     24  C   UNL     1      -0.479  14.192  22.706  0.00  0.00    +0.000 C 
ATOM     25  C   UNL     1      -2.599  14.481  23.931  0.00  0.00    +0.000 C 
ENDBRANCH  18  21
ENDBRANCH   9  15
BRANCH   1  26
ATOM     26  C   UNL     1       6.774   4.359  17.516  0.00  0.00    +0.000 C 
BRANCH  26  30
ATOM     27  C   UNL     1       8.627   7.290  19.048  0.00  0.00    +0.000 C 
ATOM     28  C   UNL     1       7.789   6.040  19.023  0.00  0.00    +0.000 C 
ATOM     29  O   UNL     1       7.362   5.498  20.036  0.00  0.00    +0.000 OA
ATOM     30  N   UNL     1       7.550   5.564  17.756  0.00  0.00    +0.000 N 
ATOM     31  H   UNL     1       8.049   5.975  16.975  0.00  0.00    +0.000 HD
ENDBRANCH  26  30
ENDBRANCH   1  26
TORSDOF 4
ENDMDL
MODEL 8
REMARK VINA RESULT:      -7.4      2.040      2.961
REMARK  Name = 
REMARK  7 active torsions:
REMARK  status: ('A' for Active; 'I' for Inactive)
REMARK    1  A    between atoms: C_1  and  C_2
REMARK    2  A    between atoms: N_4  and  C_5
REMARK    3  A    between atoms: C_5  and  C_6
REMARK    4  A    between atoms: C_14  and  C_15
REMARK    5  A    between atoms: C_18  and  C_19
REMARK    6  A    between atoms: N_21  and  C_22
REMARK    7  A    between atoms: N_21  and  C_23
REMARK                            x       y       z     vdW  Elec       q    Type
REMARK                         _______ _______ _______ _____ _____    ______ ____
ROOT
ATOM      1  C   UNL     1       4.505   4.661  18.118  0.00  0.00    +0.000 C 
ATOM      2  O   UNL     1       4.125   3.983  19.342  0.00  0.00    +0.000 OA
ATOM      3  C   UNL     1       3.261   4.772  20.058  0.00  0.00    +0.000 C 
ATOM      4  O   UNL     1       2.876   4.467  21.173  0.00  0.00    +0.000 OA
ATOM      5  N   UNL     1       2.966   5.888  19.326  0.00  0.00    +0.000 N 
ATOM      6  C   UNL     1       2.192   7.014  19.650  0.00  0.00    +0.000 A 
ATOM      7  C   UNL     1       1.359   7.066  20.764  0.00  0.00    +0.000 A 
ATOM      8  C   UNL     1       0.554   8.194  20.988  0.00  0.00    +0.000 A 
ATOM      9  C   UNL     1       0.558   9.297  20.114  0.00  0.00    +0.000 A 
ATOM     10  C   UNL     1       1.435   9.237  19.012  0.00  0.00    +0.000 A 
ATOM     11  C   UNL     1       2.247   8.119  18.787  0.00  0.00    +0.000 A 
ATOM     12  O   UNL     1       3.067   8.182  17.675  0.00  0.00    +0.000 OA
ATOM     13  C   UNL     1       4.108   7.181  17.658  0.00  0.00    +0.000 C 
ATOM     14  C   UNL     1       3.534   5.822  18.015  0.00  0.00    +0.000 C 
ENDROOT
BRANCH   9  15
ATOM     15  C   UNL     1      -0.317  10.469  20.343  0.00  0.00    +0.000 A 
ATOM     16  C   UNL     1      -1.088  11.035  19.321  0.00  0.00    +0.000 A 
ATOM     17  C   UNL     1      -1.892  12.149  19.569  0.00  0.00    +0.000 A 
ATOM     18  C   UNL     1      -1.910  12.699  20.846  0.00  0.00    +0.000 A 
ATOM     19  N   UNL     1      -1.187  12.186  21.871  0.00  0.00    +0.000 NA
ATOM     20  C   UNL     1      -0.430  11.091  21.593  0.00  0.00    +0.000 A 
BRANCH  18  21
ATOM     21  C   UNL     1      -2.677  13.976  21.052  0.00  0.00    +0.000 C 
ATOM     22  O   UNL     1      -2.079  15.027  20.802  0.00  0.00    +0.000 OA
ATOM     23  N   UNL     1      -4.001  13.980  21.502  0.00  0.00    +0.000 N 
ATOM     24  C   UNL     1      -4.805  12.797  21.760  0.00  0.00    +0.000 C 
ATOM     25  C   UNL     1      -4.601  15.251  21.878  0.00  0.00    +0.000 C 
ENDBRANCH  18  21
ENDBRANCH   9  15
BRANCH   1  26
ATOM     26  C   UNL     1       4.325   3.670  16.960  0.00  0.00    +0.000 C 
BRANCH  26  30
ATOM     27  C   UNL     1       6.807   4.755  14.307  0.00  0.00    +0.000 C 
ATOM     28  C   UNL     1       6.331   4.339  15.674  0.00  0.00    +0.000 C 
ATOM     29  O   UNL     1       7.078   4.224  16.638  0.00  0.00    +0.000 OA
ATOM     30  N   UNL     1       4.980   4.097  15.735  0.00  0.00    +0.000 N 
ATOM     31  H   UNL     1       4.447   4.070  14.873  0.00  0.00    +0.000 HD
ENDBRANCH  26  30
ENDBRANCH   1  26
TORSDOF 4
ENDMDL
MODEL 9
REMARK VINA RESULT:      -7.4      3.096      4.439
REMARK  Name = 
REMARK  7 active torsions:
REMARK  status: ('A' for Active; 'I' for Inactive)
REMARK    1  A    between atoms: C_1  and  C_2
REMARK    2  A    between atoms: N_4  and  C_5
REMARK    3  A    between atoms: C_5  and  C_6
REMARK    4  A    between atoms: C_14  and  C_15
REMARK    5  A    between atoms: C_18  and  C_19
REMARK    6  A    between atoms: N_21  and  C_22
REMARK    7  A    between atoms: N_21  and  C_23
REMARK                            x       y       z     vdW  Elec       q    Type
REMARK                         _______ _______ _______ _____ _____    ______ ____
ROOT
ATOM      1  C   UNL     1       6.562   4.188  15.672  0.00  0.00    +0.000 C 
ATOM      2  O   UNL     1       5.685   3.098  16.050  0.00  0.00    +0.000 OA
ATOM      3  C   UNL     1       4.617   3.587  16.758  0.00  0.00    +0.000 C 
ATOM      4  O   UNL     1       3.789   2.856  17.273  0.00  0.00    +0.000 OA
ATOM      5  N   UNL     1       4.684   4.952  16.778  0.00  0.00    +0.000 N 
ATOM      6  C   UNL     1       3.871   5.897  17.424  0.00  0.00    +0.000 A 
ATOM      7  C   UNL     1       2.646   5.574  18.002  0.00  0.00    +0.000 A 
ATOM      8  C   UNL     1       1.848   6.581  18.565  0.00  0.00    +0.000 A 
ATOM      9  C   UNL     1       2.246   7.931  18.572  0.00  0.00    +0.000 A 
ATOM     10  C   UNL     1       3.505   8.230  18.014  0.00  0.00    +0.000 A 
ATOM     11  C   UNL     1       4.311   7.229  17.457  0.00  0.00    +0.000 A 
ATOM     12  O   UNL     1       5.526   7.648  16.945  0.00  0.00    +0.000 OA
ATOM     13  C   UNL     1       6.454   6.571  16.687  0.00  0.00    +0.000 C 
ATOM     14  C   UNL     1       5.752   5.438  15.960  0.00  0.00    +0.000 C 
ENDROOT
BRANCH   9  15
ATOM     15  C   UNL     1       1.382   8.990  19.143  0.00  0.00    +0.000 A 
ATOM     16  C   UNL     1       0.674   8.811  20.336  0.00  0.00    +0.000 A 
ATOM     17  C   UNL     1      -0.143   9.827  20.839  0.00  0.00    +0.000 A 
ATOM     18  C   UNL     1      -0.252  11.018  20.132  0.00  0.00    +0.000 A 
ATOM     19  N   UNL     1       0.417  11.244  18.975  0.00  0.00    +0.000 NA
ATOM     20  C   UNL     1       1.215  10.238  18.527  0.00  0.00    +0.000 A 
BRANCH  18  21
ATOM     21  C   UNL     1      -1.240  12.041  20.622  0.00  0.00    +0.000 C 
ATOM     22  O   UNL     1      -0.930  12.664  21.642  0.00  0.00    +0.000 OA
ATOM     23  N   UNL     1      -2.448  12.281  19.959  0.00  0.00    +0.000 N 
ATOM     24  C   UNL     1      -2.868  11.646  18.720  0.00  0.00    +0.000 C 
ATOM     25  C   UNL     1      -3.438  13.126  20.608  0.00  0.00    +0.000 C 
ENDBRANCH  18  21
ENDBRANCH   9  15
BRANCH   1  26
ATOM     26  C   UNL     1       6.867   4.044  14.175  0.00  0.00    +0.000 C 
BRANCH  26  30
ATOM     27  C   UNL     1       4.328   3.194  11.490  0.00  0.00    +0.000 C 
ATOM     28  C   UNL     1       5.673   3.226  12.167  0.00  0.00    +0.000 C 
ATOM     29  O   UNL     1       6.671   2.689  11.702  0.00  0.00    +0.000 OA
ATOM     30  N   UNL     1       5.673   3.911  13.359  0.00  0.00    +0.000 N 
ATOM     31  H   UNL     1       4.787   4.205  13.755  0.00  0.00    +0.000 HD
ENDBRANCH  26  30
ENDBRANCH   1  26
TORSDOF 4
ENDMDL
