MODEL 1
REMARK VINA RESULT:      -8.0      0.000      0.000
REMARK  Name = 
REMARK  8 active torsions:
REMARK  status: ('A' for Active; 'I' for Inactive)
REMARK    1  A    between atoms: C_1  and  O_2
REMARK    2  A    between atoms: O_2  and  C_3
REMARK    3  A    between atoms: C_5  and  N_6
REMARK    4  A    between atoms: N_6  and  S_7
REMARK    5  A    between atoms: S_7  and  C_10
REMARK    6  A    between atoms: C_10  and  C_11
REMARK    7  A    between atoms: C_20  and  C_21
REMARK    8  A    between atoms: C_26  and  C_27
REMARK                            x       y       z     vdW  Elec       q    Type
REMARK                         _______ _______ _______ _____ _____    ______ ____
ROOT
ATOM      1  C   UNL     1       1.007   8.797  20.292  0.00  0.00    +0.000 A 
ATOM      2  C   UNL     1       1.728   7.611  20.524  0.00  0.00    +0.000 A 
ATOM      3  C   UNL     1       2.548   7.067  19.539  0.00  0.00    +0.000 A 
ATOM      4  C   UNL     1       2.650   7.694  18.311  0.00  0.00    +0.000 A 
ATOM      5  C   UNL     1       1.923   8.868  18.069  0.00  0.00    +0.000 A 
ATOM      6  C   UNL     1       1.130   9.494  19.058  0.00  0.00    +0.000 A 
ENDROOT
BRANCH   6   7
ATOM      7  C   UNL     1       0.471  10.813  18.777  0.00  0.00    +0.000 A 
ATOM      8  C   UNL     1       1.140  12.021  18.975  0.00  0.00    +0.000 A 
ATOM      9  N   UNL     1       0.646  13.260  18.734  0.00  0.00    +0.000 NA
ATOM     10  C   UNL     1      -0.601  13.296  18.267  0.00  0.00    +0.000 A 
ATOM     11  N   UNL     1      -1.376  12.231  18.049  0.00  0.00    +0.000 NA
ATOM     12  C   UNL     1      -0.837  11.003  18.296  0.00  0.00    +0.000 A 
ATOM     13  C   UNL     1      -1.799   9.890  17.991  0.00  0.00    +0.000 C 
ENDBRANCH   6   7
BRANCH   1  15
ATOM     14  C   UNL     1       0.779   9.434  22.577  0.00  0.00    +0.000 C 
ATOM     15  O   UNL     1       0.202   9.333  21.273  0.00  0.00    +0.000 OA
ENDBRANCH   1  15
BRANCH   3  16
ATOM     16  N   UNL     1       3.345   5.903  19.831  0.00  0.00    +0.000 N 
ATOM     17  H   UNL     1       4.026   5.753  19.085  0.00  0.00    +0.000 HD
BRANCH  16  18
ATOM     18  S   UNL     1       2.401   4.472  19.979  0.00  0.00    +0.000 S 
ATOM     19  O   UNL     1       2.014   4.342  21.366  0.00  0.00    +0.000 OA
ATOM     20  O   UNL     1       1.433   4.523  18.899  0.00  0.00    +0.000 OA
BRANCH  18  21
ATOM     21  C   UNL     1       3.637   3.221  19.582  0.00  0.00    +0.000 C 
BRANCH  21  22
ATOM     22  C   UNL     1       4.484   3.736  18.446  0.00  0.00    +0.000 A 
ATOM     23  C   UNL     1       4.049   3.619  17.117  0.00  0.00    +0.000 A 
ATOM     24  C   UNL     1       4.877   4.016  16.063  0.00  0.00    +0.000 A 
ATOM     25  C   UNL     1       6.141   4.534  16.332  0.00  0.00    +0.000 A 
ATOM     26 CL   UNL     1       7.177   4.982  15.034  0.00  0.00    +0.000 Cl
ATOM     27  C   UNL     1       6.578   4.675  17.647  0.00  0.00    +0.000 A 
ATOM     28  C   UNL     1       5.752   4.280  18.701  0.00  0.00    +0.000 A 
ENDBRANCH  21  22
ENDBRANCH  18  21
ENDBRANCH  16  18
ENDBRANCH   3  16
TORSDOF 6
ENDMDL
MODEL 2
REMARK VINA RESULT:      -7.7      1.181      1.318
REMARK  Name = 
REMARK  8 active torsions:
REMARK  status: ('A' for Active; 'I' for Inactive)
REMARK    1  A    between atoms: C_1  and  O_2
REMARK    2  A    between atoms: O_2  and  C_3
REMARK    3  A    between atoms: C_5  and  N_6
REMARK    4  A    between atoms: N_6  and  S_7
REMARK    5  A    between atoms: S_7  and  C_10
REMARK    6  A    between atoms: C_10  and  C_11
REMARK    7  A    between atoms: C_20  and  C_21
REMARK    8  A    between atoms: C_26  and  C_27
REMARK                            x       y       z     vdW  Elec       q    Type
REMARK                         _______ _______ _______ _____ _____    ______ ____
ROOT
ATOM      1  C   UNL     1       0.877   8.793  20.368  0.00  0.00    +0.000 A 
ATOM      2  C   UNL     1       1.524   7.564  20.596  0.00  0.00    +0.000 A 
ATOM      3  C   UNL     1       2.368   7.011  19.637  0.00  0.00    +0.000 A 
ATOM      4  C   UNL     1       2.567   7.671  18.438  0.00  0.00    +0.000 A 
ATOM      5  C   UNL     1       1.913   8.889  18.199  0.00  0.00    +0.000 A 
ATOM      6  C   UNL     1       1.101   9.522  19.167  0.00  0.00    +0.000 A 
ENDROOT
BRANCH   6   7
ATOM      7  C   UNL     1       0.525  10.882  18.899  0.00  0.00    +0.000 A 
ATOM      8  C   UNL     1       1.258  12.046  19.133  0.00  0.00    +0.000 A 
ATOM      9  N   UNL     1       0.842  13.315  18.907  0.00  0.00    +0.000 NA
ATOM     10  C   UNL     1      -0.391  13.432  18.416  0.00  0.00    +0.000 A 
ATOM     11  N   UNL     1      -1.222  12.418  18.163  0.00  0.00    +0.000 NA
ATOM     12  C   UNL     1      -0.760  11.157  18.396  0.00  0.00    +0.000 A 
ATOM     13  C   UNL     1      -1.778  10.107  18.052  0.00  0.00    +0.000 C 
ENDBRANCH   6   7
BRANCH   1  15
ATOM     14  C   UNL     1       0.555   9.355  22.662  0.00  0.00    +0.000 C 
ATOM     15  O   UNL     1       0.049   9.339  21.325  0.00  0.00    +0.000 OA
ENDBRANCH   1  15
BRANCH   3  16
ATOM     16  N   UNL     1       3.088   5.798  19.928  0.00  0.00    +0.000 N 
ATOM     17  H   UNL     1       4.062   5.895  19.638  0.00  0.00    +0.000 HD
BRANCH  16  18
ATOM     18  S   UNL     1       2.432   4.427  19.122  0.00  0.00    +0.000 S 
ATOM     19  O   UNL     1       1.903   3.535  20.131  0.00  0.00    +0.000 OA
ATOM     20  O   UNL     1       1.622   4.953  18.041  0.00  0.00    +0.000 OA
BRANCH  18  21
ATOM     21  C   UNL     1       3.932   3.711  18.419  0.00  0.00    +0.000 C 
BRANCH  21  22
ATOM     22  C   UNL     1       4.924   4.824  18.191  0.00  0.00    +0.000 A 
ATOM     23  C   UNL     1       4.835   5.641  17.054  0.00  0.00    +0.000 A 
ATOM     24  C   UNL     1       5.810   6.610  16.802  0.00  0.00    +0.000 A 
ATOM     25  C   UNL     1       6.875   6.769  17.685  0.00  0.00    +0.000 A 
ATOM     26 CL   UNL     1       8.097   7.933  17.353  0.00  0.00    +0.000 Cl
ATOM     27  C   UNL     1       6.964   5.980  18.828  0.00  0.00    +0.000 A 
ATOM     28  C   UNL     1       5.991   5.011  19.082  0.00  0.00    +0.000 A 
ENDBRANCH  21  22
ENDBRANCH  18  21
ENDBRANCH  16  18
ENDBRANCH   3  16
TORSDOF 6
ENDMDL
MODEL 3
REMARK VINA RESULT:      -7.6      1.308      1.654
REMARK  Name = 
REMARK  8 active torsions:
REMARK  status: ('A' for Active; 'I' for Inactive)
REMARK    1  A    between atoms: C_1  and  O_2
REMARK    2  A    between atoms: O_2  and  C_3
REMARK    3  A    between atoms: C_5  and  N_6
REMARK    4  A    between atoms: N_6  and  S_7
REMARK    5  A    between atoms: S_7  and  C_10
REMARK    6  A    between atoms: C_10  and  C_11
REMARK    7  A    between atoms: C_20  and  C_21
REMARK    8  A    between atoms: C_26  and  C_27
REMARK                            x       y       z     vdW  Elec       q    Type
REMARK                         _______ _______ _______ _____ _____    ______ ____
ROOT
ATOM      1  C   UNL     1       0.748   8.601  20.684  0.00  0.00    +0.000 A 
ATOM      2  C   UNL     1       1.513   7.420  20.714  0.00  0.00    +0.000 A 
ATOM      3  C   UNL     1       2.371   7.096  19.667  0.00  0.00    +0.000 A 
ATOM      4  C   UNL     1       2.469   7.941  18.576  0.00  0.00    +0.000 A 
ATOM      5  C   UNL     1       1.698   9.112  18.534  0.00  0.00    +0.000 A 
ATOM      6  C   UNL     1       0.864   9.516  19.601  0.00  0.00    +0.000 A 
ENDROOT
BRANCH   6   7
ATOM      7  C   UNL     1       0.157  10.839  19.550  0.00  0.00    +0.000 A 
ATOM      8  C   UNL     1       0.676  11.971  20.180  0.00  0.00    +0.000 A 
ATOM      9  N   UNL     1       0.131  13.211  20.178  0.00  0.00    +0.000 NA
ATOM     10  C   UNL     1      -1.011  13.331  19.504  0.00  0.00    +0.000 A 
ATOM     11  N   UNL     1      -1.643  12.339  18.872  0.00  0.00    +0.000 NA
ATOM     12  C   UNL     1      -1.056  11.109  18.891  0.00  0.00    +0.000 A 
ATOM     13  C   UNL     1      -1.851  10.089  18.128  0.00  0.00    +0.000 C 
ENDBRANCH   6   7
BRANCH   1  15
ATOM     14  C   UNL     1       0.529   9.432  22.908  0.00  0.00    +0.000 C 
ATOM     15  O   UNL     1      -0.094   8.919  21.727  0.00  0.00    +0.000 OA
ENDBRANCH   1  15
BRANCH   3  16
ATOM     16  N   UNL     1       3.209   5.928  19.760  0.00  0.00    +0.000 N 
ATOM     17  H   UNL     1       4.078   6.083  19.247  0.00  0.00    +0.000 HD
BRANCH  16  18
ATOM     18  S   UNL     1       2.460   4.520  19.115  0.00  0.00    +0.000 S 
ATOM     19  O   UNL     1       1.956   3.742  20.225  0.00  0.00    +0.000 OA
ATOM     20  O   UNL     1       1.610   4.984  18.035  0.00  0.00    +0.000 OA
BRANCH  18  21
ATOM     21  C   UNL     1       3.891   3.686  18.400  0.00  0.00    +0.000 C 
BRANCH  21  22
ATOM     22  C   UNL     1       4.950   4.721  18.118  0.00  0.00    +0.000 A 
ATOM     23  C   UNL     1       6.043   4.883  18.983  0.00  0.00    +0.000 A 
ATOM     24  C   UNL     1       6.971   5.905  18.766  0.00  0.00    +0.000 A 
ATOM     25  C   UNL     1       6.815   6.766  17.683  0.00  0.00    +0.000 A 
ATOM     26 CL   UNL     1       7.934   8.049  17.439  0.00  0.00    +0.000 Cl
ATOM     27  C   UNL     1       5.747   6.604  16.804  0.00  0.00    +0.000 A 
ATOM     28  C   UNL     1       4.818   5.584  17.020  0.00  0.00    +0.000 A 
ENDBRANCH  21  22
ENDBRANCH  18  21
ENDBRANCH  16  18
ENDBRANCH   3  16
TORSDOF 6
ENDMDL
MODEL 4
REMARK VINA RESULT:      -7.5      0.425      1.322
REMARK  Name = 
REMARK  8 active torsions:
REMARK  status: ('A' for Active; 'I' for Inactive)
REMARK    1  A    between atoms: C_1  and  O_2
REMARK    2  A    between atoms: O_2  and  C_3
REMARK    3  A    between atoms: C_5  and  N_6
REMARK    4  A    between atoms: N_6  and  S_7
REMARK    5  A    between atoms: S_7  and  C_10
REMARK    6  A    between atoms: C_10  and  C_11
REMARK    7  A    between atoms: C_20  and  C_21
REMARK    8  A    between atoms: C_26  and  C_27
REMARK                            x       y       z     vdW  Elec       q    Type
REMARK                         _______ _______ _______ _____ _____    ______ ____
ROOT
ATOM      1  C   UNL     1       0.883   8.621  20.326  0.00  0.00    +0.000 A 
ATOM      2  C   UNL     1       1.690   7.492  20.562  0.00  0.00    +0.000 A 
ATOM      3  C   UNL     1       2.550   7.009  19.579  0.00  0.00    +0.000 A 
ATOM      4  C   UNL     1       2.606   7.640  18.350  0.00  0.00    +0.000 A 
ATOM      5  C   UNL     1       1.793   8.756  18.104  0.00  0.00    +0.000 A 
ATOM      6  C   UNL     1       0.955   9.323  19.091  0.00  0.00    +0.000 A 
ENDROOT
BRANCH   6   7
ATOM      7  C   UNL     1       0.200  10.588  18.807  0.00  0.00    +0.000 A 
ATOM      8  C   UNL     1      -1.014  10.577  18.119  0.00  0.00    +0.000 A 
ATOM      9  N   UNL     1      -1.782  11.655  17.830  0.00  0.00    +0.000 NA
ATOM     10  C   UNL     1      -1.306  12.824  18.254  0.00  0.00    +0.000 A 
ATOM     11  N   UNL     1      -0.152  13.000  18.902  0.00  0.00    +0.000 NA
ATOM     12  C   UNL     1       0.586  11.888  19.180  0.00  0.00    +0.000 A 
ATOM     13  C   UNL     1       1.846  12.217  19.929  0.00  0.00    +0.000 C 
ENDBRANCH   6   7
BRANCH   1  15
ATOM     14  C   UNL     1       0.663   9.543  22.513  0.00  0.00    +0.000 C 
ATOM     15  O   UNL     1       0.040   9.098  21.306  0.00  0.00    +0.000 OA
ENDBRANCH   1  15
BRANCH   3  16
ATOM     16  N   UNL     1       3.431   5.908  19.874  0.00  0.00    +0.000 N 
ATOM     17  H   UNL     1       4.099   5.785  19.112  0.00  0.00    +0.000 HD
BRANCH  16  18
ATOM     18  S   UNL     1       2.589   4.422  20.083  0.00  0.00    +0.000 S 
ATOM     19  O   UNL     1       2.248   4.303  21.483  0.00  0.00    +0.000 OA
ATOM     20  O   UNL     1       1.593   4.379  19.029  0.00  0.00    +0.000 OA
BRANCH  18  21
ATOM     21  C   UNL     1       3.897   3.246  19.684  0.00  0.00    +0.000 C 
BRANCH  21  22
ATOM     22  C   UNL     1       4.656   3.770  18.491  0.00  0.00    +0.000 A 
ATOM     23  C   UNL     1       4.149   3.609  17.192  0.00  0.00    +0.000 A 
ATOM     24  C   UNL     1       4.899   4.015  16.085  0.00  0.00    +0.000 A 
ATOM     25  C   UNL     1       6.156   4.585  16.270  0.00  0.00    +0.000 A 
ATOM     26 CL   UNL     1       7.097   5.045  14.905  0.00  0.00    +0.000 Cl
ATOM     27  C   UNL     1       6.663   4.770  17.553  0.00  0.00    +0.000 A 
ATOM     28  C   UNL     1       5.915   4.365  18.661  0.00  0.00    +0.000 A 
ENDBRANCH  21  22
ENDBRANCH  18  21
ENDBRANCH  16  18
ENDBRANCH   3  16
TORSDOF 6
ENDMDL
MODEL 5
REMARK VINA RESULT:      -7.4      0.787      1.191
REMARK  Name = 
REMARK  8 active torsions:
REMARK  status: ('A' for Active; 'I' for Inactive)
REMARK    1  A    between atoms: C_1  and  O_2
REMARK    2  A    between atoms: O_2  and  C_3
REMARK    3  A    between atoms: C_5  and  N_6
REMARK    4  A    between atoms: N_6  and  S_7
REMARK    5  A    between atoms: S_7  and  C_10
REMARK    6  A    between atoms: C_10  and  C_11
REMARK    7  A    between atoms: C_20  and  C_21
REMARK    8  A    between atoms: C_26  and  C_27
REMARK                            x       y       z     vdW  Elec       q    Type
REMARK                         _______ _______ _______ _____ _____    ______ ____
ROOT
ATOM      1  C   UNL     1       1.025   8.939  20.552  0.00  0.00    +0.000 A 
ATOM      2  C   UNL     1       1.654   7.713  20.841  0.00  0.00    +0.000 A 
ATOM      3  C   UNL     1       2.324   7.002  19.850  0.00  0.00    +0.000 A 
ATOM      4  C   UNL     1       2.367   7.500  18.561  0.00  0.00    +0.000 A 
ATOM      5  C   UNL     1       1.730   8.713  18.264  0.00  0.00    +0.000 A 
ATOM      6  C   UNL     1       1.094   9.503  19.248  0.00  0.00    +0.000 A 
ENDROOT
BRANCH   6   7
ATOM      7  C   UNL     1       0.535  10.850  18.894  0.00  0.00    +0.000 A 
ATOM      8  C   UNL     1       1.293  12.014  19.024  0.00  0.00    +0.000 A 
ATOM      9  N   UNL     1       0.893  13.271  18.714  0.00  0.00    +0.000 NA
ATOM     10  C   UNL     1      -0.349  13.374  18.244  0.00  0.00    +0.000 A 
ATOM     11  N   UNL     1      -1.202  12.359  18.085  0.00  0.00    +0.000 NA
ATOM     12  C   UNL     1      -0.756  11.111  18.400  0.00  0.00    +0.000 A 
ATOM     13  C   UNL     1      -1.800  10.058  18.157  0.00  0.00    +0.000 C 
ENDBRANCH   6   7
BRANCH   1  15
ATOM     14  C   UNL     1      -0.452   8.872  22.422  0.00  0.00    +0.000 C 
ATOM     15  O   UNL     1       0.369   9.641  21.540  0.00  0.00    +0.000 OA
ENDBRANCH   1  15
BRANCH   3  16
ATOM     16  N   UNL     1       3.035   5.795  20.188  0.00  0.00    +0.000 N 
ATOM     17  H   UNL     1       3.660   5.536  19.424  0.00  0.00    +0.000 HD
BRANCH  16  18
ATOM     18  S   UNL     1       1.984   4.466  20.485  0.00  0.00    +0.000 S 
ATOM     19  O   UNL     1       2.325   3.916  21.779  0.00  0.00    +0.000 OA
ATOM     20  O   UNL     1       0.650   4.937  20.163  0.00  0.00    +0.000 OA
BRANCH  18  21
ATOM     21  C   UNL     1       2.519   3.329  19.192  0.00  0.00    +0.000 C 
BRANCH  21  22
ATOM     22  C   UNL     1       3.735   3.916  18.520  0.00  0.00    +0.000 A 
ATOM     23  C   UNL     1       4.955   4.018  19.207  0.00  0.00    +0.000 A 
ATOM     24  C   UNL     1       6.052   4.645  18.611  0.00  0.00    +0.000 A 
ATOM     25  C   UNL     1       5.937   5.171  17.326  0.00  0.00    +0.000 A 
ATOM     26 CL   UNL     1       7.275   5.980  16.609  0.00  0.00    +0.000 Cl
ATOM     27  C   UNL     1       4.740   5.058  16.625  0.00  0.00    +0.000 A 
ATOM     28  C   UNL     1       3.642   4.432  17.218  0.00  0.00    +0.000 A 
ENDBRANCH  21  22
ENDBRANCH  18  21
ENDBRANCH  16  18
ENDBRANCH   3  16
TORSDOF 6
ENDMDL
MODEL 6
REMARK VINA RESULT:      -7.4      1.236      2.042
REMARK  Name = 
REMARK  8 active torsions:
REMARK  status: ('A' for Active; 'I' for Inactive)
REMARK    1  A    between atoms: C_1  and  O_2
REMARK    2  A    between atoms: O_2  and  C_3
REMARK    3  A    between atoms: C_5  and  N_6
REMARK    4  A    between atoms: N_6  and  S_7
REMARK    5  A    between atoms: S_7  and  C_10
REMARK    6  A    between atoms: C_10  and  C_11
REMARK    7  A    between atoms: C_20  and  C_21
REMARK    8  A    between atoms: C_26  and  C_27
REMARK                            x       y       z     vdW  Elec       q    Type
REMARK                         _______ _______ _______ _____ _____    ______ ____
ROOT
ATOM      1  C   UNL     1       0.843   8.565  20.404  0.00  0.00    +0.000 A 
ATOM      2  C   UNL     1       1.643   7.418  20.561  0.00  0.00    +0.000 A 
ATOM      3  C   UNL     1       2.517   7.012  19.557  0.00  0.00    +0.000 A 
ATOM      4  C   UNL     1       2.595   7.738  18.383  0.00  0.00    +0.000 A 
ATOM      5  C   UNL     1       1.789   8.873  18.214  0.00  0.00    +0.000 A 
ATOM      6  C   UNL     1       0.936   9.362  19.229  0.00  0.00    +0.000 A 
ENDROOT
BRANCH   6   7
ATOM      7  C   UNL     1       0.188  10.649  19.035  0.00  0.00    +0.000 A 
ATOM      8  C   UNL     1      -0.988  10.706  18.287  0.00  0.00    +0.000 A 
ATOM      9  N   UNL     1      -1.747  11.806  18.068  0.00  0.00    +0.000 NA
ATOM     10  C   UNL     1      -1.302  12.928  18.633  0.00  0.00    +0.000 A 
ATOM     11  N   UNL     1      -0.184  13.038  19.356  0.00  0.00    +0.000 NA
ATOM     12  C   UNL     1       0.545  11.905  19.559  0.00  0.00    +0.000 A 
ATOM     13  C   UNL     1       1.762  12.158  20.403  0.00  0.00    +0.000 C 
ENDBRANCH   6   7
BRANCH   1  15
ATOM     14  C   UNL     1       0.595   9.381  22.629  0.00  0.00    +0.000 C 
ATOM     15  O   UNL     1      -0.015   8.965  21.405  0.00  0.00    +0.000 OA
ENDBRANCH   1  15
BRANCH   3  16
ATOM     16  N   UNL     1       3.391   5.888  19.777  0.00  0.00    +0.000 N 
ATOM     17  H   UNL     1       4.254   6.010  19.245  0.00  0.00    +0.000 HD
BRANCH  16  18
ATOM     18  S   UNL     1       2.683   4.394  19.300  0.00  0.00    +0.000 S 
ATOM     19  O   UNL     1       2.357   3.658  20.501  0.00  0.00    +0.000 OA
ATOM     20  O   UNL     1       1.693   4.728  18.294  0.00  0.00    +0.000 OA
BRANCH  18  21
ATOM     21  C   UNL     1       4.089   3.612  18.483  0.00  0.00    +0.000 C 
BRANCH  21  22
ATOM     22  C   UNL     1       5.110   4.678  18.176  0.00  0.00    +0.000 A 
ATOM     23  C   UNL     1       6.198   4.896  19.034  0.00  0.00    +0.000 A 
ATOM     24  C   UNL     1       7.090   5.945  18.793  0.00  0.00    +0.000 A 
ATOM     25  C   UNL     1       6.902   6.777  17.692  0.00  0.00    +0.000 A 
ATOM     26 CL   UNL     1       7.975   8.093  17.419  0.00  0.00    +0.000 Cl
ATOM     27  C   UNL     1       5.839   6.558  16.820  0.00  0.00    +0.000 A 
ATOM     28  C   UNL     1       4.946   5.511  17.059  0.00  0.00    +0.000 A 
ENDBRANCH  21  22
ENDBRANCH  18  21
ENDBRANCH  16  18
ENDBRANCH   3  16
TORSDOF 6
ENDMDL
MODEL 7
REMARK VINA RESULT:      -7.3      0.469      1.648
REMARK  Name = 
REMARK  8 active torsions:
REMARK  status: ('A' for Active; 'I' for Inactive)
REMARK    1  A    between atoms: C_1  and  O_2
REMARK    2  A    between atoms: O_2  and  C_3
REMARK    3  A    between atoms: C_5  and  N_6
REMARK    4  A    between atoms: N_6  and  S_7
REMARK    5  A    between atoms: S_7  and  C_10
REMARK    6  A    between atoms: C_10  and  C_11
REMARK    7  A    between atoms: C_20  and  C_21
REMARK    8  A    between atoms: C_26  and  C_27
REMARK                            x       y       z     vdW  Elec       q    Type
REMARK                         _______ _______ _______ _____ _____    ______ ____
ROOT
ATOM      1  C   UNL     1       1.128   8.866  20.252  0.00  0.00    +0.000 A 
ATOM      2  C   UNL     1       1.896   7.707  20.469  0.00  0.00    +0.000 A 
ATOM      3  C   UNL     1       2.562   7.082  19.418  0.00  0.00    +0.000 A 
ATOM      4  C   UNL     1       2.463   7.601  18.141  0.00  0.00    +0.000 A 
ATOM      5  C   UNL     1       1.687   8.748  17.915  0.00  0.00    +0.000 A 
ATOM      6  C   UNL     1       1.047   9.454  18.959  0.00  0.00    +0.000 A 
ENDROOT
BRANCH   6   7
ATOM      7  C   UNL     1       0.331  10.742  18.674  0.00  0.00    +0.000 A 
ATOM      8  C   UNL     1      -1.029  10.770  18.364  0.00  0.00    +0.000 A 
ATOM      9  N   UNL     1      -1.772  11.874  18.111  0.00  0.00    +0.000 NA
ATOM     10  C   UNL     1      -1.113  13.030  18.169  0.00  0.00    +0.000 A 
ATOM     11  N   UNL     1       0.190  13.165  18.429  0.00  0.00    +0.000 NA
ATOM     12  C   UNL     1       0.898  12.029  18.686  0.00  0.00    +0.000 A 
ATOM     13  C   UNL     1       2.342  12.317  18.983  0.00  0.00    +0.000 C 
ENDBRANCH   6   7
BRANCH   1  15
ATOM     14  C   UNL     1      -0.450   8.675  22.028  0.00  0.00    +0.000 C 
ATOM     15  O   UNL     1       0.477   9.483  21.297  0.00  0.00    +0.000 OA
ENDBRANCH   1  15
BRANCH   3  16
ATOM     16  N   UNL     1       3.414   5.950  19.680  0.00  0.00    +0.000 N 
ATOM     17  H   UNL     1       4.016   5.776  18.874  0.00  0.00    +0.000 HD
BRANCH  16  18
ATOM     18  S   UNL     1       2.525   4.511  19.996  0.00  0.00    +0.000 S 
ATOM     19  O   UNL     1       2.130   4.535  21.387  0.00  0.00    +0.000 OA
ATOM     20  O   UNL     1       1.567   4.390  18.913  0.00  0.00    +0.000 OA
BRANCH  18  21
ATOM     21  C   UNL     1       3.815   3.272  19.761  0.00  0.00    +0.000 C 
BRANCH  21  22
ATOM     22  C   UNL     1       4.652   3.680  18.576  0.00  0.00    +0.000 A 
ATOM     23  C   UNL     1       5.889   4.318  18.758  0.00  0.00    +0.000 A 
ATOM     24  C   UNL     1       6.617   4.776  17.656  0.00  0.00    +0.000 A 
ATOM     25  C   UNL     1       6.116   4.595  16.369  0.00  0.00    +0.000 A 
ATOM     26 CL   UNL     1       6.993   5.195  15.016  0.00  0.00    +0.000 Cl
ATOM     27  C   UNL     1       4.901   3.944  16.173  0.00  0.00    +0.000 A 
ATOM     28  C   UNL     1       4.172   3.486  17.272  0.00  0.00    +0.000 A 
ENDBRANCH  21  22
ENDBRANCH  18  21
ENDBRANCH  16  18
ENDBRANCH   3  16
TORSDOF 6
ENDMDL
MODEL 8
REMARK VINA RESULT:      -7.1      1.209      1.454
REMARK  Name = 
REMARK  8 active torsions:
REMARK  status: ('A' for Active; 'I' for Inactive)
REMARK    1  A    between atoms: C_1  and  O_2
REMARK    2  A    between atoms: O_2  and  C_3
REMARK    3  A    between atoms: C_5  and  N_6
REMARK    4  A    between atoms: N_6  and  S_7
REMARK    5  A    between atoms: S_7  and  C_10
REMARK    6  A    between atoms: C_10  and  C_11
REMARK    7  A    between atoms: C_20  and  C_21
REMARK    8  A    between atoms: C_26  and  C_27
REMARK                            x       y       z     vdW  Elec       q    Type
REMARK                         _______ _______ _______ _____ _____    ______ ____
ROOT
ATOM      1  C   UNL     1       0.584   8.896  20.549  0.00  0.00    +0.000 A 
ATOM      2  C   UNL     1       1.191   7.670  20.881  0.00  0.00    +0.000 A 
ATOM      3  C   UNL     1       2.130   7.084  20.037  0.00  0.00    +0.000 A 
ATOM      4  C   UNL     1       2.465   7.708  18.849  0.00  0.00    +0.000 A 
ATOM      5  C   UNL     1       1.852   8.921  18.505  0.00  0.00    +0.000 A 
ATOM      6  C   UNL     1       0.945   9.588  19.360  0.00  0.00    +0.000 A 
ENDROOT
BRANCH   6   7
ATOM      7  C   UNL     1       0.414  10.943  18.992  0.00  0.00    +0.000 A 
ATOM      8  C   UNL     1       1.134  12.108  19.259  0.00  0.00    +0.000 A 
ATOM      9  N   UNL     1       0.757  13.372  18.951  0.00  0.00    +0.000 NA
ATOM     10  C   UNL     1      -0.420  13.483  18.337  0.00  0.00    +0.000 A 
ATOM     11  N   UNL     1      -1.233  12.467  18.035  0.00  0.00    +0.000 NA
ATOM     12  C   UNL     1      -0.811  11.211  18.354  0.00  0.00    +0.000 A 
ATOM     13  C   UNL     1      -1.802  10.159  17.945  0.00  0.00    +0.000 C 
ENDBRANCH   6   7
BRANCH   1  15
ATOM     14  C   UNL     1       0.153   9.907  22.664  0.00  0.00    +0.000 C 
ATOM     15  O   UNL     1      -0.339   9.474  21.393  0.00  0.00    +0.000 OA
ENDBRANCH   1  15
BRANCH   3  16
ATOM     16  N   UNL     1       2.803   5.876  20.440  0.00  0.00    +0.000 N 
ATOM     17  H   UNL     1       3.667   6.108  20.932  0.00  0.00    +0.000 HD
BRANCH  16  18
ATOM     18  S   UNL     1       3.209   4.866  19.107  0.00  0.00    +0.000 S 
ATOM     19  O   UNL     1       3.434   3.532  19.618  0.00  0.00    +0.000 OA
ATOM     20  O   UNL     1       2.228   5.155  18.078  0.00  0.00    +0.000 OA
BRANCH  18  21
ATOM     21  C   UNL     1       4.785   5.592  18.615  0.00  0.00    +0.000 C 
BRANCH  21  22
ATOM     22  C   UNL     1       5.086   5.157  17.203  0.00  0.00    +0.000 A 
ATOM     23  C   UNL     1       5.411   3.821  16.918  0.00  0.00    +0.000 A 
ATOM     24  C   UNL     1       5.777   3.443  15.624  0.00  0.00    +0.000 A 
ATOM     25  C   UNL     1       5.818   4.395  14.608  0.00  0.00    +0.000 A 
ATOM     26 CL   UNL     1       6.310   3.938  13.025  0.00  0.00    +0.000 Cl
ATOM     27  C   UNL     1       5.478   5.719  14.872  0.00  0.00    +0.000 A 
ATOM     28  C   UNL     1       5.111   6.099  16.165  0.00  0.00    +0.000 A 
ENDBRANCH  21  22
ENDBRANCH  18  21
ENDBRANCH  16  18
ENDBRANCH   3  16
TORSDOF 6
ENDMDL
MODEL 9
REMARK VINA RESULT:      -7.1      1.689      2.369
REMARK  Name = 
REMARK  8 active torsions:
REMARK  status: ('A' for Active; 'I' for Inactive)
REMARK    1  A    between atoms: C_1  and  O_2
REMARK    2  A    between atoms: O_2  and  C_3
REMARK    3  A    between atoms: C_5  and  N_6
REMARK    4  A    between atoms: N_6  and  S_7
REMARK    5  A    between atoms: S_7  and  C_10
REMARK    6  A    between atoms: C_10  and  C_11
REMARK    7  A    between atoms: C_20  and  C_21
REMARK    8  A    between atoms: C_26  and  C_27
REMARK                            x       y       z     vdW  Elec       q    Type
REMARK                         _______ _______ _______ _____ _____    ______ ____
ROOT
ATOM      1  C   UNL     1       1.634   9.186  18.699  0.00  0.00    +0.000 A 
ATOM      2  C   UNL     1       2.424   8.022  18.736  0.00  0.00    +0.000 A 
ATOM      3  C   UNL     1       2.322   7.120  19.792  0.00  0.00    +0.000 A 
ATOM      4  C   UNL     1       1.439   7.375  20.825  0.00  0.00    +0.000 A 
ATOM      5  C   UNL     1       0.661   8.541  20.802  0.00  0.00    +0.000 A 
ATOM      6  C   UNL     1       0.680   9.451  19.721  0.00  0.00    +0.000 A 
ENDROOT
BRANCH   6   7
ATOM      7  C   UNL     1      -0.263  10.618  19.697  0.00  0.00    +0.000 A 
ATOM      8  C   UNL     1      -0.144  11.674  20.601  0.00  0.00    +0.000 A 
ATOM      9  N   UNL     1      -0.926  12.779  20.651  0.00  0.00    +0.000 NA
ATOM     10  C   UNL     1      -1.896  12.833  19.739  0.00  0.00    +0.000 A 
ATOM     11  N   UNL     1      -2.152  11.893  18.826  0.00  0.00    +0.000 NA
ATOM     12  C   UNL     1      -1.335  10.802  18.804  0.00  0.00    +0.000 A 
ATOM     13  C   UNL     1      -1.713   9.833  17.721  0.00  0.00    +0.000 C 
ENDBRANCH   6   7
BRANCH   1  15
ATOM     14  C   UNL     1       2.437  11.288  17.913  0.00  0.00    +0.000 C 
ATOM     15  O   UNL     1       1.735  10.070  17.648  0.00  0.00    +0.000 OA
ENDBRANCH   1  15
BRANCH   3  16
ATOM     16  N   UNL     1       3.074   5.892  19.763  0.00  0.00    +0.000 N 
ATOM     17  H   UNL     1       3.972   6.046  19.302  0.00  0.00    +0.000 HD
BRANCH  16  18
ATOM     18  S   UNL     1       2.258   4.633  18.921  0.00  0.00    +0.000 S 
ATOM     19  O   UNL     1       1.620   3.787  19.905  0.00  0.00    +0.000 OA
ATOM     20  O   UNL     1       1.522   5.283  17.854  0.00  0.00    +0.000 OA
BRANCH  18  21
ATOM     21  C   UNL     1       3.661   3.758  18.200  0.00  0.00    +0.000 C 
BRANCH  21  22
ATOM     22  C   UNL     1       4.769   4.754  17.966  0.00  0.00    +0.000 A 
ATOM     23  C   UNL     1       5.866   4.823  18.839  0.00  0.00    +0.000 A 
ATOM     24  C   UNL     1       6.844   5.808  18.670  0.00  0.00    +0.000 A 
ATOM     25  C   UNL     1       6.732   6.724  17.627  0.00  0.00    +0.000 A 
ATOM     26 CL   UNL     1       7.912   7.962  17.445  0.00  0.00    +0.000 Cl
ATOM     27  C   UNL     1       5.660   6.654  16.741  0.00  0.00    +0.000 A 
ATOM     28  C   UNL     1       4.683   5.671  16.908  0.00  0.00    +0.000 A 
ENDBRANCH  21  22
ENDBRANCH  18  21
ENDBRANCH  16  18
ENDBRANCH   3  16
TORSDOF 6
ENDMDL
