MODEL 1
REMARK VINA RESULT:      -7.6      0.000      0.000
REMARK  Name = 
REMARK  5 active torsions:
REMARK  status: ('A' for Active; 'I' for Inactive)
REMARK    1  A    between atoms: C_1  and  C_2
REMARK    2  A    between atoms: C_2  and  N_3
REMARK    3  A    between atoms: N_10  and  C_11
REMARK    4  A    between atoms: C_14  and  C_15
REMARK    5  A    between atoms: C_15  and  O_17
REMARK                            x       y       z     vdW  Elec       q    Type
REMARK                         _______ _______ _______ _____ _____    ______ ____
ROOT
ATOM      1  N   UNL     1       6.843   5.865  17.741  0.00  0.00    +0.000 N 
ATOM      2  C   UNL     1       6.950   5.425  16.360  0.00  0.00    +0.000 C 
ATOM      3  C   UNL     1       5.570   5.307  15.733  0.00  0.00    +0.000 C 
ATOM      4  C   UNL     1       4.680   4.413  16.598  0.00  0.00    +0.000 C 
ATOM      5  C   UNL     1       4.648   4.864  18.069  0.00  0.00    +0.000 C 
ATOM      6  C   UNL     1       3.860   3.866  18.944  0.00  0.00    +0.000 C 
ATOM      7  C   UNL     1       3.105   4.758  19.931  0.00  0.00    +0.000 C 
ATOM      8  N   UNL     1       2.699   5.851  19.052  0.00  0.00    +0.000 N 
ATOM      9  C   UNL     1       3.884   6.204  18.254  0.00  0.00    +0.000 C 
ATOM     10  C   UNL     1       6.053   5.126  18.617  0.00  0.00    +0.000 C 
ATOM     11  O   UNL     1       6.361   4.915  19.786  0.00  0.00    +0.000 OA
ENDROOT
BRANCH   8  12
ATOM     12  C   UNL     1       2.071   6.960  19.624  0.00  0.00    +0.000 A 
ATOM     13  N   UNL     1       1.568   6.866  20.878  0.00  0.00    +0.000 NA
ATOM     14  C   UNL     1       0.984   7.968  21.424  0.00  0.00    +0.000 A 
ATOM     15  C   UNL     1       0.839   9.176  20.759  0.00  0.00    +0.000 A 
ATOM     16  C   UNL     1       1.362   9.281  19.474  0.00  0.00    +0.000 A 
ATOM     17  C   UNL     1       1.974   8.168  18.902  0.00  0.00    +0.000 A 
ATOM     18 CL   UNL     1       2.538   8.334  17.273  0.00  0.00    +0.000 Cl
BRANCH  15  19
ATOM     19  C   UNL     1       0.168  10.296  21.446  0.00  0.00    +0.000 C 
ATOM     20  O   UNL     1      -0.687  10.976  20.902  0.00  0.00    +0.000 OA
BRANCH  19  21
ATOM     21  O   UNL     1       0.599  10.511  22.703  0.00  0.00    +0.000 OA
ATOM     22  H   UNL     1      -0.067  10.463  23.411  0.00  0.00    +0.000 HD
ENDBRANCH  19  21
ENDBRANCH  15  19
ENDBRANCH   8  12
BRANCH   1  24
ATOM     23  C   UNL     1       7.720   8.214  17.687  0.00  0.00    +0.000 C 
ATOM     24  C   UNL     1       7.801   6.821  18.273  0.00  0.00    +0.000 C 
ENDBRANCH   1  24
TORSDOF 4
ENDMDL
MODEL 2
REMARK VINA RESULT:      -7.5      1.561      1.895
REMARK  Name = 
REMARK  5 active torsions:
REMARK  status: ('A' for Active; 'I' for Inactive)
REMARK    1  A    between atoms: C_1  and  C_2
REMARK    2  A    between atoms: C_2  and  N_3
REMARK    3  A    between atoms: N_10  and  C_11
REMARK    4  A    between atoms: C_14  and  C_15
REMARK    5  A    between atoms: C_15  and  O_17
REMARK                            x       y       z     vdW  Elec       q    Type
REMARK                         _______ _______ _______ _____ _____    ______ ____
ROOT
ATOM      1  N   UNL     1       6.851   4.904  17.786  0.00  0.00    +0.000 N 
ATOM      2  C   UNL     1       7.307   4.726  16.417  0.00  0.00    +0.000 C 
ATOM      3  C   UNL     1       6.243   5.201  15.439  0.00  0.00    +0.000 C 
ATOM      4  C   UNL     1       4.913   4.510  15.741  0.00  0.00    +0.000 C 
ATOM      5  C   UNL     1       4.497   4.655  17.216  0.00  0.00    +0.000 C 
ATOM      6  C   UNL     1       3.229   3.832  17.524  0.00  0.00    +0.000 C 
ATOM      7  C   UNL     1       2.439   4.719  18.488  0.00  0.00    +0.000 C 
ATOM      8  N   UNL     1       2.655   6.033  17.885  0.00  0.00    +0.000 N 
ATOM      9  C   UNL     1       4.090   6.113  17.568  0.00  0.00    +0.000 C 
ATOM     10  C   UNL     1       5.647   4.321  18.169  0.00  0.00    +0.000 C 
ATOM     11  O   UNL     1       5.471   3.799  19.266  0.00  0.00    +0.000 OA
ENDROOT
BRANCH   8  12
ATOM     12  C   UNL     1       2.178   7.157  18.563  0.00  0.00    +0.000 A 
ATOM     13  N   UNL     1       1.950   8.302  17.876  0.00  0.00    +0.000 NA
ATOM     14  C   UNL     1       1.461   9.376  18.554  0.00  0.00    +0.000 A 
ATOM     15  C   UNL     1       1.215   9.382  19.918  0.00  0.00    +0.000 A 
ATOM     16  C   UNL     1       1.437   8.206  20.628  0.00  0.00    +0.000 A 
ATOM     17  C   UNL     1       1.927   7.092  19.950  0.00  0.00    +0.000 A 
ATOM     18 CL   UNL     1       2.258   5.680  20.897  0.00  0.00    +0.000 Cl
BRANCH  15  19
ATOM     19  C   UNL     1       0.704  10.614  20.549  0.00  0.00    +0.000 C 
ATOM     20  O   UNL     1       0.838  10.840  21.741  0.00  0.00    +0.000 OA
BRANCH  19  21
ATOM     21  O   UNL     1       0.064  11.442  19.704  0.00  0.00    +0.000 OA
ATOM     22  H   UNL     1      -0.495  12.133  20.102  0.00  0.00    +0.000 HD
ENDBRANCH  19  21
ENDBRANCH  15  19
ENDBRANCH   8  12
BRANCH   1  24
ATOM     23  C   UNL     1       8.121   6.838  18.756  0.00  0.00    +0.000 C 
ATOM     24  C   UNL     1       7.782   5.363  18.806  0.00  0.00    +0.000 C 
ENDBRANCH   1  24
TORSDOF 4
ENDMDL
MODEL 3
REMARK VINA RESULT:      -7.3      1.631      2.092
REMARK  Name = 
REMARK  5 active torsions:
REMARK  status: ('A' for Active; 'I' for Inactive)
REMARK    1  A    between atoms: C_1  and  C_2
REMARK    2  A    between atoms: C_2  and  N_3
REMARK    3  A    between atoms: N_10  and  C_11
REMARK    4  A    between atoms: C_14  and  C_15
REMARK    5  A    between atoms: C_15  and  O_17
REMARK                            x       y       z     vdW  Elec       q    Type
REMARK                         _______ _______ _______ _____ _____    ______ ____
ROOT
ATOM      1  N   UNL     1       6.858   5.567  17.701  0.00  0.00    +0.000 N 
ATOM      2  C   UNL     1       7.040   4.801  16.479  0.00  0.00    +0.000 C 
ATOM      3  C   UNL     1       5.743   4.752  15.687  0.00  0.00    +0.000 C 
ATOM      4  C   UNL     1       4.609   4.237  16.574  0.00  0.00    +0.000 C 
ATOM      5  C   UNL     1       4.492   5.023  17.892  0.00  0.00    +0.000 C 
ATOM      6  C   UNL     1       3.437   4.394  18.827  0.00  0.00    +0.000 C 
ATOM      7  C   UNL     1       2.752   5.600  19.472  0.00  0.00    +0.000 C 
ATOM      8  N   UNL     1       2.659   6.504  18.328  0.00  0.00    +0.000 N 
ATOM      9  C   UNL     1       3.973   6.470  17.666  0.00  0.00    +0.000 C 
ATOM     10  C   UNL     1       5.848   5.187  18.582  0.00  0.00    +0.000 C 
ATOM     11  O   UNL     1       5.974   5.215  19.802  0.00  0.00    +0.000 OA
ENDROOT
BRANCH   8  12
ATOM     12  C   UNL     1       2.186   7.800  18.546  0.00  0.00    +0.000 A 
ATOM     13  N   UNL     1       2.352   8.739  17.585  0.00  0.00    +0.000 NA
ATOM     14  C   UNL     1       1.860   9.988  17.810  0.00  0.00    +0.000 A 
ATOM     15  C   UNL     1       1.228  10.370  18.984  0.00  0.00    +0.000 A 
ATOM     16  C   UNL     1       1.047   9.406  19.971  0.00  0.00    +0.000 A 
ATOM     17  C   UNL     1       1.533   8.119  19.755  0.00  0.00    +0.000 A 
ATOM     18 CL   UNL     1       1.347   6.982  21.049  0.00  0.00    +0.000 Cl
BRANCH  15  19
ATOM     19  C   UNL     1       0.754  11.760  19.123  0.00  0.00    +0.000 C 
ATOM     20  O   UNL     1       1.019  12.444  20.098  0.00  0.00    +0.000 OA
BRANCH  19  21
ATOM     21  O   UNL     1      -0.007  12.189  18.099  0.00  0.00    +0.000 OA
ATOM     22  H   UNL     1      -0.961  12.280  18.268  0.00  0.00    +0.000 HD
ENDBRANCH  19  21
ENDBRANCH  15  19
ENDBRANCH   8  12
BRANCH   1  24
ATOM     23  C   UNL     1       7.803   7.890  17.665  0.00  0.00    +0.000 C 
ATOM     24  C   UNL     1       7.908   6.463  18.159  0.00  0.00    +0.000 C 
ENDBRANCH   1  24
TORSDOF 4
ENDMDL
MODEL 4
REMARK VINA RESULT:      -7.0      1.407      1.641
REMARK  Name = 
REMARK  5 active torsions:
REMARK  status: ('A' for Active; 'I' for Inactive)
REMARK    1  A    between atoms: C_1  and  C_2
REMARK    2  A    between atoms: C_2  and  N_3
REMARK    3  A    between atoms: N_10  and  C_11
REMARK    4  A    between atoms: C_14  and  C_15
REMARK    5  A    between atoms: C_15  and  O_17
REMARK                            x       y       z     vdW  Elec       q    Type
REMARK                         _______ _______ _______ _____ _____    ______ ____
ROOT
ATOM      1  N   UNL     1       6.973   5.581  17.074  0.00  0.00    +0.000 N 
ATOM      2  C   UNL     1       7.043   5.284  15.653  0.00  0.00    +0.000 C 
ATOM      3  C   UNL     1       5.649   5.262  15.047  0.00  0.00    +0.000 C 
ATOM      4  C   UNL     1       4.755   4.303  15.834  0.00  0.00    +0.000 C 
ATOM      5  C   UNL     1       4.762   4.599  17.345  0.00  0.00    +0.000 C 
ATOM      6  C   UNL     1       3.967   3.533  18.128  0.00  0.00    +0.000 C 
ATOM      7  C   UNL     1       3.253   4.333  19.218  0.00  0.00    +0.000 C 
ATOM      8  N   UNL     1       2.856   5.521  18.466  0.00  0.00    +0.000 N 
ATOM      9  C   UNL     1       4.033   5.929  17.683  0.00  0.00    +0.000 C 
ATOM     10  C   UNL     1       6.182   4.772  17.886  0.00  0.00    +0.000 C 
ATOM     11  O   UNL     1       6.508   4.434  19.020  0.00  0.00    +0.000 OA
ENDROOT
BRANCH   8  12
ATOM     12  C   UNL     1       2.266   6.578  19.163  0.00  0.00    +0.000 A 
ATOM     13  N   UNL     1       2.252   7.815  18.610  0.00  0.00    +0.000 NA
ATOM     14  C   UNL     1       1.649   8.822  19.297  0.00  0.00    +0.000 A 
ATOM     15  C   UNL     1       1.076   8.670  20.551  0.00  0.00    +0.000 A 
ATOM     16  C   UNL     1       1.078   7.399  21.119  0.00  0.00    +0.000 A 
ATOM     17  C   UNL     1       1.681   6.351  20.427  0.00  0.00    +0.000 A 
ATOM     18 CL   UNL     1       1.722   4.810  21.216  0.00  0.00    +0.000 Cl
BRANCH  15  19
ATOM     19  C   UNL     1       0.468   9.842  21.209  0.00  0.00    +0.000 C 
ATOM     20  O   UNL     1      -0.338  10.562  20.642  0.00  0.00    +0.000 OA
BRANCH  19  21
ATOM     21  O   UNL     1       0.897  10.052  22.467  0.00  0.00    +0.000 OA
ATOM     22  H   UNL     1       0.545  10.835  22.927  0.00  0.00    +0.000 HD
ENDBRANCH  19  21
ENDBRANCH  15  19
ENDBRANCH   8  12
BRANCH   1  24
ATOM     23  C   UNL     1       7.677   7.938  17.566  0.00  0.00    +0.000 C 
ATOM     24  C   UNL     1       7.964   6.456  17.682  0.00  0.00    +0.000 C 
ENDBRANCH   1  24
TORSDOF 4
ENDMDL
MODEL 5
REMARK VINA RESULT:      -6.9      2.368      3.662
REMARK  Name = 
REMARK  5 active torsions:
REMARK  status: ('A' for Active; 'I' for Inactive)
REMARK    1  A    between atoms: C_1  and  C_2
REMARK    2  A    between atoms: C_2  and  N_3
REMARK    3  A    between atoms: N_10  and  C_11
REMARK    4  A    between atoms: C_14  and  C_15
REMARK    5  A    between atoms: C_15  and  O_17
REMARK                            x       y       z     vdW  Elec       q    Type
REMARK                         _______ _______ _______ _____ _____    ______ ____
ROOT
ATOM      1  N   UNL     1       2.754   3.174  19.085  0.00  0.00    +0.000 N 
ATOM      2  C   UNL     1       4.116   2.698  19.263  0.00  0.00    +0.000 C 
ATOM      3  C   UNL     1       5.042   3.856  19.598  0.00  0.00    +0.000 C 
ATOM      4  C   UNL     1       4.906   4.953  18.541  0.00  0.00    +0.000 C 
ATOM      5  C   UNL     1       3.444   5.382  18.325  0.00  0.00    +0.000 C 
ATOM      6  C   UNL     1       3.320   6.385  17.158  0.00  0.00    +0.000 C 
ATOM      7  C   UNL     1       2.256   7.374  17.634  0.00  0.00    +0.000 C 
ATOM      8  N   UNL     1       2.629   7.519  19.039  0.00  0.00    +0.000 N 
ATOM      9  C   UNL     1       2.875   6.159  19.545  0.00  0.00    +0.000 C 
ATOM     10  C   UNL     1       2.516   4.178  18.150  0.00  0.00    +0.000 C 
ATOM     11  O   UNL     1       1.525   4.201  17.426  0.00  0.00    +0.000 OA
ENDROOT
BRANCH   8  12
ATOM     12  C   UNL     1       1.795   8.271  19.870  0.00  0.00    +0.000 A 
ATOM     13  N   UNL     1       1.366   7.740  21.040  0.00  0.00    +0.000 NA
ATOM     14  C   UNL     1       0.576   8.502  21.844  0.00  0.00    +0.000 A 
ATOM     15  C   UNL     1       0.150   9.782  21.522  0.00  0.00    +0.000 A 
ATOM     16  C   UNL     1       0.595  10.336  20.325  0.00  0.00    +0.000 A 
ATOM     17  C   UNL     1       1.414   9.576  19.493  0.00  0.00    +0.000 A 
ATOM     18 CL   UNL     1       1.874  10.288  17.982  0.00  0.00    +0.000 Cl
BRANCH  15  19
ATOM     19  C   UNL     1      -0.724  10.505  22.464  0.00  0.00    +0.000 C 
ATOM     20  O   UNL     1      -1.369  11.487  22.132  0.00  0.00    +0.000 OA
BRANCH  19  21
ATOM     21  O   UNL     1      -0.725  10.004  23.713  0.00  0.00    +0.000 OA
ATOM     22  H   UNL     1      -0.599   9.042  23.801  0.00  0.00    +0.000 HD
ENDBRANCH  19  21
ENDBRANCH  15  19
ENDBRANCH   8  12
BRANCH   1  24
ATOM     23  C   UNL     1       1.031   2.895  20.887  0.00  0.00    +0.000 C 
ATOM     24  C   UNL     1       1.639   2.391  19.596  0.00  0.00    +0.000 C 
ENDBRANCH   1  24
TORSDOF 4
ENDMDL
MODEL 6
REMARK VINA RESULT:      -6.7      2.379      3.207
REMARK  Name = 
REMARK  5 active torsions:
REMARK  status: ('A' for Active; 'I' for Inactive)
REMARK    1  A    between atoms: C_1  and  C_2
REMARK    2  A    between atoms: C_2  and  N_3
REMARK    3  A    between atoms: N_10  and  C_11
REMARK    4  A    between atoms: C_14  and  C_15
REMARK    5  A    between atoms: C_15  and  O_17
REMARK                            x       y       z     vdW  Elec       q    Type
REMARK                         _______ _______ _______ _____ _____    ______ ____
ROOT
ATOM      1  N   UNL     1       4.576   4.486  17.723  0.00  0.00    +0.000 N 
ATOM      2  C   UNL     1       3.922   3.350  17.094  0.00  0.00    +0.000 C 
ATOM      3  C   UNL     1       2.416   3.554  17.068  0.00  0.00    +0.000 C 
ATOM      4  C   UNL     1       1.906   3.856  18.477  0.00  0.00    +0.000 C 
ATOM      5  C   UNL     1       2.669   5.016  19.142  0.00  0.00    +0.000 C 
ATOM      6  C   UNL     1       2.233   5.207  20.610  0.00  0.00    +0.000 C 
ATOM      7  C   UNL     1       2.224   6.724  20.797  0.00  0.00    +0.000 C 
ATOM      8  N   UNL     1       1.652   7.152  19.523  0.00  0.00    +0.000 N 
ATOM      9  C   UNL     1       2.348   6.384  18.477  0.00  0.00    +0.000 C 
ATOM     10  C   UNL     1       4.185   4.853  19.008  0.00  0.00    +0.000 C 
ATOM     11  O   UNL     1       4.974   5.235  19.868  0.00  0.00    +0.000 OA
ENDROOT
BRANCH   8  12
ATOM     12  C   UNL     1       1.593   8.521  19.252  0.00  0.00    +0.000 A 
ATOM     13  N   UNL     1       2.307   9.026  18.218  0.00  0.00    +0.000 NA
ATOM     14  C   UNL     1       2.213  10.358  17.957  0.00  0.00    +0.000 A 
ATOM     15  C   UNL     1       1.455  11.242  18.711  0.00  0.00    +0.000 A 
ATOM     16  C   UNL     1       0.711  10.727  19.768  0.00  0.00    +0.000 A 
ATOM     17  C   UNL     1       0.786   9.363  20.044  0.00  0.00    +0.000 A 
ATOM     18 CL   UNL     1      -0.100   8.792  21.419  0.00  0.00    +0.000 Cl
BRANCH  15  19
ATOM     19  C   UNL     1       1.446  12.672  18.345  0.00  0.00    +0.000 C 
ATOM     20  O   UNL     1       0.666  13.466  18.845  0.00  0.00    +0.000 OA
BRANCH  19  21
ATOM     21  O   UNL     1       2.349  13.007  17.406  0.00  0.00    +0.000 OA
ATOM     22  H   UNL     1       2.954  12.306  17.107  0.00  0.00    +0.000 HD
ENDBRANCH  19  21
ENDBRANCH  15  19
ENDBRANCH   8  12
BRANCH   1  24
ATOM     23  C   UNL     1       5.691   6.090  16.150  0.00  0.00    +0.000 C 
ATOM     24  C   UNL     1       5.828   4.992  17.182  0.00  0.00    +0.000 C 
ENDBRANCH   1  24
TORSDOF 4
ENDMDL
MODEL 7
REMARK VINA RESULT:      -6.7      5.968      8.152
REMARK  Name = 
REMARK  5 active torsions:
REMARK  status: ('A' for Active; 'I' for Inactive)
REMARK    1  A    between atoms: C_1  and  C_2
REMARK    2  A    between atoms: C_2  and  N_3
REMARK    3  A    between atoms: N_10  and  C_11
REMARK    4  A    between atoms: C_14  and  C_15
REMARK    5  A    between atoms: C_15  and  O_17
REMARK                            x       y       z     vdW  Elec       q    Type
REMARK                         _______ _______ _______ _____ _____    ______ ____
ROOT
ATOM      1  N   UNL     1       1.583  13.646  20.576  0.00  0.00    +0.000 N 
ATOM      2  C   UNL     1       2.706  14.065  19.753  0.00  0.00    +0.000 C 
ATOM      3  C   UNL     1       2.476  13.670  18.303  0.00  0.00    +0.000 C 
ATOM      4  C   UNL     1       2.169  12.175  18.212  0.00  0.00    +0.000 C 
ATOM      5  C   UNL     1       1.024  11.752  19.151  0.00  0.00    +0.000 C 
ATOM      6  C   UNL     1       0.830  10.221  19.145  0.00  0.00    +0.000 C 
ATOM      7  C   UNL     1      -0.687  10.042  19.215  0.00  0.00    +0.000 C 
ATOM      8  N   UNL     1      -1.128  11.107  18.317  0.00  0.00    +0.000 N 
ATOM      9  C   UNL     1      -0.351  12.303  18.680  0.00  0.00    +0.000 C 
ATOM     10  C   UNL     1       1.212  12.304  20.565  0.00  0.00    +0.000 C 
ATOM     11  O   UNL     1       0.847  11.700  21.569  0.00  0.00    +0.000 OA
ENDROOT
BRANCH   8  12
ATOM     12  C   UNL     1      -2.498  11.354  18.207  0.00  0.00    +0.000 A 
ATOM     13  N   UNL     1      -3.150  11.953  19.232  0.00  0.00    +0.000 NA
ATOM     14  C   UNL     1      -4.480  12.207  19.092  0.00  0.00    +0.000 A 
ATOM     15  C   UNL     1      -5.221  11.854  17.974  0.00  0.00    +0.000 A 
ATOM     16  C   UNL     1      -4.554  11.246  16.914  0.00  0.00    +0.000 A 
ATOM     17  C   UNL     1      -3.190  10.989  17.034  0.00  0.00    +0.000 A 
ATOM     18 CL   UNL     1      -2.429  10.161  15.716  0.00  0.00    +0.000 Cl
BRANCH  15  19
ATOM     19  C   UNL     1      -6.663  12.161  17.943  0.00  0.00    +0.000 C 
ATOM     20  O   UNL     1      -7.399  11.927  18.887  0.00  0.00    +0.000 OA
BRANCH  19  21
ATOM     21  O   UNL     1      -7.089  12.695  16.783  0.00  0.00    +0.000 OA
ATOM     22  H   UNL     1      -6.934  13.647  16.653  0.00  0.00    +0.000 HD
ENDBRANCH  19  21
ENDBRANCH  15  19
ENDBRANCH   8  12
BRANCH   1  24
ATOM     23  C   UNL     1       0.307  15.721  21.173  0.00  0.00    +0.000 C 
ATOM     24  C   UNL     1       1.097  14.516  21.636  0.00  0.00    +0.000 C 
ENDBRANCH   1  24
TORSDOF 4
ENDMDL
MODEL 8
REMARK VINA RESULT:      -6.7      3.274      6.148
REMARK  Name = 
REMARK  5 active torsions:
REMARK  status: ('A' for Active; 'I' for Inactive)
REMARK    1  A    between atoms: C_1  and  C_2
REMARK    2  A    between atoms: C_2  and  N_3
REMARK    3  A    between atoms: N_10  and  C_11
REMARK    4  A    between atoms: C_14  and  C_15
REMARK    5  A    between atoms: C_15  and  O_17
REMARK                            x       y       z     vdW  Elec       q    Type
REMARK                         _______ _______ _______ _____ _____    ______ ____
ROOT
ATOM      1  N   UNL     1       2.377   4.318  19.738  0.00  0.00    +0.000 N 
ATOM      2  C   UNL     1       2.459   2.978  20.294  0.00  0.00    +0.000 C 
ATOM      3  C   UNL     1       3.865   2.422  20.129  0.00  0.00    +0.000 C 
ATOM      4  C   UNL     1       4.291   2.509  18.663  0.00  0.00    +0.000 C 
ATOM      5  C   UNL     1       4.121   3.926  18.085  0.00  0.00    +0.000 C 
ATOM      6  C   UNL     1       4.423   3.953  16.572  0.00  0.00    +0.000 C 
ATOM      7  C   UNL     1       5.151   5.283  16.366  0.00  0.00    +0.000 C 
ATOM      8  N   UNL     1       6.001   5.313  17.553  0.00  0.00    +0.000 N 
ATOM      9  C   UNL     1       5.144   4.929  18.687  0.00  0.00    +0.000 C 
ATOM     10  C   UNL     1       2.747   4.514  18.410  0.00  0.00    +0.000 C 
ATOM     11  O   UNL     1       2.152   5.273  17.651  0.00  0.00    +0.000 OA
ENDROOT
BRANCH   8  12
ATOM     12  C   UNL     1       6.753   6.464  17.798  0.00  0.00    +0.000 A 
ATOM     13  N   UNL     1       6.453   7.608  17.137  0.00  0.00    +0.000 NA
ATOM     14  C   UNL     1       7.183   8.723  17.411  0.00  0.00    +0.000 A 
ATOM     15  C   UNL     1       8.245   8.753  18.303  0.00  0.00    +0.000 A 
ATOM     16  C   UNL     1       8.551   7.583  18.992  0.00  0.00    +0.000 A 
ATOM     17  C   UNL     1       7.808   6.434  18.734  0.00  0.00    +0.000 A 
ATOM     18 CL   UNL     1       8.284   4.989  19.563  0.00  0.00    +0.000 Cl
BRANCH  15  19
ATOM     19  C   UNL     1       8.977  10.018  18.503  0.00  0.00    +0.000 C 
ATOM     20  O   UNL     1       9.051  10.872  17.635  0.00  0.00    +0.000 OA
BRANCH  19  21
ATOM     21  O   UNL     1       9.568  10.128  19.707  0.00  0.00    +0.000 OA
ATOM     22  H   UNL     1      10.489  10.443  19.718  0.00  0.00    +0.000 HD
ENDBRANCH  19  21
ENDBRANCH  15  19
ENDBRANCH   8  12
BRANCH   1  24
ATOM     23  C   UNL     1       2.177   6.741  20.358  0.00  0.00    +0.000 C 
ATOM     24  C   UNL     1       1.603   5.341  20.425  0.00  0.00    +0.000 C 
ENDBRANCH   1  24
TORSDOF 4
ENDMDL
MODEL 9
REMARK VINA RESULT:      -6.5      3.276      6.004
REMARK  Name = 
REMARK  5 active torsions:
REMARK  status: ('A' for Active; 'I' for Inactive)
REMARK    1  A    between atoms: C_1  and  C_2
REMARK    2  A    between atoms: C_2  and  N_3
REMARK    3  A    between atoms: N_10  and  C_11
REMARK    4  A    between atoms: C_14  and  C_15
REMARK    5  A    between atoms: C_15  and  O_17
REMARK                            x       y       z     vdW  Elec       q    Type
REMARK                         _______ _______ _______ _____ _____    ______ ____
ROOT
ATOM      1  N   UNL     1       2.038   3.864  19.845  0.00  0.00    +0.000 N 
ATOM      2  C   UNL     1       2.100   2.678  20.683  0.00  0.00    +0.000 C 
ATOM      3  C   UNL     1       3.536   2.195  20.811  0.00  0.00    +0.000 C 
ATOM      4  C   UNL     1       4.146   2.000  19.422  0.00  0.00    +0.000 C 
ATOM      5  C   UNL     1       3.997   3.250  18.535  0.00  0.00    +0.000 C 
ATOM      6  C   UNL     1       4.492   2.980  17.099  0.00  0.00    +0.000 C 
ATOM      7  C   UNL     1       5.187   4.282  16.698  0.00  0.00    +0.000 C 
ATOM      8  N   UNL     1       5.874   4.617  17.944  0.00  0.00    +0.000 N 
ATOM      9  C   UNL     1       4.892   4.423  19.024  0.00  0.00    +0.000 C 
ATOM     10  C   UNL     1       2.569   3.800  18.560  0.00  0.00    +0.000 C 
ATOM     11  O   UNL     1       2.050   4.343  17.589  0.00  0.00    +0.000 OA
ENDROOT
BRANCH   8  12
ATOM     12  C   UNL     1       6.542   5.841  18.021  0.00  0.00    +0.000 A 
ATOM     13  N   UNL     1       7.636   5.953  18.812  0.00  0.00    +0.000 NA
ATOM     14  C   UNL     1       8.285   7.148  18.851  0.00  0.00    +0.000 A 
ATOM     15  C   UNL     1       7.873   8.276  18.157  0.00  0.00    +0.000 A 
ATOM     16  C   UNL     1       6.755   8.163  17.335  0.00  0.00    +0.000 A 
ATOM     17  C   UNL     1       6.083   6.945  17.273  0.00  0.00    +0.000 A 
ATOM     18 CL   UNL     1       4.654   6.885  16.295  0.00  0.00    +0.000 Cl
BRANCH  15  19
ATOM     19  C   UNL     1       8.645   9.525  18.293  0.00  0.00    +0.000 C 
ATOM     20  O   UNL     1       8.553  10.439  17.489  0.00  0.00    +0.000 OA
BRANCH  19  21
ATOM     21  O   UNL     1       9.467   9.553  19.358  0.00  0.00    +0.000 OA
ATOM     22  H   UNL     1       9.835   8.701  19.653  0.00  0.00    +0.000 HD
ENDBRANCH  19  21
ENDBRANCH  15  19
ENDBRANCH   8  12
BRANCH   1  24
ATOM     23  C   UNL     1       1.821   6.245  20.604  0.00  0.00    +0.000 C 
ATOM     24  C   UNL     1       1.142   4.955  20.197  0.00  0.00    +0.000 C 
ENDBRANCH   1  24
TORSDOF 4
ENDMDL
