MODEL 1
REMARK VINA RESULT:      -7.1      0.000      0.000
REMARK  Name = 
REMARK  6 active torsions:
REMARK  status: ('A' for Active; 'I' for Inactive)
REMARK    1  A    between atoms: C_2  and  C_15
REMARK    2  A    between atoms: N_3  and  N_4
REMARK    3  A    between atoms: N_4  and  C_5
REMARK    4  A    between atoms: C_5  and  N_7
REMARK    5  A    between atoms: C_8  and  C_10
REMARK    6  A    between atoms: C_18  and  O_19
REMARK                            x       y       z     vdW  Elec       q    Type
REMARK                         _______ _______ _______ _____ _____    ______ ____
ROOT
ATOM      1  N   UNL     1       7.067   4.395  18.569  0.00  0.00    +0.000 N 
ATOM      2  H   UNL     1       7.762   4.086  19.260  0.00  0.00    +0.000 HD
ENDROOT
BRANCH   1   5
ATOM      3  O   UNL     1       5.018   5.806  19.747  0.00  0.00    +0.000 OA
ATOM      4  C   UNL     1       4.795   4.686  19.297  0.00  0.00    +0.000 C 
ATOM      5  N   UNL     1       5.763   3.891  18.709  0.00  0.00    +0.000 N 
ATOM      6  H   UNL     1       5.518   3.102  18.119  0.00  0.00    +0.000 HD
BRANCH   4   7
ATOM      7  C   UNL     1       3.416   4.116  19.347  0.00  0.00    +0.000 A 
ATOM      8  C   UNL     1       2.918   3.677  20.583  0.00  0.00    +0.000 A 
ATOM      9  C   UNL     1       1.654   3.081  20.670  0.00  0.00    +0.000 A 
ATOM     10  C   UNL     1       0.900   2.917  19.514  0.00  0.00    +0.000 A 
ATOM     11  C   UNL     1       1.376   3.344  18.282  0.00  0.00    +0.000 A 
ATOM     12  C   UNL     1       2.637   3.950  18.193  0.00  0.00    +0.000 A 
BRANCH  10  13
ATOM     13  O   UNL     1      -0.328   2.316  19.549  0.00  0.00    +0.000 OA
ATOM     14  H   UNL     1      -1.003   2.964  19.284  0.00  0.00    +0.000 HD
ENDBRANCH  10  13
ENDBRANCH   4   7
ENDBRANCH   1   5
BRANCH   1  15
ATOM     15  C   UNL     1       7.394   5.321  17.611  0.00  0.00    +0.000 C 
ATOM     16  S   UNL     1       7.806   6.913  17.940  0.00  0.00    +0.000 S 
BRANCH  15  17
ATOM     17  N   UNL     1       7.341   4.903  16.291  0.00  0.00    +0.000 N 
ATOM     18  C   UNL     1       6.227   4.789  15.457  0.00  0.00    +0.000 C 
ATOM     19  O   UNL     1       5.086   5.007  15.871  0.00  0.00    +0.000 OA
ATOM     20  H   UNL     1       8.239   4.701  15.877  0.00  0.00    +0.000 HD
BRANCH  18  21
ATOM     21  C   UNL     1       6.493   4.409  14.069  0.00  0.00    +0.000 A 
ATOM     22  C   UNL     1       5.791   3.499  13.292  0.00  0.00    +0.000 A 
ATOM     23  C   UNL     1       6.266   3.444  11.945  0.00  0.00    +0.000 A 
ATOM     24  C   UNL     1       7.335   4.287  11.745  0.00  0.00    +0.000 A 
ATOM     25  S   UNL     1       7.774   5.113  13.173  0.00  0.00    +0.000 S 
ENDBRANCH  18  21
ENDBRANCH  15  17
ENDBRANCH   1  15
TORSDOF 6
ENDMDL
MODEL 2
REMARK VINA RESULT:      -7.1      1.505      1.631
REMARK  Name = 
REMARK  6 active torsions:
REMARK  status: ('A' for Active; 'I' for Inactive)
REMARK    1  A    between atoms: C_2  and  C_15
REMARK    2  A    between atoms: N_3  and  N_4
REMARK    3  A    between atoms: N_4  and  C_5
REMARK    4  A    between atoms: C_5  and  N_7
REMARK    5  A    between atoms: C_8  and  C_10
REMARK    6  A    between atoms: C_18  and  O_19
REMARK                            x       y       z     vdW  Elec       q    Type
REMARK                         _______ _______ _______ _____ _____    ______ ____
ROOT
ATOM      1  N   UNL     1       6.641   6.288  18.514  0.00  0.00    +0.000 N 
ATOM      2  H   UNL     1       7.112   6.212  19.424  0.00  0.00    +0.000 HD
ENDROOT
BRANCH   1   5
ATOM      3  O   UNL     1       6.031   3.776  19.460  0.00  0.00    +0.000 OA
ATOM      4  C   UNL     1       5.150   4.450  18.935  0.00  0.00    +0.000 C 
ATOM      5  N   UNL     1       5.364   5.712  18.408  0.00  0.00    +0.000 N 
ATOM      6  H   UNL     1       4.595   6.349  18.222  0.00  0.00    +0.000 HD
BRANCH   4   7
ATOM      7  C   UNL     1       3.754   3.930  18.851  0.00  0.00    +0.000 A 
ATOM      8  C   UNL     1       3.375   2.887  19.710  0.00  0.00    +0.000 A 
ATOM      9  C   UNL     1       2.095   2.327  19.628  0.00  0.00    +0.000 A 
ATOM     10  C   UNL     1       1.203   2.807  18.676  0.00  0.00    +0.000 A 
ATOM     11  C   UNL     1       1.560   3.837  17.817  0.00  0.00    +0.000 A 
ATOM     12  C   UNL     1       2.837   4.407  17.903  0.00  0.00    +0.000 A 
BRANCH  10  13
ATOM     13  O   UNL     1      -0.048   2.271  18.544  0.00  0.00    +0.000 OA
ATOM     14  H   UNL     1      -0.645   2.950  18.188  0.00  0.00    +0.000 HD
ENDBRANCH  10  13
ENDBRANCH   4   7
ENDBRANCH   1   5
BRANCH   1  15
ATOM     15  C   UNL     1       7.211   6.995  17.484  0.00  0.00    +0.000 C 
ATOM     16  S   UNL     1       7.947   8.492  17.663  0.00  0.00    +0.000 S 
BRANCH  15  17
ATOM     17  N   UNL     1       7.134   6.434  16.220  0.00  0.00    +0.000 N 
ATOM     18  C   UNL     1       7.401   5.120  15.833  0.00  0.00    +0.000 C 
ATOM     19  O   UNL     1       7.827   4.284  16.634  0.00  0.00    +0.000 OA
ATOM     20  H   UNL     1       6.795   7.057  15.502  0.00  0.00    +0.000 HD
BRANCH  18  21
ATOM     21  C   UNL     1       7.138   4.791  14.431  0.00  0.00    +0.000 A 
ATOM     22  C   UNL     1       7.850   5.208  13.316  0.00  0.00    +0.000 A 
ATOM     23  C   UNL     1       7.374   4.616  12.105  0.00  0.00    +0.000 A 
ATOM     24  C   UNL     1       6.293   3.794  12.329  0.00  0.00    +0.000 A 
ATOM     25  S   UNL     1       5.846   3.758  13.977  0.00  0.00    +0.000 S 
ENDBRANCH  18  21
ENDBRANCH  15  17
ENDBRANCH   1  15
TORSDOF 6
ENDMDL
MODEL 3
REMARK VINA RESULT:      -7.0      6.110      7.763
REMARK  Name = 
REMARK  6 active torsions:
REMARK  status: ('A' for Active; 'I' for Inactive)
REMARK    1  A    between atoms: C_2  and  C_15
REMARK    2  A    between atoms: N_3  and  N_4
REMARK    3  A    between atoms: N_4  and  C_5
REMARK    4  A    between atoms: C_5  and  N_7
REMARK    5  A    between atoms: C_8  and  C_10
REMARK    6  A    between atoms: C_18  and  O_19
REMARK                            x       y       z     vdW  Elec       q    Type
REMARK                         _______ _______ _______ _____ _____    ______ ____
ROOT
ATOM      1  N   UNL     1       1.681   8.488  21.419  0.00  0.00    +0.000 N 
ATOM      2  H   UNL     1       2.597   8.903  21.633  0.00  0.00    +0.000 HD
ENDROOT
BRANCH   1   5
ATOM      3  O   UNL     1       2.445   7.872  18.846  0.00  0.00    +0.000 OA
ATOM      4  C   UNL     1       2.102   6.969  19.603  0.00  0.00    +0.000 C 
ATOM      5  N   UNL     1       1.680   7.180  20.904  0.00  0.00    +0.000 N 
ATOM      6  H   UNL     1       1.654   6.427  21.585  0.00  0.00    +0.000 HD
BRANCH   4   7
ATOM      7  C   UNL     1       2.143   5.549  19.147  0.00  0.00    +0.000 A 
ATOM      8  C   UNL     1       1.647   4.555  20.003  0.00  0.00    +0.000 A 
ATOM      9  C   UNL     1       1.718   3.204  19.644  0.00  0.00    +0.000 A 
ATOM     10  C   UNL     1       2.299   2.854  18.430  0.00  0.00    +0.000 A 
ATOM     11  C   UNL     1       2.797   3.823  17.570  0.00  0.00    +0.000 A 
ATOM     12  C   UNL     1       2.719   5.177  17.922  0.00  0.00    +0.000 A 
BRANCH  10  13
ATOM     13  O   UNL     1       2.414   1.545  18.052  0.00  0.00    +0.000 OA
ATOM     14  H   UNL     1       3.172   1.149  18.514  0.00  0.00    +0.000 HD
ENDBRANCH  10  13
ENDBRANCH   4   7
ENDBRANCH   1   5
BRANCH   1  15
ATOM     15  C   UNL     1       0.520   9.162  21.705  0.00  0.00    +0.000 C 
ATOM     16  S   UNL     1      -0.016   9.497  23.258  0.00  0.00    +0.000 S 
BRANCH  15  17
ATOM     17  N   UNL     1      -0.259   9.552  20.628  0.00  0.00    +0.000 N 
ATOM     18  C   UNL     1       0.085  10.378  19.557  0.00  0.00    +0.000 C 
ATOM     19  O   UNL     1       1.185  10.933  19.498  0.00  0.00    +0.000 OA
ATOM     20  H   UNL     1      -1.181   9.141  20.604  0.00  0.00    +0.000 HD
BRANCH  18  21
ATOM     21  C   UNL     1      -0.925  10.536  18.509  0.00  0.00    +0.000 A 
ATOM     22  C   UNL     1      -1.175   9.686  17.441  0.00  0.00    +0.000 A 
ATOM     23  C   UNL     1      -2.303  10.097  16.664  0.00  0.00    +0.000 A 
ATOM     24  C   UNL     1      -2.856  11.263  17.143  0.00  0.00    +0.000 A 
ATOM     25  S   UNL     1      -2.008  11.865  18.497  0.00  0.00    +0.000 S 
ENDBRANCH  18  21
ENDBRANCH  15  17
ENDBRANCH   1  15
TORSDOF 6
ENDMDL
MODEL 4
REMARK VINA RESULT:      -7.0      0.864      1.345
REMARK  Name = 
REMARK  6 active torsions:
REMARK  status: ('A' for Active; 'I' for Inactive)
REMARK    1  A    between atoms: C_2  and  C_15
REMARK    2  A    between atoms: N_3  and  N_4
REMARK    3  A    between atoms: N_4  and  C_5
REMARK    4  A    between atoms: C_5  and  N_7
REMARK    5  A    between atoms: C_8  and  C_10
REMARK    6  A    between atoms: C_18  and  O_19
REMARK                            x       y       z     vdW  Elec       q    Type
REMARK                         _______ _______ _______ _____ _____    ______ ____
ROOT
ATOM      1  N   UNL     1       7.167   4.533  18.483  0.00  0.00    +0.000 N 
ATOM      2  H   UNL     1       7.885   4.264  19.167  0.00  0.00    +0.000 HD
ENDROOT
BRANCH   1   5
ATOM      3  O   UNL     1       5.015   5.700  19.742  0.00  0.00    +0.000 OA
ATOM      4  C   UNL     1       4.884   4.591  19.233  0.00  0.00    +0.000 C 
ATOM      5  N   UNL     1       5.911   3.913  18.600  0.00  0.00    +0.000 N 
ATOM      6  H   UNL     1       5.729   3.139  17.970  0.00  0.00    +0.000 HD
BRANCH   4   7
ATOM      7  C   UNL     1       3.560   3.904  19.258  0.00  0.00    +0.000 A 
ATOM      8  C   UNL     1       3.305   2.905  18.307  0.00  0.00    +0.000 A 
ATOM      9  C   UNL     1       2.057   2.274  18.253  0.00  0.00    +0.000 A 
ATOM     10  C   UNL     1       1.063   2.657  19.147  0.00  0.00    +0.000 A 
ATOM     11  C   UNL     1       1.296   3.645  20.094  0.00  0.00    +0.000 A 
ATOM     12  C   UNL     1       2.547   4.271  20.157  0.00  0.00    +0.000 A 
BRANCH  10  13
ATOM     13  O   UNL     1      -0.179   2.086  19.112  0.00  0.00    +0.000 OA
ATOM     14  H   UNL     1      -0.081   1.119  19.112  0.00  0.00    +0.000 HD
ENDBRANCH  10  13
ENDBRANCH   4   7
ENDBRANCH   1   5
BRANCH   1  15
ATOM     15  C   UNL     1       7.414   5.514  17.555  0.00  0.00    +0.000 C 
ATOM     16  S   UNL     1       7.700   7.122  17.937  0.00  0.00    +0.000 S 
BRANCH  15  17
ATOM     17  N   UNL     1       7.388   5.137  16.222  0.00  0.00    +0.000 N 
ATOM     18  C   UNL     1       6.285   4.821  15.428  0.00  0.00    +0.000 C 
ATOM     19  O   UNL     1       5.143   4.783  15.893  0.00  0.00    +0.000 OA
ATOM     20  H   UNL     1       8.288   5.140  15.766  0.00  0.00    +0.000 HD
BRANCH  18  21
ATOM     21  C   UNL     1       6.559   4.550  14.016  0.00  0.00    +0.000 A 
ATOM     22  C   UNL     1       7.559   5.101  13.228  0.00  0.00    +0.000 A 
ATOM     23  C   UNL     1       7.600   4.537  11.915  0.00  0.00    +0.000 A 
ATOM     24  C   UNL     1       6.611   3.597  11.732  0.00  0.00    +0.000 A 
ATOM     25  S   UNL     1       5.631   3.420  13.120  0.00  0.00    +0.000 S 
ENDBRANCH  18  21
ENDBRANCH  15  17
ENDBRANCH   1  15
TORSDOF 6
ENDMDL
MODEL 5
REMARK VINA RESULT:      -6.9      0.885      1.059
REMARK  Name = 
REMARK  6 active torsions:
REMARK  status: ('A' for Active; 'I' for Inactive)
REMARK    1  A    between atoms: C_2  and  C_15
REMARK    2  A    between atoms: N_3  and  N_4
REMARK    3  A    between atoms: N_4  and  C_5
REMARK    4  A    between atoms: C_5  and  N_7
REMARK    5  A    between atoms: C_8  and  C_10
REMARK    6  A    between atoms: C_18  and  O_19
REMARK                            x       y       z     vdW  Elec       q    Type
REMARK                         _______ _______ _______ _____ _____    ______ ____
ROOT
ATOM      1  N   UNL     1       7.134   4.382  18.545  0.00  0.00    +0.000 N 
ATOM      2  H   UNL     1       7.831   4.050  19.223  0.00  0.00    +0.000 HD
ENDROOT
BRANCH   1   5
ATOM      3  O   UNL     1       5.049   5.686  19.785  0.00  0.00    +0.000 OA
ATOM      4  C   UNL     1       4.852   4.588  19.273  0.00  0.00    +0.000 C 
ATOM      5  N   UNL     1       5.839   3.846  18.648  0.00  0.00    +0.000 N 
ATOM      6  H   UNL     1       5.613   3.085  18.015  0.00  0.00    +0.000 HD
BRANCH   4   7
ATOM      7  C   UNL     1       3.485   3.989  19.283  0.00  0.00    +0.000 A 
ATOM      8  C   UNL     1       2.488   4.606  20.053  0.00  0.00    +0.000 A 
ATOM      9  C   UNL     1       1.208   4.048  20.141  0.00  0.00    +0.000 A 
ATOM     10  C   UNL     1       0.935   2.865  19.464  0.00  0.00    +0.000 A 
ATOM     11  C   UNL     1       1.908   2.238  18.698  0.00  0.00    +0.000 A 
ATOM     12  C   UNL     1       3.188   2.800  18.600  0.00  0.00    +0.000 A 
BRANCH  10  13
ATOM     13  O   UNL     1      -0.294   2.271  19.544  0.00  0.00    +0.000 OA
ATOM     14  H   UNL     1      -0.596   2.051  18.647  0.00  0.00    +0.000 HD
ENDBRANCH  10  13
ENDBRANCH   4   7
ENDBRANCH   1   5
BRANCH   1  15
ATOM     15  C   UNL     1       7.447   5.366  17.641  0.00  0.00    +0.000 C 
ATOM     16  S   UNL     1       7.829   6.945  18.060  0.00  0.00    +0.000 S 
BRANCH  15  17
ATOM     17  N   UNL     1       7.406   5.021  16.300  0.00  0.00    +0.000 N 
ATOM     18  C   UNL     1       6.294   4.891  15.467  0.00  0.00    +0.000 C 
ATOM     19  O   UNL     1       5.146   5.020  15.898  0.00  0.00    +0.000 OA
ATOM     20  H   UNL     1       8.311   4.893  15.870  0.00  0.00    +0.000 HD
BRANCH  18  21
ATOM     21  C   UNL     1       6.569   4.605  14.058  0.00  0.00    +0.000 A 
ATOM     22  C   UNL     1       7.561   5.158  13.261  0.00  0.00    +0.000 A 
ATOM     23  C   UNL     1       7.607   4.578  11.955  0.00  0.00    +0.000 A 
ATOM     24  C   UNL     1       6.628   3.624  11.786  0.00  0.00    +0.000 A 
ATOM     25  S   UNL     1       5.653   3.453  13.178  0.00  0.00    +0.000 S 
ENDBRANCH  18  21
ENDBRANCH  15  17
ENDBRANCH   1  15
TORSDOF 6
ENDMDL
MODEL 6
REMARK VINA RESULT:      -6.9      1.398      1.697
REMARK  Name = 
REMARK  6 active torsions:
REMARK  status: ('A' for Active; 'I' for Inactive)
REMARK    1  A    between atoms: C_2  and  C_15
REMARK    2  A    between atoms: N_3  and  N_4
REMARK    3  A    between atoms: N_4  and  C_5
REMARK    4  A    between atoms: C_5  and  N_7
REMARK    5  A    between atoms: C_8  and  C_10
REMARK    6  A    between atoms: C_18  and  O_19
REMARK                            x       y       z     vdW  Elec       q    Type
REMARK                         _______ _______ _______ _____ _____    ______ ____
ROOT
ATOM      1  N   UNL     1       7.006   6.079  18.663  0.00  0.00    +0.000 N 
ATOM      2  H   UNL     1       7.599   6.167  19.497  0.00  0.00    +0.000 HD
ENDROOT
BRANCH   1   5
ATOM      3  O   UNL     1       4.441   6.816  17.987  0.00  0.00    +0.000 OA
ATOM      4  C   UNL     1       4.655   5.670  18.370  0.00  0.00    +0.000 C 
ATOM      5  N   UNL     1       5.903   5.212  18.754  0.00  0.00    +0.000 N 
ATOM      6  H   UNL     1       6.112   4.220  18.813  0.00  0.00    +0.000 HD
BRANCH   4   7
ATOM      7  C   UNL     1       3.543   4.676  18.425  0.00  0.00    +0.000 A 
ATOM      8  C   UNL     1       3.587   3.574  17.557  0.00  0.00    +0.000 A 
ATOM      9  C   UNL     1       2.538   2.647  17.530  0.00  0.00    +0.000 A 
ATOM     10  C   UNL     1       1.443   2.835  18.366  0.00  0.00    +0.000 A 
ATOM     11  C   UNL     1       1.382   3.919  19.231  0.00  0.00    +0.000 A 
ATOM     12  C   UNL     1       2.434   4.844  19.267  0.00  0.00    +0.000 A 
BRANCH  10  13
ATOM     13  O   UNL     1       0.386   1.969  18.354  0.00  0.00    +0.000 OA
ATOM     14  H   UNL     1      -0.367   2.399  17.915  0.00  0.00    +0.000 HD
ENDBRANCH  10  13
ENDBRANCH   4   7
ENDBRANCH   1   5
BRANCH   1  15
ATOM     15  C   UNL     1       7.244   6.842  17.547  0.00  0.00    +0.000 C 
ATOM     16  S   UNL     1       7.680   8.461  17.588  0.00  0.00    +0.000 S 
BRANCH  15  17
ATOM     17  N   UNL     1       7.078   6.224  16.318  0.00  0.00    +0.000 N 
ATOM     18  C   UNL     1       7.398   4.917  15.950  0.00  0.00    +0.000 C 
ATOM     19  O   UNL     1       7.964   4.147  16.729  0.00  0.00    +0.000 OA
ATOM     20  H   UNL     1       6.621   6.793  15.620  0.00  0.00    +0.000 HD
BRANCH  18  21
ATOM     21  C   UNL     1       7.016   4.513  14.596  0.00  0.00    +0.000 A 
ATOM     22  C   UNL     1       5.965   3.685  14.226  0.00  0.00    +0.000 A 
ATOM     23  C   UNL     1       5.820   3.581  12.808  0.00  0.00    +0.000 A 
ATOM     24  C   UNL     1       6.782   4.305  12.141  0.00  0.00    +0.000 A 
ATOM     25  S   UNL     1       7.862   5.077  13.216  0.00  0.00    +0.000 S 
ENDBRANCH  18  21
ENDBRANCH  15  17
ENDBRANCH   1  15
TORSDOF 6
ENDMDL
MODEL 7
REMARK VINA RESULT:      -6.9      4.485      7.967
REMARK  Name = 
REMARK  6 active torsions:
REMARK  status: ('A' for Active; 'I' for Inactive)
REMARK    1  A    between atoms: C_2  and  C_15
REMARK    2  A    between atoms: N_3  and  N_4
REMARK    3  A    between atoms: N_4  and  C_5
REMARK    4  A    between atoms: C_5  and  N_7
REMARK    5  A    between atoms: C_8  and  C_10
REMARK    6  A    between atoms: C_18  and  O_19
REMARK                            x       y       z     vdW  Elec       q    Type
REMARK                         _______ _______ _______ _____ _____    ______ ____
ROOT
ATOM      1  N   UNL     1       3.437   5.197  20.502  0.00  0.00    +0.000 N 
ATOM      2  H   UNL     1       4.022   4.943  21.308  0.00  0.00    +0.000 HD
ENDROOT
BRANCH   1   5
ATOM      3  O   UNL     1       5.255   3.413  19.456  0.00  0.00    +0.000 OA
ATOM      4  C   UNL     1       4.978   4.428  18.824  0.00  0.00    +0.000 C 
ATOM      5  N   UNL     1       4.096   5.394  19.276  0.00  0.00    +0.000 N 
ATOM      6  H   UNL     1       3.684   6.075  18.646  0.00  0.00    +0.000 HD
BRANCH   4   7
ATOM      7  C   UNL     1       5.586   4.668  17.483  0.00  0.00    +0.000 A 
ATOM      8  C   UNL     1       4.890   4.234  16.344  0.00  0.00    +0.000 A 
ATOM      9  C   UNL     1       5.448   4.383  15.069  0.00  0.00    +0.000 A 
ATOM     10  C   UNL     1       6.707   4.957  14.941  0.00  0.00    +0.000 A 
ATOM     11  C   UNL     1       7.412   5.391  16.056  0.00  0.00    +0.000 A 
ATOM     12  C   UNL     1       6.853   5.252  17.333  0.00  0.00    +0.000 A 
BRANCH  10  13
ATOM     13  O   UNL     1       7.300   5.098  13.717  0.00  0.00    +0.000 OA
ATOM     14  H   UNL     1       6.630   5.384  13.074  0.00  0.00    +0.000 HD
ENDBRANCH  10  13
ENDBRANCH   4   7
ENDBRANCH   1   5
BRANCH   1  15
ATOM     15  C   UNL     1       2.071   5.255  20.615  0.00  0.00    +0.000 C 
ATOM     16  S   UNL     1       1.041   3.978  20.268  0.00  0.00    +0.000 S 
BRANCH  15  17
ATOM     17  N   UNL     1       1.526   6.466  21.009  0.00  0.00    +0.000 N 
ATOM     18  C   UNL     1       1.627   7.711  20.387  0.00  0.00    +0.000 C 
ATOM     19  O   UNL     1       2.320   7.875  19.380  0.00  0.00    +0.000 OA
ATOM     20  H   UNL     1       0.943   6.418  21.833  0.00  0.00    +0.000 HD
BRANCH  18  21
ATOM     21  C   UNL     1       0.858   8.801  20.989  0.00  0.00    +0.000 A 
ATOM     22  C   UNL     1       0.526   8.964  22.326  0.00  0.00    +0.000 A 
ATOM     23  C   UNL     1      -0.151  10.197  22.580  0.00  0.00    +0.000 A 
ATOM     24  C   UNL     1      -0.345  10.921  21.425  0.00  0.00    +0.000 A 
ATOM     25  S   UNL     1       0.262  10.107  20.051  0.00  0.00    +0.000 S 
ENDBRANCH  18  21
ENDBRANCH  15  17
ENDBRANCH   1  15
TORSDOF 6
ENDMDL
MODEL 8
REMARK VINA RESULT:      -6.7      4.715      5.486
REMARK  Name = 
REMARK  6 active torsions:
REMARK  status: ('A' for Active; 'I' for Inactive)
REMARK    1  A    between atoms: C_2  and  C_15
REMARK    2  A    between atoms: N_3  and  N_4
REMARK    3  A    between atoms: N_4  and  C_5
REMARK    4  A    between atoms: C_5  and  N_7
REMARK    5  A    between atoms: C_8  and  C_10
REMARK    6  A    between atoms: C_18  and  O_19
REMARK                            x       y       z     vdW  Elec       q    Type
REMARK                         _______ _______ _______ _____ _____    ______ ____
ROOT
ATOM      1  N   UNL     1       2.869   5.104  20.601  0.00  0.00    +0.000 N 
ATOM      2  H   UNL     1       3.680   4.878  21.190  0.00  0.00    +0.000 HD
ENDROOT
BRANCH   1   5
ATOM      3  O   UNL     1       2.772   7.370  19.040  0.00  0.00    +0.000 OA
ATOM      4  C   UNL     1       2.128   7.332  20.084  0.00  0.00    +0.000 C 
ATOM      5  N   UNL     1       2.131   6.250  20.946  0.00  0.00    +0.000 N 
ATOM      6  H   UNL     1       1.409   6.127  21.650  0.00  0.00    +0.000 HD
BRANCH   4   7
ATOM      7  C   UNL     1       1.267   8.485  20.478  0.00  0.00    +0.000 A 
ATOM      8  C   UNL     1       0.849   9.381  19.482  0.00  0.00    +0.000 A 
ATOM      9  C   UNL     1       0.090  10.509  19.812  0.00  0.00    +0.000 A 
ATOM     10  C   UNL     1      -0.238  10.742  21.143  0.00  0.00    +0.000 A 
ATOM     11  C   UNL     1       0.168   9.868  22.143  0.00  0.00    +0.000 A 
ATOM     12  C   UNL     1       0.919   8.733  21.815  0.00  0.00    +0.000 A 
BRANCH  10  13
ATOM     13  O   UNL     1      -0.955  11.846  21.513  0.00  0.00    +0.000 OA
ATOM     14  H   UNL     1      -0.435  12.642  21.309  0.00  0.00    +0.000 HD
ENDBRANCH  10  13
ENDBRANCH   4   7
ENDBRANCH   1   5
BRANCH   1  15
ATOM     15  C   UNL     1       2.582   4.360  19.485  0.00  0.00    +0.000 C 
ATOM     16  S   UNL     1       1.279   3.310  19.361  0.00  0.00    +0.000 S 
BRANCH  15  17
ATOM     17  N   UNL     1       3.454   4.472  18.415  0.00  0.00    +0.000 N 
ATOM     18  C   UNL     1       4.828   4.228  18.382  0.00  0.00    +0.000 C 
ATOM     19  O   UNL     1       5.455   3.926  19.400  0.00  0.00    +0.000 OA
ATOM     20  H   UNL     1       3.018   4.720  17.539  0.00  0.00    +0.000 HD
BRANCH  18  21
ATOM     21  C   UNL     1       5.475   4.339  17.074  0.00  0.00    +0.000 A 
ATOM     22  C   UNL     1       4.879   4.241  15.824  0.00  0.00    +0.000 A 
ATOM     23  C   UNL     1       5.794   4.498  14.756  0.00  0.00    +0.000 A 
ATOM     24  C   UNL     1       7.065   4.750  15.221  0.00  0.00    +0.000 A 
ATOM     25  S   UNL     1       7.154   4.652  16.924  0.00  0.00    +0.000 S 
ENDBRANCH  18  21
ENDBRANCH  15  17
ENDBRANCH   1  15
TORSDOF 6
ENDMDL
MODEL 9
REMARK VINA RESULT:      -6.7      4.888      5.518
REMARK  Name = 
REMARK  6 active torsions:
REMARK  status: ('A' for Active; 'I' for Inactive)
REMARK    1  A    between atoms: C_2  and  C_15
REMARK    2  A    between atoms: N_3  and  N_4
REMARK    3  A    between atoms: N_4  and  C_5
REMARK    4  A    between atoms: C_5  and  N_7
REMARK    5  A    between atoms: C_8  and  C_10
REMARK    6  A    between atoms: C_18  and  O_19
REMARK                            x       y       z     vdW  Elec       q    Type
REMARK                         _______ _______ _______ _____ _____    ______ ____
ROOT
ATOM      1  N   UNL     1       2.794   5.414  20.711  0.00  0.00    +0.000 N 
ATOM      2  H   UNL     1       3.607   5.237  21.315  0.00  0.00    +0.000 HD
ENDROOT
BRANCH   1   5
ATOM      3  O   UNL     1       2.660   7.615  19.064  0.00  0.00    +0.000 OA
ATOM      4  C   UNL     1       2.002   7.599  20.100  0.00  0.00    +0.000 C 
ATOM      5  N   UNL     1       2.021   6.551  21.003  0.00  0.00    +0.000 N 
ATOM      6  H   UNL     1       1.293   6.435  21.700  0.00  0.00    +0.000 HD
BRANCH   4   7
ATOM      7  C   UNL     1       1.104   8.743  20.438  0.00  0.00    +0.000 A 
ATOM      8  C   UNL     1       0.609   8.841  21.747  0.00  0.00    +0.000 A 
ATOM      9  C   UNL     1      -0.283   9.862  22.096  0.00  0.00    +0.000 A 
ATOM     10  C   UNL     1      -0.685  10.774  21.126  0.00  0.00    +0.000 A 
ATOM     11  C   UNL     1      -0.207  10.692  19.826  0.00  0.00    +0.000 A 
ATOM     12  C   UNL     1       0.694   9.677  19.475  0.00  0.00    +0.000 A 
BRANCH  10  13
ATOM     13  O   UNL     1      -1.575  11.770  21.417  0.00  0.00    +0.000 OA
ATOM     14  H   UNL     1      -1.337  12.164  22.273  0.00  0.00    +0.000 HD
ENDBRANCH  10  13
ENDBRANCH   4   7
ENDBRANCH   1   5
BRANCH   1  15
ATOM     15  C   UNL     1       2.538   4.614  19.626  0.00  0.00    +0.000 C 
ATOM     16  S   UNL     1       1.244   3.552  19.523  0.00  0.00    +0.000 S 
BRANCH  15  17
ATOM     17  N   UNL     1       3.435   4.680  18.573  0.00  0.00    +0.000 N 
ATOM     18  C   UNL     1       4.717   4.135  18.486  0.00  0.00    +0.000 C 
ATOM     19  O   UNL     1       5.237   3.551  19.439  0.00  0.00    +0.000 OA
ATOM     20  H   UNL     1       3.085   5.148  17.749  0.00  0.00    +0.000 HD
BRANCH  18  21
ATOM     21  C   UNL     1       5.400   4.287  17.199  0.00  0.00    +0.000 A 
ATOM     22  C   UNL     1       4.842   4.204  15.931  0.00  0.00    +0.000 A 
ATOM     23  C   UNL     1       5.782   4.502  14.896  0.00  0.00    +0.000 A 
ATOM     24  C   UNL     1       7.034   4.769  15.404  0.00  0.00    +0.000 A 
ATOM     25  S   UNL     1       7.076   4.636  17.106  0.00  0.00    +0.000 S 
ENDBRANCH  18  21
ENDBRANCH  15  17
ENDBRANCH   1  15
TORSDOF 6
ENDMDL
