MODEL 1
REMARK VINA RESULT:      -9.3      0.000      0.000
REMARK  Name = 
REMARK  10 active torsions:
REMARK  status: ('A' for Active; 'I' for Inactive)
REMARK    1  A    between atoms: C_1  and  O_2
REMARK    2  A    between atoms: O_2  and  C_3
REMARK    3  A    between atoms: C_6  and  C_7
REMARK    4  A    between atoms: C_7  and  C_8
REMARK    5  A    between atoms: N_10  and  C_11
REMARK    6  A    between atoms: C_15  and  C_16
REMARK    7  A    between atoms: C_19  and  C_20
REMARK    8  A    between atoms: C_24  and  C_25
REMARK    9  A    between atoms: C_30  and  O_31
REMARK   10  A    between atoms: O_31  and  C_32
REMARK                            x       y       z     vdW  Elec       q    Type
REMARK                         _______ _______ _______ _____ _____    ______ ____
ROOT
ATOM      1  C   UNL     1       2.182   7.676  19.133  0.00  0.00    +0.000 A 
ATOM      2  C   UNL     1       1.876   8.313  17.933  0.00  0.00    +0.000 A 
ATOM      3  C   UNL     1       1.006   9.404  17.933  0.00  0.00    +0.000 A 
ATOM      4  C   UNL     1       0.489   9.892  19.137  0.00  0.00    +0.000 A 
ATOM      5  C   UNL     1       0.848   9.308  20.360  0.00  0.00    +0.000 A 
ATOM      6  C   UNL     1       1.702   8.197  20.341  0.00  0.00    +0.000 A 
ENDROOT
BRANCH   5   7
ATOM      7  C   UNL     1       0.314   9.843  21.607  0.00  0.00    +0.000 A 
ATOM      8  N   UNL     1       0.458   9.409  22.843  0.00  0.00    +0.000 NA
ATOM      9  N   UNL     1      -0.261  10.272  23.650  0.00  0.00    +0.000 NA
ATOM     10  C   UNL     1      -0.808  11.166  22.843  0.00  0.00    +0.000 A 
ATOM     11  O   UNL     1      -0.482  10.958  21.531  0.00  0.00    +0.000 OA
BRANCH  10  12
ATOM     12  C   UNL     1      -1.706  12.272  23.153  0.00  0.00    +0.000 A 
ATOM     13  C   UNL     1      -1.191  13.572  23.268  0.00  0.00    +0.000 A 
ATOM     14  C   UNL     1      -2.017  14.641  23.618  0.00  0.00    +0.000 A 
ATOM     15  C   UNL     1      -3.373  14.426  23.870  0.00  0.00    +0.000 A 
ATOM     16  C   UNL     1      -3.913  13.141  23.753  0.00  0.00    +0.000 A 
ATOM     17  C   UNL     1      -5.367  12.892  24.037  0.00  0.00    +0.000 C 
ATOM     18  C   UNL     1      -3.080  12.075  23.381  0.00  0.00    +0.000 A 
ENDBRANCH  10  12
ENDBRANCH   5   7
BRANCH   1  21
ATOM     19  C   UNL     1       2.464   5.289  19.611  0.00  0.00    +0.000 C 
ATOM     20  O   UNL     1       1.331   5.128  20.060  0.00  0.00    +0.000 OA
ATOM     21  N   UNL     1       2.948   6.491  19.100  0.00  0.00    +0.000 N 
ATOM     22  H   UNL     1       3.658   6.414  18.380  0.00  0.00    +0.000 HD
BRANCH  19  23
ATOM     23  C   UNL     1       3.452   4.148  19.552  0.00  0.00    +0.000 C 
BRANCH  23  27
ATOM     24  C   UNL     1       6.500   4.435  16.476  0.00  0.00    +0.000 A 
ATOM     25  C   UNL     1       5.227   3.920  16.178  0.00  0.00    +0.000 A 
ATOM     26  C   UNL     1       4.224   3.845  17.151  0.00  0.00    +0.000 A 
ATOM     27  C   UNL     1       4.483   4.259  18.458  0.00  0.00    +0.000 A 
ATOM     28  C   UNL     1       5.770   4.711  18.768  0.00  0.00    +0.000 A 
ATOM     29  C   UNL     1       6.787   4.800  17.800  0.00  0.00    +0.000 A 
BRANCH  24  31
ATOM     30  C   UNL     1       7.012   4.731  14.179  0.00  0.00    +0.000 C 
ATOM     31  O   UNL     1       7.471   4.567  15.519  0.00  0.00    +0.000 OA
ENDBRANCH  24  31
BRANCH  29  32
ATOM     32  O   UNL     1       7.950   5.270  18.344  0.00  0.00    +0.000 OA
ATOM     33  C   UNL     1       8.049   6.633  18.714  0.00  0.00    +0.000 C 
ENDBRANCH  29  32
ENDBRANCH  23  27
ENDBRANCH  19  23
ENDBRANCH   1  21
TORSDOF 7
ENDMDL
MODEL 2
REMARK VINA RESULT:      -9.0      0.399      1.275
REMARK  Name = 
REMARK  10 active torsions:
REMARK  status: ('A' for Active; 'I' for Inactive)
REMARK    1  A    between atoms: C_1  and  O_2
REMARK    2  A    between atoms: O_2  and  C_3
REMARK    3  A    between atoms: C_6  and  C_7
REMARK    4  A    between atoms: C_7  and  C_8
REMARK    5  A    between atoms: N_10  and  C_11
REMARK    6  A    between atoms: C_15  and  C_16
REMARK    7  A    between atoms: C_19  and  C_20
REMARK    8  A    between atoms: C_24  and  C_25
REMARK    9  A    between atoms: C_30  and  O_31
REMARK   10  A    between atoms: O_31  and  C_32
REMARK                            x       y       z     vdW  Elec       q    Type
REMARK                         _______ _______ _______ _____ _____    ______ ____
ROOT
ATOM      1  C   UNL     1       2.276   7.707  19.041  0.00  0.00    +0.000 A 
ATOM      2  C   UNL     1       1.993   8.377  17.853  0.00  0.00    +0.000 A 
ATOM      3  C   UNL     1       1.120   9.465  17.865  0.00  0.00    +0.000 A 
ATOM      4  C   UNL     1       0.576   9.918  19.071  0.00  0.00    +0.000 A 
ATOM      5  C   UNL     1       0.911   9.301  20.285  0.00  0.00    +0.000 A 
ATOM      6  C   UNL     1       1.769   8.194  20.253  0.00  0.00    +0.000 A 
ENDROOT
BRANCH   5   7
ATOM      7  C   UNL     1       0.350   9.799  21.535  0.00  0.00    +0.000 A 
ATOM      8  N   UNL     1       0.408   9.291  22.750  0.00  0.00    +0.000 NA
ATOM      9  N   UNL     1      -0.297  10.151  23.571  0.00  0.00    +0.000 NA
ATOM     10  C   UNL     1      -0.750  11.120  22.792  0.00  0.00    +0.000 A 
ATOM     11  O   UNL     1      -0.374  10.964  21.487  0.00  0.00    +0.000 OA
BRANCH  10  12
ATOM     12  C   UNL     1      -1.596  12.260  23.124  0.00  0.00    +0.000 A 
ATOM     13  C   UNL     1      -2.952  12.056  23.417  0.00  0.00    +0.000 A 
ATOM     14  C   UNL     1      -3.798  13.134  23.684  0.00  0.00    +0.000 A 
ATOM     15  C   UNL     1      -3.301  14.438  23.653  0.00  0.00    +0.000 A 
ATOM     16  C   UNL     1      -1.950  14.669  23.373  0.00  0.00    +0.000 A 
ATOM     17  C   UNL     1      -1.407  16.068  23.320  0.00  0.00    +0.000 C 
ATOM     18  C   UNL     1      -1.104  13.578  23.126  0.00  0.00    +0.000 A 
ENDBRANCH  10  12
ENDBRANCH   5   7
BRANCH   1  21
ATOM     19  C   UNL     1       2.608   5.338  19.570  0.00  0.00    +0.000 C 
ATOM     20  O   UNL     1       1.510   5.185  20.102  0.00  0.00    +0.000 OA
ATOM     21  N   UNL     1       3.047   6.526  18.991  0.00  0.00    +0.000 N 
ATOM     22  H   UNL     1       3.705   6.431  18.226  0.00  0.00    +0.000 HD
BRANCH  19  23
ATOM     23  C   UNL     1       3.597   4.200  19.477  0.00  0.00    +0.000 C 
BRANCH  23  27
ATOM     24  C   UNL     1       6.644   4.606  16.413  0.00  0.00    +0.000 A 
ATOM     25  C   UNL     1       5.484   3.850  16.175  0.00  0.00    +0.000 A 
ATOM     26  C   UNL     1       4.479   3.730  17.142  0.00  0.00    +0.000 A 
ATOM     27  C   UNL     1       4.627   4.344  18.386  0.00  0.00    +0.000 A 
ATOM     28  C   UNL     1       5.812   5.044  18.644  0.00  0.00    +0.000 A 
ATOM     29  C   UNL     1       6.827   5.180  17.681  0.00  0.00    +0.000 A 
BRANCH  24  31
ATOM     30  C   UNL     1       7.146   4.823  14.105  0.00  0.00    +0.000 C 
ATOM     31  O   UNL     1       7.606   4.778  15.454  0.00  0.00    +0.000 OA
ENDBRANCH  24  31
BRANCH  29  32
ATOM     32  O   UNL     1       7.879   5.904  18.168  0.00  0.00    +0.000 OA
ATOM     33  C   UNL     1       7.859   7.317  18.074  0.00  0.00    +0.000 C 
ENDBRANCH  29  32
ENDBRANCH  23  27
ENDBRANCH  19  23
ENDBRANCH   1  21
TORSDOF 7
ENDMDL
MODEL 3
REMARK VINA RESULT:      -8.8      2.777     11.275
REMARK  Name = 
REMARK  10 active torsions:
REMARK  status: ('A' for Active; 'I' for Inactive)
REMARK    1  A    between atoms: C_1  and  O_2
REMARK    2  A    between atoms: O_2  and  C_3
REMARK    3  A    between atoms: C_6  and  C_7
REMARK    4  A    between atoms: C_7  and  C_8
REMARK    5  A    between atoms: N_10  and  C_11
REMARK    6  A    between atoms: C_15  and  C_16
REMARK    7  A    between atoms: C_19  and  C_20
REMARK    8  A    between atoms: C_24  and  C_25
REMARK    9  A    between atoms: C_30  and  O_31
REMARK   10  A    between atoms: O_31  and  C_32
REMARK                            x       y       z     vdW  Elec       q    Type
REMARK                         _______ _______ _______ _____ _____    ______ ____
ROOT
ATOM      1  C   UNL     1       2.467   6.873  19.430  0.00  0.00    +0.000 A 
ATOM      2  C   UNL     1       1.792   5.798  20.006  0.00  0.00    +0.000 A 
ATOM      3  C   UNL     1       2.226   4.496  19.753  0.00  0.00    +0.000 A 
ATOM      4  C   UNL     1       3.364   4.272  18.974  0.00  0.00    +0.000 A 
ATOM      5  C   UNL     1       4.098   5.346  18.450  0.00  0.00    +0.000 A 
ATOM      6  C   UNL     1       3.635   6.647  18.691  0.00  0.00    +0.000 A 
ENDROOT
BRANCH   5   7
ATOM      7  C   UNL     1       5.294   5.094  17.656  0.00  0.00    +0.000 A 
ATOM      8  N   UNL     1       6.560   5.062  18.020  0.00  0.00    +0.000 NA
ATOM      9  N   UNL     1       7.292   4.791  16.880  0.00  0.00    +0.000 NA
ATOM     10  C   UNL     1       6.418   4.693  15.892  0.00  0.00    +0.000 A 
ATOM     11  O   UNL     1       5.129   4.870  16.312  0.00  0.00    +0.000 OA
BRANCH  10  12
ATOM     12  C   UNL     1       6.644   4.470  14.469  0.00  0.00    +0.000 A 
ATOM     13  C   UNL     1       7.638   5.202  13.801  0.00  0.00    +0.000 A 
ATOM     14  C   UNL     1       7.839   5.051  12.429  0.00  0.00    +0.000 A 
ATOM     15  C   UNL     1       7.042   4.169  11.697  0.00  0.00    +0.000 A 
ATOM     16  C   UNL     1       6.051   3.420  12.340  0.00  0.00    +0.000 A 
ATOM     17  C   UNL     1       5.175   2.481  11.561  0.00  0.00    +0.000 C 
ATOM     18  C   UNL     1       5.869   3.564  13.723  0.00  0.00    +0.000 A 
ENDBRANCH  10  12
ENDBRANCH   5   7
BRANCH   1  21
ATOM     19  C   UNL     1       1.809   9.041  18.500  0.00  0.00    +0.000 C 
ATOM     20  O   UNL     1       2.074   8.751  17.334  0.00  0.00    +0.000 OA
ATOM     21  N   UNL     1       1.934   8.170  19.579  0.00  0.00    +0.000 N 
ATOM     22  H   UNL     1       1.298   8.328  20.353  0.00  0.00    +0.000 HD
BRANCH  19  23
ATOM     23  C   UNL     1       1.285  10.410  18.864  0.00  0.00    +0.000 C 
BRANCH  23  27
ATOM     24  C   UNL     1      -2.967  11.057  18.282  0.00  0.00    +0.000 A 
ATOM     25  C   UNL     1      -2.282  10.081  17.539  0.00  0.00    +0.000 A 
ATOM     26  C   UNL     1      -0.916   9.841  17.733  0.00  0.00    +0.000 A 
ATOM     27  C   UNL     1      -0.197  10.596  18.659  0.00  0.00    +0.000 A 
ATOM     28  C   UNL     1      -0.867  11.611  19.352  0.00  0.00    +0.000 A 
ATOM     29  C   UNL     1      -2.240  11.860  19.174  0.00  0.00    +0.000 A 
BRANCH  24  31
ATOM     30  C   UNL     1      -4.803  11.329  16.805  0.00  0.00    +0.000 C 
ATOM     31  O   UNL     1      -4.314  11.261  18.143  0.00  0.00    +0.000 OA
ENDBRANCH  24  31
BRANCH  29  32
ATOM     32  O   UNL     1      -2.662  12.896  19.960  0.00  0.00    +0.000 OA
ATOM     33  C   UNL     1      -1.707  13.704  20.624  0.00  0.00    +0.000 C 
ENDBRANCH  29  32
ENDBRANCH  23  27
ENDBRANCH  19  23
ENDBRANCH   1  21
TORSDOF 7
ENDMDL
MODEL 4
REMARK VINA RESULT:      -8.7      2.904     10.942
REMARK  Name = 
REMARK  10 active torsions:
REMARK  status: ('A' for Active; 'I' for Inactive)
REMARK    1  A    between atoms: C_1  and  O_2
REMARK    2  A    between atoms: O_2  and  C_3
REMARK    3  A    between atoms: C_6  and  C_7
REMARK    4  A    between atoms: C_7  and  C_8
REMARK    5  A    between atoms: N_10  and  C_11
REMARK    6  A    between atoms: C_15  and  C_16
REMARK    7  A    between atoms: C_19  and  C_20
REMARK    8  A    between atoms: C_24  and  C_25
REMARK    9  A    between atoms: C_30  and  O_31
REMARK   10  A    between atoms: O_31  and  C_32
REMARK                            x       y       z     vdW  Elec       q    Type
REMARK                         _______ _______ _______ _____ _____    ______ ____
ROOT
ATOM      1  C   UNL     1       2.150   5.392  20.183  0.00  0.00    +0.000 A 
ATOM      2  C   UNL     1       1.311   4.286  20.069  0.00  0.00    +0.000 A 
ATOM      3  C   UNL     1       1.644   3.255  19.191  0.00  0.00    +0.000 A 
ATOM      4  C   UNL     1       2.841   3.302  18.470  0.00  0.00    +0.000 A 
ATOM      5  C   UNL     1       3.733   4.373  18.631  0.00  0.00    +0.000 A 
ATOM      6  C   UNL     1       3.372   5.414  19.498  0.00  0.00    +0.000 A 
ENDROOT
BRANCH   5   7
ATOM      7  C   UNL     1       4.986   4.397  17.886  0.00  0.00    +0.000 A 
ATOM      8  N   UNL     1       6.223   4.533  18.317  0.00  0.00    +0.000 NA
ATOM      9  N   UNL     1       7.037   4.498  17.200  0.00  0.00    +0.000 NA
ATOM     10  C   UNL     1       6.232   4.358  16.159  0.00  0.00    +0.000 A 
ATOM     11  O   UNL     1       4.915   4.282  16.520  0.00  0.00    +0.000 OA
BRANCH  10  12
ATOM     12  C   UNL     1       6.550   4.316  14.737  0.00  0.00    +0.000 A 
ATOM     13  C   UNL     1       7.540   5.166  14.222  0.00  0.00    +0.000 A 
ATOM     14  C   UNL     1       7.827   5.187  12.857  0.00  0.00    +0.000 A 
ATOM     15  C   UNL     1       7.121   4.363  11.980  0.00  0.00    +0.000 A 
ATOM     16  C   UNL     1       6.136   3.498  12.468  0.00  0.00    +0.000 A 
ATOM     17  C   UNL     1       5.356   2.619  11.533  0.00  0.00    +0.000 C 
ATOM     18  C   UNL     1       5.867   3.469  13.845  0.00  0.00    +0.000 A 
ENDBRANCH  10  12
ENDBRANCH   5   7
BRANCH   1  21
ATOM     19  C   UNL     1       1.699   7.784  20.459  0.00  0.00    +0.000 C 
ATOM     20  O   UNL     1       1.954   8.084  19.293  0.00  0.00    +0.000 OA
ATOM     21  N   UNL     1       1.732   6.488  20.967  0.00  0.00    +0.000 N 
ATOM     22  H   UNL     1       1.100   6.297  21.737  0.00  0.00    +0.000 HD
BRANCH  19  23
ATOM     23  C   UNL     1       1.291   8.835  21.464  0.00  0.00    +0.000 C 
BRANCH  23  27
ATOM     24  C   UNL     1      -0.409  12.424  19.713  0.00  0.00    +0.000 A 
ATOM     25  C   UNL     1      -1.113  11.209  19.683  0.00  0.00    +0.000 A 
ATOM     26  C   UNL     1      -0.592  10.048  20.266  0.00  0.00    +0.000 A 
ATOM     27  C   UNL     1       0.665  10.071  20.870  0.00  0.00    +0.000 A 
ATOM     28  C   UNL     1       1.393  11.267  20.843  0.00  0.00    +0.000 A 
ATOM     29  C   UNL     1       0.880  12.443  20.268  0.00  0.00    +0.000 A 
BRANCH  24  31
ATOM     30  C   UNL     1      -1.339  14.562  20.148  0.00  0.00    +0.000 C 
ATOM     31  O   UNL     1      -0.934  13.579  19.198  0.00  0.00    +0.000 OA
ENDBRANCH  24  31
BRANCH  29  32
ATOM     32  O   UNL     1       1.774  13.473  20.365  0.00  0.00    +0.000 OA
ATOM     33  C   UNL     1       2.676  13.720  19.301  0.00  0.00    +0.000 C 
ENDBRANCH  29  32
ENDBRANCH  23  27
ENDBRANCH  19  23
ENDBRANCH   1  21
TORSDOF 7
ENDMDL
MODEL 5
REMARK VINA RESULT:      -8.6      2.467     11.170
REMARK  Name = 
REMARK  10 active torsions:
REMARK  status: ('A' for Active; 'I' for Inactive)
REMARK    1  A    between atoms: C_1  and  O_2
REMARK    2  A    between atoms: O_2  and  C_3
REMARK    3  A    between atoms: C_6  and  C_7
REMARK    4  A    between atoms: C_7  and  C_8
REMARK    5  A    between atoms: N_10  and  C_11
REMARK    6  A    between atoms: C_15  and  C_16
REMARK    7  A    between atoms: C_19  and  C_20
REMARK    8  A    between atoms: C_24  and  C_25
REMARK    9  A    between atoms: C_30  and  O_31
REMARK   10  A    between atoms: O_31  and  C_32
REMARK                            x       y       z     vdW  Elec       q    Type
REMARK                         _______ _______ _______ _____ _____    ______ ____
ROOT
ATOM      1  C   UNL     1       2.144   5.660  20.227  0.00  0.00    +0.000 A 
ATOM      2  C   UNL     1       1.121   4.779  19.881  0.00  0.00    +0.000 A 
ATOM      3  C   UNL     1       1.292   3.915  18.800  0.00  0.00    +0.000 A 
ATOM      4  C   UNL     1       2.502   3.891  18.101  0.00  0.00    +0.000 A 
ATOM      5  C   UNL     1       3.568   4.717  18.485  0.00  0.00    +0.000 A 
ATOM      6  C   UNL     1       3.373   5.598  19.557  0.00  0.00    +0.000 A 
ENDROOT
BRANCH   5   7
ATOM      7  C   UNL     1       4.830   4.665  17.757  0.00  0.00    +0.000 A 
ATOM      8  N   UNL     1       6.066   4.785  18.198  0.00  0.00    +0.000 NA
ATOM      9  N   UNL     1       6.891   4.668  17.095  0.00  0.00    +0.000 NA
ATOM     10  C   UNL     1       6.095   4.501  16.052  0.00  0.00    +0.000 A 
ATOM     11  O   UNL     1       4.772   4.484  16.398  0.00  0.00    +0.000 OA
BRANCH  10  12
ATOM     12  C   UNL     1       6.429   4.377  14.638  0.00  0.00    +0.000 A 
ATOM     13  C   UNL     1       7.457   5.164  14.097  0.00  0.00    +0.000 A 
ATOM     14  C   UNL     1       7.762   5.108  12.736  0.00  0.00    +0.000 A 
ATOM     15  C   UNL     1       7.036   4.269  11.890  0.00  0.00    +0.000 A 
ATOM     16  C   UNL     1       6.012   3.466  12.405  0.00  0.00    +0.000 A 
ATOM     17  C   UNL     1       5.212   2.572  11.503  0.00  0.00    +0.000 C 
ATOM     18  C   UNL     1       5.726   3.515  13.778  0.00  0.00    +0.000 A 
ENDBRANCH  10  12
ENDBRANCH   5   7
BRANCH   1  21
ATOM     19  C   UNL     1       1.611   7.948  20.922  0.00  0.00    +0.000 C 
ATOM     20  O   UNL     1       1.463   8.382  19.780  0.00  0.00    +0.000 OA
ATOM     21  N   UNL     1       1.905   6.622  21.231  0.00  0.00    +0.000 N 
ATOM     22  H   UNL     1       1.564   6.288  22.126  0.00  0.00    +0.000 HD
BRANCH  19  23
ATOM     23  C   UNL     1       1.455   8.846  22.126  0.00  0.00    +0.000 C 
BRANCH  23  27
ATOM     24  C   UNL     1      -1.338  12.107  21.494  0.00  0.00    +0.000 A 
ATOM     25  C   UNL     1      -1.491  11.233  22.583  0.00  0.00    +0.000 A 
ATOM     26  C   UNL     1      -0.585  10.192  22.817  0.00  0.00    +0.000 A 
ATOM     27  C   UNL     1       0.484   9.985  21.945  0.00  0.00    +0.000 A 
ATOM     28  C   UNL     1       0.599  10.817  20.826  0.00  0.00    +0.000 A 
ATOM     29  C   UNL     1      -0.299  11.871  20.580  0.00  0.00    +0.000 A 
BRANCH  24  31
ATOM     30  C   UNL     1      -3.519  12.833  20.909  0.00  0.00    +0.000 C 
ATOM     31  O   UNL     1      -2.185  13.163  21.288  0.00  0.00    +0.000 OA
ENDBRANCH  24  31
BRANCH  29  32
ATOM     32  O   UNL     1       0.021  12.537  19.430  0.00  0.00    +0.000 OA
ATOM     33  C   UNL     1      -0.880  12.519  18.338  0.00  0.00    +0.000 C 
ENDBRANCH  29  32
ENDBRANCH  23  27
ENDBRANCH  19  23
ENDBRANCH   1  21
TORSDOF 7
ENDMDL
MODEL 6
REMARK VINA RESULT:      -8.5      2.208     11.285
REMARK  Name = 
REMARK  10 active torsions:
REMARK  status: ('A' for Active; 'I' for Inactive)
REMARK    1  A    between atoms: C_1  and  O_2
REMARK    2  A    between atoms: O_2  and  C_3
REMARK    3  A    between atoms: C_6  and  C_7
REMARK    4  A    between atoms: C_7  and  C_8
REMARK    5  A    between atoms: N_10  and  C_11
REMARK    6  A    between atoms: C_15  and  C_16
REMARK    7  A    between atoms: C_19  and  C_20
REMARK    8  A    between atoms: C_24  and  C_25
REMARK    9  A    between atoms: C_30  and  O_31
REMARK   10  A    between atoms: O_31  and  C_32
REMARK                            x       y       z     vdW  Elec       q    Type
REMARK                         _______ _______ _______ _____ _____    ______ ____
ROOT
ATOM      1  C   UNL     1       2.128   5.822  20.182  0.00  0.00    +0.000 A 
ATOM      2  C   UNL     1       1.368   4.664  20.035  0.00  0.00    +0.000 A 
ATOM      3  C   UNL     1       1.721   3.725  19.065  0.00  0.00    +0.000 A 
ATOM      4  C   UNL     1       2.863   3.917  18.283  0.00  0.00    +0.000 A 
ATOM      5  C   UNL     1       3.680   5.040  18.470  0.00  0.00    +0.000 A 
ATOM      6  C   UNL     1       3.299   5.987  19.431  0.00  0.00    +0.000 A 
ENDROOT
BRANCH   5   7
ATOM      7  C   UNL     1       4.879   5.214  17.658  0.00  0.00    +0.000 A 
ATOM      8  N   UNL     1       6.018   5.810  17.949  0.00  0.00    +0.000 NA
ATOM      9  N   UNL     1       6.817   5.702  16.826  0.00  0.00    +0.000 NA
ATOM     10  C   UNL     1       6.099   5.058  15.920  0.00  0.00    +0.000 A 
ATOM     11  O   UNL     1       4.858   4.714  16.381  0.00  0.00    +0.000 OA
BRANCH  10  12
ATOM     12  C   UNL     1       6.430   4.720  14.541  0.00  0.00    +0.000 A 
ATOM     13  C   UNL     1       7.563   5.288  13.940  0.00  0.00    +0.000 A 
ATOM     14  C   UNL     1       7.873   5.025  12.605  0.00  0.00    +0.000 A 
ATOM     15  C   UNL     1       7.048   4.196  11.843  0.00  0.00    +0.000 A 
ATOM     16  C   UNL     1       5.917   3.609  12.421  0.00  0.00    +0.000 A 
ATOM     17  C   UNL     1       5.012   2.728  11.609  0.00  0.00    +0.000 C 
ATOM     18  C   UNL     1       5.624   3.862  13.770  0.00  0.00    +0.000 A 
ENDBRANCH  10  12
ENDBRANCH   5   7
BRANCH   1  21
ATOM     19  C   UNL     1       1.486   8.140  20.651  0.00  0.00    +0.000 C 
ATOM     20  O   UNL     1       1.613   8.530  19.491  0.00  0.00    +0.000 OA
ATOM     21  N   UNL     1       1.679   6.825  21.067  0.00  0.00    +0.000 N 
ATOM     22  H   UNL     1       1.135   6.529  21.870  0.00  0.00    +0.000 HD
BRANCH  19  23
ATOM     23  C   UNL     1       1.071   9.085  21.753  0.00  0.00    +0.000 C 
BRANCH  23  27
ATOM     24  C   UNL     1      -1.761  12.185  20.652  0.00  0.00    +0.000 A 
ATOM     25  C   UNL     1      -1.090  11.444  19.666  0.00  0.00    +0.000 A 
ATOM     26  C   UNL     1      -0.193  10.423  20.002  0.00  0.00    +0.000 A 
ATOM     27  C   UNL     1       0.074  10.139  21.342  0.00  0.00    +0.000 A 
ATOM     28  C   UNL     1      -0.547  10.920  22.323  0.00  0.00    +0.000 A 
ATOM     29  C   UNL     1      -1.455  11.944  22.001  0.00  0.00    +0.000 A 
BRANCH  24  31
ATOM     30  C   UNL     1      -4.011  12.685  20.092  0.00  0.00    +0.000 C 
ATOM     31  O   UNL     1      -2.684  13.146  20.335  0.00  0.00    +0.000 OA
ENDBRANCH  24  31
BRANCH  29  32
ATOM     32  O   UNL     1      -1.927  12.561  23.126  0.00  0.00    +0.000 OA
ATOM     33  C   UNL     1      -3.172  12.164  23.672  0.00  0.00    +0.000 C 
ENDBRANCH  29  32
ENDBRANCH  23  27
ENDBRANCH  19  23
ENDBRANCH   1  21
TORSDOF 7
ENDMDL
MODEL 7
REMARK VINA RESULT:      -8.5      3.006     11.472
REMARK  Name = 
REMARK  10 active torsions:
REMARK  status: ('A' for Active; 'I' for Inactive)
REMARK    1  A    between atoms: C_1  and  O_2
REMARK    2  A    between atoms: O_2  and  C_3
REMARK    3  A    between atoms: C_6  and  C_7
REMARK    4  A    between atoms: C_7  and  C_8
REMARK    5  A    between atoms: N_10  and  C_11
REMARK    6  A    between atoms: C_15  and  C_16
REMARK    7  A    between atoms: C_19  and  C_20
REMARK    8  A    between atoms: C_24  and  C_25
REMARK    9  A    between atoms: C_30  and  O_31
REMARK   10  A    between atoms: O_31  and  C_32
REMARK                            x       y       z     vdW  Elec       q    Type
REMARK                         _______ _______ _______ _____ _____    ______ ____
ROOT
ATOM      1  C   UNL     1       2.446   7.755  18.720  0.00  0.00    +0.000 A 
ATOM      2  C   UNL     1       1.895   7.069  19.800  0.00  0.00    +0.000 A 
ATOM      3  C   UNL     1       2.381   5.804  20.133  0.00  0.00    +0.000 A 
ATOM      4  C   UNL     1       3.453   5.252  19.426  0.00  0.00    +0.000 A 
ATOM      5  C   UNL     1       4.067   5.963  18.385  0.00  0.00    +0.000 A 
ATOM      6  C   UNL     1       3.551   7.221  18.045  0.00  0.00    +0.000 A 
ENDROOT
BRANCH   5   7
ATOM      7  C   UNL     1       5.196   5.380  17.671  0.00  0.00    +0.000 A 
ATOM      8  N   UNL     1       6.344   4.925  18.130  0.00  0.00    +0.000 NA
ATOM      9  N   UNL     1       7.064   4.491  17.033  0.00  0.00    +0.000 NA
ATOM     10  C   UNL     1       6.307   4.728  15.975  0.00  0.00    +0.000 A 
ATOM     11  O   UNL     1       5.104   5.289  16.304  0.00  0.00    +0.000 OA
BRANCH  10  12
ATOM     12  C   UNL     1       6.593   4.516  14.561  0.00  0.00    +0.000 A 
ATOM     13  C   UNL     1       7.568   5.300  13.925  0.00  0.00    +0.000 A 
ATOM     14  C   UNL     1       7.824   5.157  12.561  0.00  0.00    +0.000 A 
ATOM     15  C   UNL     1       7.101   4.233  11.805  0.00  0.00    +0.000 A 
ATOM     16  C   UNL     1       6.131   3.432  12.417  0.00  0.00    +0.000 A 
ATOM     17  C   UNL     1       5.334   2.445  11.612  0.00  0.00    +0.000 C 
ATOM     18  C   UNL     1       5.894   3.568  13.793  0.00  0.00    +0.000 A 
ENDBRANCH  10  12
ENDBRANCH   5   7
BRANCH   1  21
ATOM     19  C   UNL     1       1.042   9.714  19.159  0.00  0.00    +0.000 C 
ATOM     20  O   UNL     1       0.828   9.440  20.339  0.00  0.00    +0.000 OA
ATOM     21  N   UNL     1       1.852   8.967  18.308  0.00  0.00    +0.000 N 
ATOM     22  H   UNL     1       2.311   9.483  17.565  0.00  0.00    +0.000 HD
BRANCH  19  23
ATOM     23  C   UNL     1       0.438  10.943  18.521  0.00  0.00    +0.000 C 
BRANCH  23  27
ATOM     24  C   UNL     1      -3.872  10.908  18.010  0.00  0.00    +0.000 A 
ATOM     25  C   UNL     1      -3.047  10.104  17.205  0.00  0.00    +0.000 A 
ATOM     26  C   UNL     1      -1.658  10.083  17.374  0.00  0.00    +0.000 A 
ATOM     27  C   UNL     1      -1.057  10.892  18.338  0.00  0.00    +0.000 A 
ATOM     28  C   UNL     1      -1.874  11.741  19.095  0.00  0.00    +0.000 A 
ATOM     29  C   UNL     1      -3.271  11.768  18.942  0.00  0.00    +0.000 A 
BRANCH  24  31
ATOM     30  C   UNL     1      -5.822  12.020  17.244  0.00  0.00    +0.000 C 
ATOM     31  O   UNL     1      -5.236  10.894  17.893  0.00  0.00    +0.000 OA
ENDBRANCH  24  31
BRANCH  29  32
ATOM     32  O   UNL     1      -3.845  12.673  19.791  0.00  0.00    +0.000 OA
ATOM     33  C   UNL     1      -3.073  13.243  20.833  0.00  0.00    +0.000 C 
ENDBRANCH  29  32
ENDBRANCH  23  27
ENDBRANCH  19  23
ENDBRANCH   1  21
TORSDOF 7
ENDMDL
MODEL 8
REMARK VINA RESULT:      -8.4      1.016      1.276
REMARK  Name = 
REMARK  10 active torsions:
REMARK  status: ('A' for Active; 'I' for Inactive)
REMARK    1  A    between atoms: C_1  and  O_2
REMARK    2  A    between atoms: O_2  and  C_3
REMARK    3  A    between atoms: C_6  and  C_7
REMARK    4  A    between atoms: C_7  and  C_8
REMARK    5  A    between atoms: N_10  and  C_11
REMARK    6  A    between atoms: C_15  and  C_16
REMARK    7  A    between atoms: C_19  and  C_20
REMARK    8  A    between atoms: C_24  and  C_25
REMARK    9  A    between atoms: C_30  and  O_31
REMARK   10  A    between atoms: O_31  and  C_32
REMARK                            x       y       z     vdW  Elec       q    Type
REMARK                         _______ _______ _______ _____ _____    ______ ____
ROOT
ATOM      1  C   UNL     1       2.081   7.945  19.177  0.00  0.00    +0.000 A 
ATOM      2  C   UNL     1       1.895   8.528  17.925  0.00  0.00    +0.000 A 
ATOM      3  C   UNL     1       1.056   9.635  17.798  0.00  0.00    +0.000 A 
ATOM      4  C   UNL     1       0.451  10.194  18.927  0.00  0.00    +0.000 A 
ATOM      5  C   UNL     1       0.689   9.665  20.203  0.00  0.00    +0.000 A 
ATOM      6  C   UNL     1       1.513   8.537  20.312  0.00  0.00    +0.000 A 
ENDROOT
BRANCH   5   7
ATOM      7  C   UNL     1       0.064  10.273  21.373  0.00  0.00    +0.000 A 
ATOM      8  N   UNL     1       0.430  10.243  22.638  0.00  0.00    +0.000 NA
ATOM      9  N   UNL     1      -0.514  10.970  23.339  0.00  0.00    +0.000 NA
ATOM     10  C   UNL     1      -1.402  11.381  22.448  0.00  0.00    +0.000 A 
ATOM     11  O   UNL     1      -1.097  10.978  21.178  0.00  0.00    +0.000 OA
BRANCH  10  12
ATOM     12  C   UNL     1      -2.632  12.139  22.644  0.00  0.00    +0.000 A 
ATOM     13  C   UNL     1      -3.220  12.191  23.917  0.00  0.00    +0.000 A 
ATOM     14  C   UNL     1      -4.425  12.863  24.122  0.00  0.00    +0.000 A 
ATOM     15  C   UNL     1      -5.070  13.488  23.053  0.00  0.00    +0.000 A 
ATOM     16  C   UNL     1      -4.501  13.459  21.775  0.00  0.00    +0.000 A 
ATOM     17  C   UNL     1      -5.193  14.112  20.613  0.00  0.00    +0.000 C 
ATOM     18  C   UNL     1      -3.278  12.798  21.583  0.00  0.00    +0.000 A 
ENDBRANCH  10  12
ENDBRANCH   5   7
BRANCH   1  21
ATOM     19  C   UNL     1       2.363   5.659  20.012  0.00  0.00    +0.000 C 
ATOM     20  O   UNL     1       1.276   5.613  20.587  0.00  0.00    +0.000 OA
ATOM     21  N   UNL     1       2.817   6.745  19.268  0.00  0.00    +0.000 N 
ATOM     22  H   UNL     1       3.451   6.527  18.506  0.00  0.00    +0.000 HD
BRANCH  19  23
ATOM     23  C   UNL     1       3.317   4.489  20.050  0.00  0.00    +0.000 C 
BRANCH  23  27
ATOM     24  C   UNL     1       6.013   4.150  16.665  0.00  0.00    +0.000 A 
ATOM     25  C   UNL     1       4.785   3.469  16.675  0.00  0.00    +0.000 A 
ATOM     26  C   UNL     1       3.891   3.587  17.746  0.00  0.00    +0.000 A 
ATOM     27  C   UNL     1       4.223   4.372  18.850  0.00  0.00    +0.000 A 
ATOM     28  C   UNL     1       5.474   4.999  18.868  0.00  0.00    +0.000 A 
ATOM     29  C   UNL     1       6.379   4.895  17.796  0.00  0.00    +0.000 A 
BRANCH  24  31
ATOM     30  C   UNL     1       6.629   5.021  14.547  0.00  0.00    +0.000 C 
ATOM     31  O   UNL     1       6.869   4.087  15.598  0.00  0.00    +0.000 OA
ENDBRANCH  24  31
BRANCH  29  32
ATOM     32  O   UNL     1       7.527   5.593  18.048  0.00  0.00    +0.000 OA
ATOM     33  C   UNL     1       8.003   5.702  19.378  0.00  0.00    +0.000 C 
ENDBRANCH  29  32
ENDBRANCH  23  27
ENDBRANCH  19  23
ENDBRANCH   1  21
TORSDOF 7
ENDMDL
MODEL 9
REMARK VINA RESULT:      -8.3      2.960     11.401
REMARK  Name = 
REMARK  10 active torsions:
REMARK  status: ('A' for Active; 'I' for Inactive)
REMARK    1  A    between atoms: C_1  and  O_2
REMARK    2  A    between atoms: O_2  and  C_3
REMARK    3  A    between atoms: C_6  and  C_7
REMARK    4  A    between atoms: C_7  and  C_8
REMARK    5  A    between atoms: N_10  and  C_11
REMARK    6  A    between atoms: C_15  and  C_16
REMARK    7  A    between atoms: C_19  and  C_20
REMARK    8  A    between atoms: C_24  and  C_25
REMARK    9  A    between atoms: C_30  and  O_31
REMARK   10  A    between atoms: O_31  and  C_32
REMARK                            x       y       z     vdW  Elec       q    Type
REMARK                         _______ _______ _______ _____ _____    ______ ____
ROOT
ATOM      1  C   UNL     1      -0.828  10.913  21.573  0.00  0.00    +0.000 A 
ATOM      2  C   UNL     1      -0.485  10.418  22.829  0.00  0.00    +0.000 A 
ATOM      3  C   UNL     1       0.470   9.407  22.935  0.00  0.00    +0.000 A 
ATOM      4  C   UNL     1       1.122   8.932  21.793  0.00  0.00    +0.000 A 
ATOM      5  C   UNL     1       0.843   9.474  20.531  0.00  0.00    +0.000 A 
ATOM      6  C   UNL     1      -0.137  10.471  20.437  0.00  0.00    +0.000 A 
ENDROOT
BRANCH   5   7
ATOM      7  C   UNL     1       1.548   8.981  19.353  0.00  0.00    +0.000 A 
ATOM      8  N   UNL     1       1.866   9.602  18.236  0.00  0.00    +0.000 NA
ATOM      9  N   UNL     1       2.519   8.678  17.443  0.00  0.00    +0.000 NA
ATOM     10  C   UNL     1       2.538   7.547  18.129  0.00  0.00    +0.000 A 
ATOM     11  O   UNL     1       1.942   7.666  19.354  0.00  0.00    +0.000 OA
BRANCH  10  12
ATOM     12  C   UNL     1       3.053   6.237  17.749  0.00  0.00    +0.000 A 
ATOM     13  C   UNL     1       2.313   5.085  18.054  0.00  0.00    +0.000 A 
ATOM     14  C   UNL     1       2.807   3.816  17.752  0.00  0.00    +0.000 A 
ATOM     15  C   UNL     1       4.057   3.675  17.146  0.00  0.00    +0.000 A 
ATOM     16  C   UNL     1       4.811   4.808  16.822  0.00  0.00    +0.000 A 
ATOM     17  C   UNL     1       6.164   4.671  16.186  0.00  0.00    +0.000 C 
ATOM     18  C   UNL     1       4.297   6.082  17.111  0.00  0.00    +0.000 A 
ENDBRANCH  10  12
ENDBRANCH   5   7
BRANCH   1  21
ATOM     19  C   UNL     1      -1.677  13.209  21.457  0.00  0.00    +0.000 C 
ATOM     20  O   UNL     1      -0.568  13.741  21.460  0.00  0.00    +0.000 OA
ATOM     21  N   UNL     1      -1.893  11.833  21.470  0.00  0.00    +0.000 N 
ATOM     22  H   UNL     1      -2.745  11.513  21.021  0.00  0.00    +0.000 HD
BRANCH  19  23
ATOM     23  C   UNL     1      -2.941  14.035  21.412  0.00  0.00    +0.000 C 
BRANCH  23  27
ATOM     24  C   UNL     1      -6.599  11.872  20.530  0.00  0.00    +0.000 A 
ATOM     25  C   UNL     1      -5.701  12.211  19.504  0.00  0.00    +0.000 A 
ATOM     26  C   UNL     1      -4.504  12.885  19.774  0.00  0.00    +0.000 A 
ATOM     27  C   UNL     1      -4.191  13.262  21.080  0.00  0.00    +0.000 A 
ATOM     28  C   UNL     1      -5.117  12.980  22.092  0.00  0.00    +0.000 A 
ATOM     29  C   UNL     1      -6.319  12.297  21.838  0.00  0.00    +0.000 A 
BRANCH  24  31
ATOM     30  C   UNL     1      -7.653   9.749  20.456  0.00  0.00    +0.000 C 
ATOM     31  O   UNL     1      -7.744  11.162  20.286  0.00  0.00    +0.000 OA
ENDBRANCH  24  31
BRANCH  29  32
ATOM     32  O   UNL     1      -7.052  12.141  22.982  0.00  0.00    +0.000 OA
ATOM     33  C   UNL     1      -6.740  12.918  24.124  0.00  0.00    +0.000 C 
ENDBRANCH  29  32
ENDBRANCH  23  27
ENDBRANCH  19  23
ENDBRANCH   1  21
TORSDOF 7
ENDMDL
