MODEL 1
REMARK VINA RESULT:      -8.4      0.000      0.000
REMARK  Name = 
REMARK  2 active torsions:
REMARK  status: ('A' for Active; 'I' for Inactive)
REMARK    1  A    between atoms: C_2  and  C_12
REMARK    2  A    between atoms: N_3  and  C_4
REMARK                            x       y       z     vdW  Elec       q    Type
REMARK                         _______ _______ _______ _____ _____    ______ ____
ROOT
ATOM      1  O   UNL     1       1.859   8.081  20.336  0.00  0.00    +0.000 OA
ATOM      2  C   UNL     1       2.077   7.906  19.140  0.00  0.00    +0.000 C 
ATOM      3  N   UNL     1       1.730   8.776  18.121  0.00  0.00    +0.000 N 
ATOM      4  H   UNL     1       1.783   8.421  17.172  0.00  0.00    +0.000 HD
ENDROOT
BRANCH   2   5
ATOM      5  C   UNL     1       2.696   6.614  18.759  0.00  0.00    +0.000 A 
ATOM      6  C   UNL     1       3.654   6.685  17.713  0.00  0.00    +0.000 A 
ATOM      7  C   UNL     1       4.234   5.540  17.152  0.00  0.00    +0.000 A 
ATOM      8  C   UNL     1       3.815   4.329  17.675  0.00  0.00    +0.000 A 
ATOM      9  C   UNL     1       2.893   4.262  18.702  0.00  0.00    +0.000 A 
ATOM     10  C   UNL     1       2.608   2.949  19.027  0.00  0.00    +0.000 A 
ATOM     11  C   UNL     1       1.691   2.632  20.015  0.00  0.00    +0.000 A 
ATOM     12  C   UNL     1       1.052   3.711  20.641  0.00  0.00    +0.000 A 
ATOM     13  C   UNL     1       1.326   5.045  20.279  0.00  0.00    +0.000 A 
ATOM     14  C   UNL     1       2.290   5.355  19.283  0.00  0.00    +0.000 A 
ATOM     15  C   UNL     1       3.379   2.018  18.155  0.00  0.00    +0.000 C 
ATOM     16  C   UNL     1       4.209   2.962  17.235  0.00  0.00    +0.000 C 
ENDBRANCH   2   5
BRANCH   3  17
ATOM     17  C   UNL     1       1.143  10.053  18.302  0.00  0.00    +0.000 A 
ATOM     18  C   UNL     1       1.895  11.225  18.453  0.00  0.00    +0.000 A 
ATOM     19  C   UNL     1       1.268  12.445  18.702  0.00  0.00    +0.000 A 
ATOM     20 CL   UNL     1       2.220  13.864  18.917  0.00  0.00    +0.000 Cl
ATOM     21  C   UNL     1      -0.116  12.525  18.788  0.00  0.00    +0.000 A 
ATOM     22  C   UNL     1      -0.870  11.372  18.596  0.00  0.00    +0.000 A 
ATOM     23 CL   UNL     1      -2.586  11.458  18.693  0.00  0.00    +0.000 Cl
ATOM     24  C   UNL     1      -0.252  10.141  18.343  0.00  0.00    +0.000 A 
ENDBRANCH   3  17
TORSDOF 2
ENDMDL
MODEL 2
REMARK VINA RESULT:      -8.4      0.188      1.883
REMARK  Name = 
REMARK  2 active torsions:
REMARK  status: ('A' for Active; 'I' for Inactive)
REMARK    1  A    between atoms: C_2  and  C_12
REMARK    2  A    between atoms: N_3  and  C_4
REMARK                            x       y       z     vdW  Elec       q    Type
REMARK                         _______ _______ _______ _____ _____    ______ ____
ROOT
ATOM      1  O   UNL     1       1.791   8.152  20.431  0.00  0.00    +0.000 OA
ATOM      2  C   UNL     1       1.996   8.005  19.229  0.00  0.00    +0.000 C 
ATOM      3  N   UNL     1       1.601   8.878  18.230  0.00  0.00    +0.000 N 
ATOM      4  H   UNL     1       1.652   8.542  17.275  0.00  0.00    +0.000 HD
ENDROOT
BRANCH   2   5
ATOM      5  C   UNL     1       2.656   6.744  18.815  0.00  0.00    +0.000 A 
ATOM      6  C   UNL     1       3.609   6.871  17.770  0.00  0.00    +0.000 A 
ATOM      7  C   UNL     1       4.225   5.760  17.182  0.00  0.00    +0.000 A 
ATOM      8  C   UNL     1       3.846   4.524  17.676  0.00  0.00    +0.000 A 
ATOM      9  C   UNL     1       2.930   4.401  18.701  0.00  0.00    +0.000 A 
ATOM     10  C   UNL     1       2.687   3.073  18.995  0.00  0.00    +0.000 A 
ATOM     11  C   UNL     1       1.783   2.702  19.976  0.00  0.00    +0.000 A 
ATOM     12  C   UNL     1       1.110   3.744  20.628  0.00  0.00    +0.000 A 
ATOM     13  C   UNL     1       1.340   5.095  20.299  0.00  0.00    +0.000 A 
ATOM     14  C   UNL     1       2.292   5.459  19.310  0.00  0.00    +0.000 A 
ATOM     15  C   UNL     1       3.486   2.188  18.099  0.00  0.00    +0.000 C 
ATOM     16  C   UNL     1       4.284   3.181  17.202  0.00  0.00    +0.000 C 
ENDBRANCH   2   5
BRANCH   3  17
ATOM     17  C   UNL     1       0.970  10.130  18.443  0.00  0.00    +0.000 A 
ATOM     18  C   UNL     1      -0.417  10.276  18.562  0.00  0.00    +0.000 A 
ATOM     19  C   UNL     1      -0.990  11.540  18.697  0.00  0.00    +0.000 A 
ATOM     20 CL   UNL     1      -2.702  11.693  18.807  0.00  0.00    +0.000 Cl
ATOM     21  C   UNL     1      -0.194  12.677  18.734  0.00  0.00    +0.000 A 
ATOM     22  C   UNL     1       1.188  12.534  18.659  0.00  0.00    +0.000 A 
ATOM     23 CL   UNL     1       2.186  13.935  18.710  0.00  0.00    +0.000 Cl
ATOM     24  C   UNL     1       1.775  11.271  18.526  0.00  0.00    +0.000 A 
ENDBRANCH   3  17
TORSDOF 2
ENDMDL
MODEL 3
REMARK VINA RESULT:      -8.2      5.180      7.783
REMARK  Name = 
REMARK  2 active torsions:
REMARK  status: ('A' for Active; 'I' for Inactive)
REMARK    1  A    between atoms: C_2  and  C_12
REMARK    2  A    between atoms: N_3  and  C_4
REMARK                            x       y       z     vdW  Elec       q    Type
REMARK                         _______ _______ _______ _____ _____    ______ ____
ROOT
ATOM      1  O   UNL     1       7.019   4.435  17.078  0.00  0.00    +0.000 OA
ATOM      2  C   UNL     1       5.815   4.465  16.837  0.00  0.00    +0.000 C 
ATOM      3  N   UNL     1       5.244   4.454  15.576  0.00  0.00    +0.000 N 
ATOM      4  H   UNL     1       4.259   4.685  15.512  0.00  0.00    +0.000 HD
ENDROOT
BRANCH   2   5
ATOM      5  C   UNL     1       4.905   4.600  18.000  0.00  0.00    +0.000 A 
ATOM      6  C   UNL     1       4.802   3.451  18.828  0.00  0.00    +0.000 A 
ATOM      7  C   UNL     1       3.892   3.375  19.890  0.00  0.00    +0.000 A 
ATOM      8  C   UNL     1       3.092   4.488  20.084  0.00  0.00    +0.000 A 
ATOM      9  C   UNL     1       3.203   5.610  19.287  0.00  0.00    +0.000 A 
ATOM     10  C   UNL     1       2.278   6.571  19.651  0.00  0.00    +0.000 A 
ATOM     11  C   UNL     1       2.184   7.776  18.977  0.00  0.00    +0.000 A 
ATOM     12  C   UNL     1       3.055   7.953  17.893  0.00  0.00    +0.000 A 
ATOM     13  C   UNL     1       3.973   6.954  17.510  0.00  0.00    +0.000 A 
ATOM     14  C   UNL     1       4.076   5.734  18.229  0.00  0.00    +0.000 A 
ATOM     15  C   UNL     1       1.442   6.084  20.785  0.00  0.00    +0.000 C 
ATOM     16  C   UNL     1       2.003   4.662  21.086  0.00  0.00    +0.000 C 
ENDBRANCH   2   5
BRANCH   3  17
ATOM     17  C   UNL     1       5.957   4.319  14.358  0.00  0.00    +0.000 A 
ATOM     18  C   UNL     1       6.966   5.205  13.961  0.00  0.00    +0.000 A 
ATOM     19  C   UNL     1       7.585   5.068  12.719  0.00  0.00    +0.000 A 
ATOM     20 CL   UNL     1       8.799   6.194  12.244  0.00  0.00    +0.000 Cl
ATOM     21  C   UNL     1       7.226   4.039  11.860  0.00  0.00    +0.000 A 
ATOM     22  C   UNL     1       6.254   3.130  12.267  0.00  0.00    +0.000 A 
ATOM     23 CL   UNL     1       5.804   1.846  11.214  0.00  0.00    +0.000 Cl
ATOM     24  C   UNL     1       5.628   3.255  13.512  0.00  0.00    +0.000 A 
ENDBRANCH   3  17
TORSDOF 2
ENDMDL
MODEL 4
REMARK VINA RESULT:      -8.1      5.170      7.971
REMARK  Name = 
REMARK  2 active torsions:
REMARK  status: ('A' for Active; 'I' for Inactive)
REMARK    1  A    between atoms: C_2  and  C_12
REMARK    2  A    between atoms: N_3  and  C_4
REMARK                            x       y       z     vdW  Elec       q    Type
REMARK                         _______ _______ _______ _____ _____    ______ ____
ROOT
ATOM      1  O   UNL     1       6.946   4.462  17.014  0.00  0.00    +0.000 OA
ATOM      2  C   UNL     1       5.737   4.469  16.801  0.00  0.00    +0.000 C 
ATOM      3  N   UNL     1       5.137   4.430  15.553  0.00  0.00    +0.000 N 
ATOM      4  H   UNL     1       4.147   4.645  15.509  0.00  0.00    +0.000 HD
ENDROOT
BRANCH   2   5
ATOM      5  C   UNL     1       4.852   4.607  17.982  0.00  0.00    +0.000 A 
ATOM      6  C   UNL     1       4.759   3.456  18.809  0.00  0.00    +0.000 A 
ATOM      7  C   UNL     1       3.870   3.383  19.890  0.00  0.00    +0.000 A 
ATOM      8  C   UNL     1       3.081   4.500  20.103  0.00  0.00    +0.000 A 
ATOM      9  C   UNL     1       3.182   5.623  19.306  0.00  0.00    +0.000 A 
ATOM     10  C   UNL     1       2.271   6.588  19.691  0.00  0.00    +0.000 A 
ATOM     11  C   UNL     1       2.170   7.796  19.022  0.00  0.00    +0.000 A 
ATOM     12  C   UNL     1       3.020   7.971  17.921  0.00  0.00    +0.000 A 
ATOM     13  C   UNL     1       3.923   6.967  17.516  0.00  0.00    +0.000 A 
ATOM     14  C   UNL     1       4.033   5.745  18.231  0.00  0.00    +0.000 A 
ATOM     15  C   UNL     1       1.454   6.104  20.841  0.00  0.00    +0.000 C 
ATOM     16  C   UNL     1       2.014   4.678  21.127  0.00  0.00    +0.000 C 
ENDBRANCH   2   5
BRANCH   3  17
ATOM     17  C   UNL     1       5.825   4.289  14.322  0.00  0.00    +0.000 A 
ATOM     18  C   UNL     1       5.514   3.298  13.382  0.00  0.00    +0.000 A 
ATOM     19  C   UNL     1       6.270   3.158  12.219  0.00  0.00    +0.000 A 
ATOM     20 CL   UNL     1       5.885   1.910  11.098  0.00  0.00    +0.000 Cl
ATOM     21  C   UNL     1       7.336   4.010  11.962  0.00  0.00    +0.000 A 
ATOM     22  C   UNL     1       7.623   5.023  12.871  0.00  0.00    +0.000 A 
ATOM     23 CL   UNL     1       8.937   6.090  12.561  0.00  0.00    +0.000 Cl
ATOM     24  C   UNL     1       6.869   5.175  14.041  0.00  0.00    +0.000 A 
ENDBRANCH   3  17
TORSDOF 2
ENDMDL
MODEL 5
REMARK VINA RESULT:      -8.1      1.613      1.949
REMARK  Name = 
REMARK  2 active torsions:
REMARK  status: ('A' for Active; 'I' for Inactive)
REMARK    1  A    between atoms: C_2  and  C_12
REMARK    2  A    between atoms: N_3  and  C_4
REMARK                            x       y       z     vdW  Elec       q    Type
REMARK                         _______ _______ _______ _____ _____    ______ ____
ROOT
ATOM      1  O   UNL     1       1.593   7.669  21.274  0.00  0.00    +0.000 OA
ATOM      2  C   UNL     1       1.771   7.801  20.066  0.00  0.00    +0.000 C 
ATOM      3  N   UNL     1       1.331   8.865  19.297  0.00  0.00    +0.000 N 
ATOM      4  H   UNL     1       1.366   8.753  18.290  0.00  0.00    +0.000 HD
ENDROOT
BRANCH   2   5
ATOM      5  C   UNL     1       2.449   6.684  19.366  0.00  0.00    +0.000 A 
ATOM      6  C   UNL     1       3.317   7.066  18.310  0.00  0.00    +0.000 A 
ATOM      7  C   UNL     1       3.932   6.127  17.472  0.00  0.00    +0.000 A 
ATOM      8  C   UNL     1       3.640   4.799  17.731  0.00  0.00    +0.000 A 
ATOM      9  C   UNL     1       2.806   4.428  18.767  0.00  0.00    +0.000 A 
ATOM     10  C   UNL     1       2.639   3.056  18.803  0.00  0.00    +0.000 A 
ATOM     11  C   UNL     1       1.824   2.451  19.745  0.00  0.00    +0.000 A 
ATOM     12  C   UNL     1       1.160   3.306  20.636  0.00  0.00    +0.000 A 
ATOM     13  C   UNL     1       1.311   4.706  20.570  0.00  0.00    +0.000 A 
ATOM     14  C   UNL     1       2.173   5.309  19.615  0.00  0.00    +0.000 A 
ATOM     15  C   UNL     1       3.405   2.410  17.699  0.00  0.00    +0.000 C 
ATOM     16  C   UNL     1       4.095   3.602  16.970  0.00  0.00    +0.000 C 
ENDBRANCH   2   5
BRANCH   3  17
ATOM     17  C   UNL     1       0.678  10.020  19.798  0.00  0.00    +0.000 A 
ATOM     18  C   UNL     1       0.134  10.091  21.087  0.00  0.00    +0.000 A 
ATOM     19  C   UNL     1      -0.562  11.226  21.503  0.00  0.00    +0.000 A 
ATOM     20 CL   UNL     1      -1.248  11.272  23.081  0.00  0.00    +0.000 Cl
ATOM     21  C   UNL     1      -0.714  12.313  20.653  0.00  0.00    +0.000 A 
ATOM     22  C   UNL     1      -0.139  12.264  19.387  0.00  0.00    +0.000 A 
ATOM     23 CL   UNL     1      -0.314  13.608  18.327  0.00  0.00    +0.000 Cl
ATOM     24  C   UNL     1       0.565  11.132  18.959  0.00  0.00    +0.000 A 
ENDBRANCH   3  17
TORSDOF 2
ENDMDL
MODEL 6
REMARK VINA RESULT:      -8.1      3.778      7.820
REMARK  Name = 
REMARK  2 active torsions:
REMARK  status: ('A' for Active; 'I' for Inactive)
REMARK    1  A    between atoms: C_2  and  C_12
REMARK    2  A    between atoms: N_3  and  C_4
REMARK                            x       y       z     vdW  Elec       q    Type
REMARK                         _______ _______ _______ _____ _____    ______ ____
ROOT
ATOM      1  O   UNL     1       2.025   8.186  18.593  0.00  0.00    +0.000 OA
ATOM      2  C   UNL     1       1.808   7.894  19.766  0.00  0.00    +0.000 C 
ATOM      3  N   UNL     1       2.117   6.685  20.367  0.00  0.00    +0.000 N 
ATOM      4  H   UNL     1       1.704   6.501  21.275  0.00  0.00    +0.000 HD
ENDROOT
BRANCH   2   5
ATOM      5  C   UNL     1       1.083   8.899  20.581  0.00  0.00    +0.000 A 
ATOM      6  C   UNL     1       1.176   8.722  21.987  0.00  0.00    +0.000 A 
ATOM      7  C   UNL     1       0.448   9.509  22.887  0.00  0.00    +0.000 A 
ATOM      8  C   UNL     1      -0.375  10.470  22.326  0.00  0.00    +0.000 A 
ATOM      9  C   UNL     1      -0.454  10.650  20.959  0.00  0.00    +0.000 A 
ATOM     10  C   UNL     1      -1.365  11.640  20.640  0.00  0.00    +0.000 A 
ATOM     11  C   UNL     1      -1.631  11.981  19.325  0.00  0.00    +0.000 A 
ATOM     12  C   UNL     1      -0.950  11.250  18.342  0.00  0.00    +0.000 A 
ATOM     13  C   UNL     1      -0.048  10.220  18.677  0.00  0.00    +0.000 A 
ATOM     14  C   UNL     1       0.235   9.902  20.032  0.00  0.00    +0.000 A 
ATOM     15  C   UNL     1      -1.986  12.193  21.878  0.00  0.00    +0.000 C 
ATOM     16  C   UNL     1      -1.304  11.398  23.031  0.00  0.00    +0.000 C 
ENDBRANCH   2   5
BRANCH   3  17
ATOM     17  C   UNL     1       2.814   5.619  19.745  0.00  0.00    +0.000 A 
ATOM     18  C   UNL     1       4.183   5.670  19.453  0.00  0.00    +0.000 A 
ATOM     19  C   UNL     1       4.804   4.622  18.774  0.00  0.00    +0.000 A 
ATOM     20 CL   UNL     1       6.481   4.726  18.398  0.00  0.00    +0.000 Cl
ATOM     21  C   UNL     1       4.081   3.501  18.390  0.00  0.00    +0.000 A 
ATOM     22  C   UNL     1       2.730   3.427  18.716  0.00  0.00    +0.000 A 
ATOM     23 CL   UNL     1       1.824   2.039  18.251  0.00  0.00    +0.000 Cl
ATOM     24  C   UNL     1       2.096   4.471  19.399  0.00  0.00    +0.000 A 
ENDBRANCH   3  17
TORSDOF 2
ENDMDL
MODEL 7
REMARK VINA RESULT:      -8.0      5.045      7.470
REMARK  Name = 
REMARK  2 active torsions:
REMARK  status: ('A' for Active; 'I' for Inactive)
REMARK    1  A    between atoms: C_2  and  C_12
REMARK    2  A    between atoms: N_3  and  C_4
REMARK                            x       y       z     vdW  Elec       q    Type
REMARK                         _______ _______ _______ _____ _____    ______ ____
ROOT
ATOM      1  O   UNL     1       5.501   6.597  16.074  0.00  0.00    +0.000 OA
ATOM      2  C   UNL     1       4.878   5.549  16.220  0.00  0.00    +0.000 C 
ATOM      3  N   UNL     1       4.954   4.442  15.391  0.00  0.00    +0.000 N 
ATOM      4  H   UNL     1       4.243   3.728  15.506  0.00  0.00    +0.000 HD
ENDROOT
BRANCH   2   5
ATOM      5  C   UNL     1       3.906   5.501  17.339  0.00  0.00    +0.000 A 
ATOM      6  C   UNL     1       3.606   6.754  17.937  0.00  0.00    +0.000 A 
ATOM      7  C   UNL     1       2.808   6.863  19.082  0.00  0.00    +0.000 A 
ATOM      8  C   UNL     1       2.329   5.673  19.603  0.00  0.00    +0.000 A 
ATOM      9  C   UNL     1       2.610   4.457  19.013  0.00  0.00    +0.000 A 
ATOM     10  C   UNL     1       2.054   3.416  19.733  0.00  0.00    +0.000 A 
ATOM     11  C   UNL     1       2.222   2.097  19.345  0.00  0.00    +0.000 A 
ATOM     12  C   UNL     1       3.009   1.879  18.205  0.00  0.00    +0.000 A 
ATOM     13  C   UNL     1       3.598   2.946  17.497  0.00  0.00    +0.000 A 
ATOM     14  C   UNL     1       3.392   4.294  17.892  0.00  0.00    +0.000 A 
ATOM     15  C   UNL     1       1.335   3.937  20.931  0.00  0.00    +0.000 C 
ATOM     16  C   UNL     1       1.517   5.482  20.838  0.00  0.00    +0.000 C 
ENDBRANCH   2   5
BRANCH   3  17
ATOM     17  C   UNL     1       5.832   4.309  14.286  0.00  0.00    +0.000 A 
ATOM     18  C   UNL     1       6.936   5.146  14.083  0.00  0.00    +0.000 A 
ATOM     19  C   UNL     1       7.725   5.018  12.940  0.00  0.00    +0.000 A 
ATOM     20 CL   UNL     1       9.057   6.082  12.700  0.00  0.00    +0.000 Cl
ATOM     21  C   UNL     1       7.440   4.046  11.989  0.00  0.00    +0.000 A 
ATOM     22  C   UNL     1       6.369   3.185  12.207  0.00  0.00    +0.000 A 
ATOM     23 CL   UNL     1       6.009   1.972  11.040  0.00  0.00    +0.000 Cl
ATOM     24  C   UNL     1       5.572   3.302  13.352  0.00  0.00    +0.000 A 
ENDBRANCH   3  17
TORSDOF 2
ENDMDL
MODEL 8
REMARK VINA RESULT:      -8.0      3.761      8.000
REMARK  Name = 
REMARK  2 active torsions:
REMARK  status: ('A' for Active; 'I' for Inactive)
REMARK    1  A    between atoms: C_2  and  C_12
REMARK    2  A    between atoms: N_3  and  C_4
REMARK                            x       y       z     vdW  Elec       q    Type
REMARK                         _______ _______ _______ _____ _____    ______ ____
ROOT
ATOM      1  O   UNL     1       1.993   8.306  18.391  0.00  0.00    +0.000 OA
ATOM      2  C   UNL     1       1.853   7.976  19.566  0.00  0.00    +0.000 C 
ATOM      3  N   UNL     1       2.251   6.770  20.118  0.00  0.00    +0.000 N 
ATOM      4  H   UNL     1       1.897   6.545  21.041  0.00  0.00    +0.000 HD
ENDROOT
BRANCH   2   5
ATOM      5  C   UNL     1       1.126   8.925  20.443  0.00  0.00    +0.000 A 
ATOM      6  C   UNL     1       1.234   8.670  21.835  0.00  0.00    +0.000 A 
ATOM      7  C   UNL     1       0.507   9.397  22.786  0.00  0.00    +0.000 A 
ATOM      8  C   UNL     1      -0.331  10.379  22.288  0.00  0.00    +0.000 A 
ATOM      9  C   UNL     1      -0.425  10.636  20.934  0.00  0.00    +0.000 A 
ATOM     10  C   UNL     1      -1.349  11.632  20.680  0.00  0.00    +0.000 A 
ATOM     11  C   UNL     1      -1.631  12.045  19.389  0.00  0.00    +0.000 A 
ATOM     12  C   UNL     1      -0.953  11.378  18.360  0.00  0.00    +0.000 A 
ATOM     13  C   UNL     1      -0.036  10.341  18.628  0.00  0.00    +0.000 A 
ATOM     14  C   UNL     1       0.263   9.948  19.959  0.00  0.00    +0.000 A 
ATOM     15  C   UNL     1      -1.964  12.107  21.953  0.00  0.00    +0.000 C 
ATOM     16  C   UNL     1      -1.263  11.255  23.053  0.00  0.00    +0.000 C 
ENDBRANCH   2   5
BRANCH   3  17
ATOM     17  C   UNL     1       2.964   5.755  19.433  0.00  0.00    +0.000 A 
ATOM     18  C   UNL     1       2.347   4.621  18.889  0.00  0.00    +0.000 A 
ATOM     19  C   UNL     1       3.106   3.617  18.290  0.00  0.00    +0.000 A 
ATOM     20 CL   UNL     1       2.323   2.219  17.659  0.00  0.00    +0.000 Cl
ATOM     21  C   UNL     1       4.487   3.730  18.205  0.00  0.00    +0.000 A 
ATOM     22  C   UNL     1       5.102   4.873  18.705  0.00  0.00    +0.000 A 
ATOM     23 CL   UNL     1       6.812   5.028  18.601  0.00  0.00    +0.000 Cl
ATOM     24  C   UNL     1       4.350   5.890  19.307  0.00  0.00    +0.000 A 
ENDBRANCH   3  17
TORSDOF 2
ENDMDL
MODEL 9
REMARK VINA RESULT:      -8.0      1.574      1.598
REMARK  Name = 
REMARK  2 active torsions:
REMARK  status: ('A' for Active; 'I' for Inactive)
REMARK    1  A    between atoms: C_2  and  C_12
REMARK    2  A    between atoms: N_3  and  C_4
REMARK                            x       y       z     vdW  Elec       q    Type
REMARK                         _______ _______ _______ _____ _____    ______ ____
ROOT
ATOM      1  O   UNL     1       1.660   7.773  21.238  0.00  0.00    +0.000 OA
ATOM      2  C   UNL     1       1.788   7.850  20.019  0.00  0.00    +0.000 C 
ATOM      3  N   UNL     1       1.303   8.871  19.220  0.00  0.00    +0.000 N 
ATOM      4  H   UNL     1       1.300   8.713  18.218  0.00  0.00    +0.000 HD
ENDROOT
BRANCH   2   5
ATOM      5  C   UNL     1       2.455   6.711  19.345  0.00  0.00    +0.000 A 
ATOM      6  C   UNL     1       3.329   7.060  18.282  0.00  0.00    +0.000 A 
ATOM      7  C   UNL     1       3.936   6.097  17.466  0.00  0.00    +0.000 A 
ATOM      8  C   UNL     1       3.629   4.778  17.754  0.00  0.00    +0.000 A 
ATOM      9  C   UNL     1       2.791   4.439  18.797  0.00  0.00    +0.000 A 
ATOM     10  C   UNL     1       2.610   3.070  18.863  0.00  0.00    +0.000 A 
ATOM     11  C   UNL     1       1.788   2.494  19.817  0.00  0.00    +0.000 A 
ATOM     12  C   UNL     1       1.131   3.376  20.687  0.00  0.00    +0.000 A 
ATOM     13  C   UNL     1       1.297   4.772  20.591  0.00  0.00    +0.000 A 
ATOM     14  C   UNL     1       2.166   5.345  19.624  0.00  0.00    +0.000 A 
ATOM     15  C   UNL     1       3.370   2.391  17.775  0.00  0.00    +0.000 C 
ATOM     16  C   UNL     1       4.073   3.559  17.021  0.00  0.00    +0.000 C 
ENDBRANCH   2   5
BRANCH   3  17
ATOM     17  C   UNL     1       0.652  10.039  19.692  0.00  0.00    +0.000 A 
ATOM     18  C   UNL     1       0.587  11.228  18.956  0.00  0.00    +0.000 A 
ATOM     19  C   UNL     1      -0.003  12.369  19.499  0.00  0.00    +0.000 A 
ATOM     20 CL   UNL     1      -0.039  13.827  18.584  0.00  0.00    +0.000 Cl
ATOM     21  C   UNL     1      -0.551  12.343  20.774  0.00  0.00    +0.000 A 
ATOM     22  C   UNL     1      -0.528  11.152  21.493  0.00  0.00    +0.000 A 
ATOM     23 CL   UNL     1      -1.210  11.104  23.072  0.00  0.00    +0.000 Cl
ATOM     24  C   UNL     1       0.059   9.999  20.957  0.00  0.00    +0.000 A 
ENDBRANCH   3  17
TORSDOF 2
ENDMDL
