MODEL 1
REMARK VINA RESULT:      -9.5      0.000      0.000
REMARK  Name = 
REMARK  6 active torsions:
REMARK  status: ('A' for Active; 'I' for Inactive)
REMARK    1  A    between atoms: C_4  and  C_5
REMARK    2  A    between atoms: C_5  and  C_6
REMARK    3  A    between atoms: C_5  and  C_17
REMARK    4  A    between atoms: C_5  and  C_23
REMARK    5  A    between atoms: C_6  and  C_7
REMARK    6  A    between atoms: C_7  and  N_8
REMARK                            x       y       z     vdW  Elec       q    Type
REMARK                         _______ _______ _______ _____ _____    ______ ____
ROOT
ATOM      1  C   UNL     1       5.372   5.226  16.719  0.00  0.00    +0.000 C 
ENDROOT
BRANCH   1   5
ATOM      2  C   UNL     1       8.423   7.694  18.740  0.00  0.00    +0.000 A 
ATOM      3  C   UNL     1       8.256   6.362  19.096  0.00  0.00    +0.000 A 
ATOM      4  C   UNL     1       7.370   5.546  18.384  0.00  0.00    +0.000 A 
ATOM      5  C   UNL     1       6.538   6.054  17.377  0.00  0.00    +0.000 A 
ATOM      6  C   UNL     1       6.765   7.408  17.008  0.00  0.00    +0.000 A 
ATOM      7  C   UNL     1       7.705   8.208  17.669  0.00  0.00    +0.000 A 
ENDBRANCH   1   5
BRANCH   1   8
ATOM      8  C   UNL     1       5.910   4.715  15.305  0.00  0.00    +0.000 A 
ATOM      9  C   UNL     1       7.199   5.056  14.812  0.00  0.00    +0.000 A 
ATOM     10  C   UNL     1       7.605   4.752  13.505  0.00  0.00    +0.000 A 
ATOM     11  C   UNL     1       6.736   4.119  12.633  0.00  0.00    +0.000 A 
ATOM     12  C   UNL     1       5.458   3.788  13.085  0.00  0.00    +0.000 A 
ATOM     13  C   UNL     1       5.050   4.090  14.386  0.00  0.00    +0.000 A 
ENDBRANCH   1   8
BRANCH   1  14
ATOM     14  C   UNL     1       4.953   3.979  17.620  0.00  0.00    +0.000 A 
ATOM     15  C   UNL     1       4.373   2.804  17.110  0.00  0.00    +0.000 A 
ATOM     16  C   UNL     1       3.949   1.769  17.959  0.00  0.00    +0.000 A 
ATOM     17  C   UNL     1       4.098   1.878  19.338  0.00  0.00    +0.000 A 
ATOM     18  C   UNL     1       4.673   3.021  19.874  0.00  0.00    +0.000 A 
ATOM     19  C   UNL     1       5.097   4.051  19.031  0.00  0.00    +0.000 A 
ENDBRANCH   1  14
BRANCH   1  20
ATOM     20  C   UNL     1       3.985   6.079  16.609  0.00  0.00    +0.000 C 
BRANCH  20  21
ATOM     21  C   UNL     1       3.488   7.027  17.727  0.00  0.00    +0.000 C 
BRANCH  21  22
ATOM     22  N   UNL     1       2.548   6.450  18.705  0.00  0.00    +0.000 N 
ATOM     23  C   UNL     1       2.365   7.051  19.929  0.00  0.00    +0.000 A 
ATOM     24  N   UNL     1       1.983   6.201  20.848  0.00  0.00    +0.000 NA
ATOM     25  C   UNL     1       1.654   5.071  20.154  0.00  0.00    +0.000 A 
ATOM     26  C   UNL     1       1.056   3.902  20.661  0.00  0.00    +0.000 A 
ATOM     27  C   UNL     1       0.557   2.960  19.769  0.00  0.00    +0.000 A 
ATOM     28  C   UNL     1       0.746   3.138  18.398  0.00  0.00    +0.000 A 
ATOM     29  C   UNL     1       1.479   4.233  17.876  0.00  0.00    +0.000 A 
ATOM     30  C   UNL     1       1.913   5.219  18.783  0.00  0.00    +0.000 A 
ENDBRANCH  21  22
ENDBRANCH  20  21
ENDBRANCH   1  20
TORSDOF 6
ENDMDL
MODEL 2
REMARK VINA RESULT:      -9.5      2.057      6.618
REMARK  Name = 
REMARK  6 active torsions:
REMARK  status: ('A' for Active; 'I' for Inactive)
REMARK    1  A    between atoms: C_4  and  C_5
REMARK    2  A    between atoms: C_5  and  C_6
REMARK    3  A    between atoms: C_5  and  C_17
REMARK    4  A    between atoms: C_5  and  C_23
REMARK    5  A    between atoms: C_6  and  C_7
REMARK    6  A    between atoms: C_7  and  N_8
REMARK                            x       y       z     vdW  Elec       q    Type
REMARK                         _______ _______ _______ _____ _____    ______ ____
ROOT
ATOM      1  C   UNL     1       3.896   5.619  18.307  0.00  0.00    +0.000 C 
ENDROOT
BRANCH   1   5
ATOM      2  C   UNL     1       2.702   2.525  21.220  0.00  0.00    +0.000 A 
ATOM      3  C   UNL     1       3.859   2.366  20.468  0.00  0.00    +0.000 A 
ATOM      4  C   UNL     1       4.302   3.391  19.626  0.00  0.00    +0.000 A 
ATOM      5  C   UNL     1       3.550   4.555  19.415  0.00  0.00    +0.000 A 
ATOM      6  C   UNL     1       2.396   4.707  20.231  0.00  0.00    +0.000 A 
ATOM      7  C   UNL     1       1.991   3.713  21.131  0.00  0.00    +0.000 A 
ENDBRANCH   1   5
BRANCH   1   8
ATOM      8  C   UNL     1       2.889   6.842  18.512  0.00  0.00    +0.000 A 
ATOM      9  C   UNL     1       2.595   7.770  17.476  0.00  0.00    +0.000 A 
ATOM     10  C   UNL     1       1.849   8.935  17.702  0.00  0.00    +0.000 A 
ATOM     11  C   UNL     1       1.388   9.232  18.974  0.00  0.00    +0.000 A 
ATOM     12  C   UNL     1       1.676   8.347  20.013  0.00  0.00    +0.000 A 
ATOM     13  C   UNL     1       2.419   7.187  19.791  0.00  0.00    +0.000 A 
ENDBRANCH   1   8
BRANCH   1  14
ATOM     14  C   UNL     1       5.400   6.132  18.432  0.00  0.00    +0.000 A 
ATOM     15  C   UNL     1       5.942   7.170  17.652  0.00  0.00    +0.000 A 
ATOM     16  C   UNL     1       7.296   7.526  17.747  0.00  0.00    +0.000 A 
ATOM     17  C   UNL     1       8.145   6.860  18.626  0.00  0.00    +0.000 A 
ATOM     18  C   UNL     1       7.641   5.837  19.416  0.00  0.00    +0.000 A 
ATOM     19  C   UNL     1       6.293   5.481  19.324  0.00  0.00    +0.000 A 
ENDBRANCH   1  14
BRANCH   1  20
ATOM     20  C   UNL     1       3.848   4.992  16.802  0.00  0.00    +0.000 C 
BRANCH  20  21
ATOM     21  C   UNL     1       4.631   3.721  16.394  0.00  0.00    +0.000 C 
BRANCH  21  22
ATOM     22  N   UNL     1       5.815   3.928  15.539  0.00  0.00    +0.000 N 
ATOM     23  C   UNL     1       6.968   4.459  16.070  0.00  0.00    +0.000 A 
ATOM     24  N   UNL     1       7.688   5.080  15.172  0.00  0.00    +0.000 NA
ATOM     25  C   UNL     1       7.127   4.725  13.977  0.00  0.00    +0.000 A 
ATOM     26  C   UNL     1       7.610   5.017  12.688  0.00  0.00    +0.000 A 
ATOM     27  C   UNL     1       7.057   4.357  11.596  0.00  0.00    +0.000 A 
ATOM     28  C   UNL     1       5.973   3.498  11.785  0.00  0.00    +0.000 A 
ATOM     29  C   UNL     1       5.376   3.308  13.056  0.00  0.00    +0.000 A 
ATOM     30  C   UNL     1       5.992   3.922  14.163  0.00  0.00    +0.000 A 
ENDBRANCH  21  22
ENDBRANCH  20  21
ENDBRANCH   1  20
TORSDOF 6
ENDMDL
MODEL 3
REMARK VINA RESULT:      -9.5      0.153      4.243
REMARK  Name = 
REMARK  6 active torsions:
REMARK  status: ('A' for Active; 'I' for Inactive)
REMARK    1  A    between atoms: C_4  and  C_5
REMARK    2  A    between atoms: C_5  and  C_6
REMARK    3  A    between atoms: C_5  and  C_17
REMARK    4  A    between atoms: C_5  and  C_23
REMARK    5  A    between atoms: C_6  and  C_7
REMARK    6  A    between atoms: C_7  and  N_8
REMARK                            x       y       z     vdW  Elec       q    Type
REMARK                         _______ _______ _______ _____ _____    ______ ____
ROOT
ATOM      1  C   UNL     1       5.281   5.287  16.773  0.00  0.00    +0.000 C 
ENDROOT
BRANCH   1   5
ATOM      2  C   UNL     1       6.578   4.055  12.737  0.00  0.00    +0.000 A 
ATOM      3  C   UNL     1       7.503   4.552  13.646  0.00  0.00    +0.000 A 
ATOM      4  C   UNL     1       7.120   4.840  14.960  0.00  0.00    +0.000 A 
ATOM      5  C   UNL     1       5.785   4.754  15.380  0.00  0.00    +0.000 A 
ATOM      6  C   UNL     1       4.872   4.200  14.442  0.00  0.00    +0.000 A 
ATOM      7  C   UNL     1       5.269   3.842  13.147  0.00  0.00    +0.000 A 
ENDBRANCH   1   5
BRANCH   1   8
ATOM      8  C   UNL     1       4.977   4.005  17.675  0.00  0.00    +0.000 A 
ATOM      9  C   UNL     1       4.401   2.819  17.145  0.00  0.00    +0.000 A 
ATOM     10  C   UNL     1       3.978   1.761  17.962  0.00  0.00    +0.000 A 
ATOM     11  C   UNL     1       4.091   1.855  19.339  0.00  0.00    +0.000 A 
ATOM     12  C   UNL     1       4.638   3.015  19.888  0.00  0.00    +0.000 A 
ATOM     13  C   UNL     1       5.059   4.070  19.077  0.00  0.00    +0.000 A 
ENDBRANCH   1   8
BRANCH   1  14
ATOM     14  C   UNL     1       6.377   6.201  17.486  0.00  0.00    +0.000 A 
ATOM     15  C   UNL     1       6.673   7.519  17.092  0.00  0.00    +0.000 A 
ATOM     16  C   UNL     1       7.705   8.249  17.702  0.00  0.00    +0.000 A 
ATOM     17  C   UNL     1       8.464   7.687  18.724  0.00  0.00    +0.000 A 
ATOM     18  C   UNL     1       8.192   6.392  19.142  0.00  0.00    +0.000 A 
ATOM     19  C   UNL     1       7.166   5.663  18.536  0.00  0.00    +0.000 A 
ENDBRANCH   1  14
BRANCH   1  20
ATOM     20  C   UNL     1       4.003   6.292  16.632  0.00  0.00    +0.000 C 
BRANCH  20  21
ATOM     21  C   UNL     1       3.497   7.180  17.793  0.00  0.00    +0.000 C 
BRANCH  21  22
ATOM     22  N   UNL     1       2.539   6.558  18.726  0.00  0.00    +0.000 N 
ATOM     23  C   UNL     1       2.311   7.118  19.961  0.00  0.00    +0.000 A 
ATOM     24  N   UNL     1       1.917   6.235  20.842  0.00  0.00    +0.000 NA
ATOM     25  C   UNL     1       1.629   5.120  20.105  0.00  0.00    +0.000 A 
ATOM     26  C   UNL     1       1.039   3.926  20.560  0.00  0.00    +0.000 A 
ATOM     27  C   UNL     1       0.583   3.003  19.626  0.00  0.00    +0.000 A 
ATOM     28  C   UNL     1       0.808   3.226  18.267  0.00  0.00    +0.000 A 
ATOM     29  C   UNL     1       1.536   4.349  17.799  0.00  0.00    +0.000 A 
ATOM     30  C   UNL     1       1.925   5.314  18.748  0.00  0.00    +0.000 A 
ENDBRANCH  21  22
ENDBRANCH  20  21
ENDBRANCH   1  20
TORSDOF 6
ENDMDL
MODEL 4
REMARK VINA RESULT:      -9.3      2.048      6.620
REMARK  Name = 
REMARK  6 active torsions:
REMARK  status: ('A' for Active; 'I' for Inactive)
REMARK    1  A    between atoms: C_4  and  C_5
REMARK    2  A    between atoms: C_5  and  C_6
REMARK    3  A    between atoms: C_5  and  C_17
REMARK    4  A    between atoms: C_5  and  C_23
REMARK    5  A    between atoms: C_6  and  C_7
REMARK    6  A    between atoms: C_7  and  N_8
REMARK                            x       y       z     vdW  Elec       q    Type
REMARK                         _______ _______ _______ _____ _____    ______ ____
ROOT
ATOM      1  C   UNL     1       3.946   5.686  18.362  0.00  0.00    +0.000 C 
ENDROOT
BRANCH   1   5
ATOM      2  C   UNL     1       2.531   2.670  21.258  0.00  0.00    +0.000 A 
ATOM      3  C   UNL     1       3.677   2.434  20.510  0.00  0.00    +0.000 A 
ATOM      4  C   UNL     1       4.193   3.430  19.673  0.00  0.00    +0.000 A 
ATOM      5  C   UNL     1       3.523   4.644  19.464  0.00  0.00    +0.000 A 
ATOM      6  C   UNL     1       2.380   4.872  20.278  0.00  0.00    +0.000 A 
ATOM      7  C   UNL     1       1.904   3.905  21.171  0.00  0.00    +0.000 A 
ENDBRANCH   1   5
BRANCH   1   8
ATOM      8  C   UNL     1       3.067   6.997  18.606  0.00  0.00    +0.000 A 
ATOM      9  C   UNL     1       2.472   7.293  19.863  0.00  0.00    +0.000 A 
ATOM     10  C   UNL     1       1.565   8.349  20.033  0.00  0.00    +0.000 A 
ATOM     11  C   UNL     1       1.199   9.134  18.953  0.00  0.00    +0.000 A 
ATOM     12  C   UNL     1       1.755   8.856  17.704  0.00  0.00    +0.000 A 
ATOM     13  C   UNL     1       2.657   7.805  17.531  0.00  0.00    +0.000 A 
ENDBRANCH   1   8
BRANCH   1  14
ATOM     14  C   UNL     1       5.496   6.049  18.458  0.00  0.00    +0.000 A 
ATOM     15  C   UNL     1       6.387   5.445  19.363  0.00  0.00    +0.000 A 
ATOM     16  C   UNL     1       7.724   5.861  19.461  0.00  0.00    +0.000 A 
ATOM     17  C   UNL     1       8.208   6.887  18.655  0.00  0.00    +0.000 A 
ATOM     18  C   UNL     1       7.357   7.499  17.746  0.00  0.00    +0.000 A 
ATOM     19  C   UNL     1       6.027   7.086  17.646  0.00  0.00    +0.000 A 
ENDBRANCH   1  14
BRANCH   1  20
ATOM     20  C   UNL     1       3.803   5.089  16.850  0.00  0.00    +0.000 C 
BRANCH  20  21
ATOM     21  C   UNL     1       4.469   3.766  16.401  0.00  0.00    +0.000 C 
BRANCH  21  22
ATOM     22  N   UNL     1       5.691   3.892  15.585  0.00  0.00    +0.000 N 
ATOM     23  C   UNL     1       6.873   4.289  16.164  0.00  0.00    +0.000 A 
ATOM     24  N   UNL     1       7.674   4.874  15.310  0.00  0.00    +0.000 NA
ATOM     25  C   UNL     1       7.115   4.621  14.088  0.00  0.00    +0.000 A 
ATOM     26  C   UNL     1       7.658   4.917  12.825  0.00  0.00    +0.000 A 
ATOM     27  C   UNL     1       7.076   4.356  11.693  0.00  0.00    +0.000 A 
ATOM     28  C   UNL     1       5.911   3.598  11.820  0.00  0.00    +0.000 A 
ATOM     29  C   UNL     1       5.263   3.416  13.068  0.00  0.00    +0.000 A 
ATOM     30  C   UNL     1       5.904   3.924  14.214  0.00  0.00    +0.000 A 
ENDBRANCH  21  22
ENDBRANCH  20  21
ENDBRANCH   1  20
TORSDOF 6
ENDMDL
MODEL 5
REMARK VINA RESULT:      -9.3      4.823      8.594
REMARK  Name = 
REMARK  6 active torsions:
REMARK  status: ('A' for Active; 'I' for Inactive)
REMARK    1  A    between atoms: C_4  and  C_5
REMARK    2  A    between atoms: C_5  and  C_6
REMARK    3  A    between atoms: C_5  and  C_17
REMARK    4  A    between atoms: C_5  and  C_23
REMARK    5  A    between atoms: C_6  and  C_7
REMARK    6  A    between atoms: C_7  and  N_8
REMARK                            x       y       z     vdW  Elec       q    Type
REMARK                         _______ _______ _______ _____ _____    ______ ____
ROOT
ATOM      1  C   UNL     1      -0.031  10.438  18.985  0.00  0.00    +0.000 C 
ENDROOT
BRANCH   1   5
ATOM      2  C   UNL     1      -0.684   9.944  23.322  0.00  0.00    +0.000 A 
ATOM      3  C   UNL     1      -0.762  11.204  22.744  0.00  0.00    +0.000 A 
ATOM      4  C   UNL     1      -0.667  11.354  21.356  0.00  0.00    +0.000 A 
ATOM      5  C   UNL     1      -0.374  10.273  20.512  0.00  0.00    +0.000 A 
ATOM      6  C   UNL     1      -0.344   8.992  21.128  0.00  0.00    +0.000 A 
ATOM      7  C   UNL     1      -0.513   8.832  22.509  0.00  0.00    +0.000 A 
ENDBRANCH   1   5
BRANCH   1   8
ATOM      8  C   UNL     1      -1.419  10.426  18.196  0.00  0.00    +0.000 A 
ATOM      9  C   UNL     1      -1.568   9.811  16.923  0.00  0.00    +0.000 A 
ATOM     10  C   UNL     1      -2.734   9.947  16.157  0.00  0.00    +0.000 A 
ATOM     11  C   UNL     1      -3.787  10.719  16.619  0.00  0.00    +0.000 A 
ATOM     12  C   UNL     1      -3.662  11.348  17.858  0.00  0.00    +0.000 A 
ATOM     13  C   UNL     1      -2.501  11.216  18.623  0.00  0.00    +0.000 A 
ENDBRANCH   1   8
BRANCH   1  14
ATOM     14  C   UNL     1       0.741  11.805  18.698  0.00  0.00    +0.000 A 
ATOM     15  C   UNL     1       2.097  11.876  18.330  0.00  0.00    +0.000 A 
ATOM     16  C   UNL     1       2.747  13.110  18.170  0.00  0.00    +0.000 A 
ATOM     17  C   UNL     1       2.060  14.304  18.368  0.00  0.00    +0.000 A 
ATOM     18  C   UNL     1       0.720  14.269  18.724  0.00  0.00    +0.000 A 
ATOM     19  C   UNL     1       0.071  13.042  18.883  0.00  0.00    +0.000 A 
ENDBRANCH   1  14
BRANCH   1  20
ATOM     20  C   UNL     1       1.020   9.307  18.455  0.00  0.00    +0.000 C 
BRANCH  20  21
ATOM     21  C   UNL     1       2.111   8.683  19.357  0.00  0.00    +0.000 C 
BRANCH  21  22
ATOM     22  N   UNL     1       2.526   7.307  19.026  0.00  0.00    +0.000 N 
ATOM     23  C   UNL     1       3.344   7.071  17.946  0.00  0.00    +0.000 A 
ATOM     24  N   UNL     1       3.183   5.870  17.453  0.00  0.00    +0.000 NA
ATOM     25  C   UNL     1       2.434   5.213  18.390  0.00  0.00    +0.000 A 
ATOM     26  C   UNL     1       2.096   3.848  18.406  0.00  0.00    +0.000 A 
ATOM     27  C   UNL     1       1.553   3.303  19.564  0.00  0.00    +0.000 A 
ATOM     28  C   UNL     1       1.260   4.133  20.647  0.00  0.00    +0.000 A 
ATOM     29  C   UNL     1       1.453   5.536  20.593  0.00  0.00    +0.000 A 
ATOM     30  C   UNL     1       2.074   6.065  19.445  0.00  0.00    +0.000 A 
ENDBRANCH  21  22
ENDBRANCH  20  21
ENDBRANCH   1  20
TORSDOF 6
ENDMDL
MODEL 6
REMARK VINA RESULT:      -9.3      2.009      5.826
REMARK  Name = 
REMARK  6 active torsions:
REMARK  status: ('A' for Active; 'I' for Inactive)
REMARK    1  A    between atoms: C_4  and  C_5
REMARK    2  A    between atoms: C_5  and  C_6
REMARK    3  A    between atoms: C_5  and  C_17
REMARK    4  A    between atoms: C_5  and  C_23
REMARK    5  A    between atoms: C_6  and  C_7
REMARK    6  A    between atoms: C_7  and  N_8
REMARK                            x       y       z     vdW  Elec       q    Type
REMARK                         _______ _______ _______ _____ _____    ______ ____
ROOT
ATOM      1  C   UNL     1       3.976   5.624  18.196  0.00  0.00    +0.000 C 
ENDROOT
BRANCH   1   5
ATOM      2  C   UNL     1       1.486   9.195  18.928  0.00  0.00    +0.000 A 
ATOM      3  C   UNL     1       1.988   8.943  17.658  0.00  0.00    +0.000 A 
ATOM      4  C   UNL     1       2.683   7.758  17.394  0.00  0.00    +0.000 A 
ATOM      5  C   UNL     1       3.003   6.843  18.407  0.00  0.00    +0.000 A 
ATOM      6  C   UNL     1       2.437   7.107  19.684  0.00  0.00    +0.000 A 
ATOM      7  C   UNL     1       1.678   8.258  19.933  0.00  0.00    +0.000 A 
ENDBRANCH   1   5
BRANCH   1   8
ATOM      8  C   UNL     1       5.456   6.166  18.450  0.00  0.00    +0.000 A 
ATOM      9  C   UNL     1       6.035   7.200  17.666  0.00  0.00    +0.000 A 
ATOM     10  C   UNL     1       7.386   7.557  17.776  0.00  0.00    +0.000 A 
ATOM     11  C   UNL     1       8.217   6.882  18.654  0.00  0.00    +0.000 A 
ATOM     12  C   UNL     1       7.679   5.851  19.425  0.00  0.00    +0.000 A 
ATOM     13  C   UNL     1       6.335   5.492  19.317  0.00  0.00    +0.000 A 
ENDBRANCH   1   8
BRANCH   1  14
ATOM     14  C   UNL     1       3.655   4.433  19.207  0.00  0.00    +0.000 A 
ATOM     15  C   UNL     1       4.565   3.407  19.522  0.00  0.00    +0.000 A 
ATOM     16  C   UNL     1       4.201   2.338  20.356  0.00  0.00    +0.000 A 
ATOM     17  C   UNL     1       2.923   2.267  20.900  0.00  0.00    +0.000 A 
ATOM     18  C   UNL     1       2.003   3.266  20.615  0.00  0.00    +0.000 A 
ATOM     19  C   UNL     1       2.363   4.331  19.786  0.00  0.00    +0.000 A 
ENDBRANCH   1  14
BRANCH   1  20
ATOM     20  C   UNL     1       3.790   4.923  16.734  0.00  0.00    +0.000 C 
BRANCH  20  21
ATOM     21  C   UNL     1       4.575   3.663  16.299  0.00  0.00    +0.000 C 
BRANCH  21  22
ATOM     22  N   UNL     1       5.784   3.892  15.485  0.00  0.00    +0.000 N 
ATOM     23  C   UNL     1       6.917   4.416  16.061  0.00  0.00    +0.000 A 
ATOM     24  N   UNL     1       7.661   5.060  15.198  0.00  0.00    +0.000 NA
ATOM     25  C   UNL     1       7.138   4.727  13.980  0.00  0.00    +0.000 A 
ATOM     26  C   UNL     1       7.658   5.049  12.712  0.00  0.00    +0.000 A 
ATOM     27  C   UNL     1       7.142   4.409  11.591  0.00  0.00    +0.000 A 
ATOM     28  C   UNL     1       6.057   3.542  11.729  0.00  0.00    +0.000 A 
ATOM     29  C   UNL     1       5.422   3.323  12.977  0.00  0.00    +0.000 A 
ATOM     30  C   UNL     1       6.002   3.916  14.115  0.00  0.00    +0.000 A 
ENDBRANCH  21  22
ENDBRANCH  20  21
ENDBRANCH   1  20
TORSDOF 6
ENDMDL
MODEL 7
REMARK VINA RESULT:      -9.3      0.250      1.263
REMARK  Name = 
REMARK  6 active torsions:
REMARK  status: ('A' for Active; 'I' for Inactive)
REMARK    1  A    between atoms: C_4  and  C_5
REMARK    2  A    between atoms: C_5  and  C_6
REMARK    3  A    between atoms: C_5  and  C_17
REMARK    4  A    between atoms: C_5  and  C_23
REMARK    5  A    between atoms: C_6  and  C_7
REMARK    6  A    between atoms: C_7  and  N_8
REMARK                            x       y       z     vdW  Elec       q    Type
REMARK                         _______ _______ _______ _____ _____    ______ ____
ROOT
ATOM      1  C   UNL     1       5.172   5.270  16.894  0.00  0.00    +0.000 C 
ENDROOT
BRANCH   1   5
ATOM      2  C   UNL     1       8.501   7.574  18.653  0.00  0.00    +0.000 A 
ATOM      3  C   UNL     1       7.697   8.146  17.675  0.00  0.00    +0.000 A 
ATOM      4  C   UNL     1       6.574   7.464  17.194  0.00  0.00    +0.000 A 
ATOM      5  C   UNL     1       6.283   6.148  17.582  0.00  0.00    +0.000 A 
ATOM      6  C   UNL     1       7.097   5.609  18.615  0.00  0.00    +0.000 A 
ATOM      7  C   UNL     1       8.178   6.320  19.151  0.00  0.00    +0.000 A 
ENDBRANCH   1   5
BRANCH   1   8
ATOM      8  C   UNL     1       5.779   4.761  15.507  0.00  0.00    +0.000 A 
ATOM      9  C   UNL     1       7.106   5.065  15.099  0.00  0.00    +0.000 A 
ATOM     10  C   UNL     1       7.582   4.766  13.815  0.00  0.00    +0.000 A 
ATOM     11  C   UNL     1       6.748   4.174  12.882  0.00  0.00    +0.000 A 
ATOM     12  C   UNL     1       5.435   3.879  13.250  0.00  0.00    +0.000 A 
ATOM     13  C   UNL     1       4.957   4.177  14.527  0.00  0.00    +0.000 A 
ENDBRANCH   1   8
BRANCH   1  14
ATOM     14  C   UNL     1       4.766   4.020  17.797  0.00  0.00    +0.000 A 
ATOM     15  C   UNL     1       4.950   3.968  19.190  0.00  0.00    +0.000 A 
ATOM     16  C   UNL     1       4.650   2.810  19.925  0.00  0.00    +0.000 A 
ATOM     17  C   UNL     1       4.154   1.676  19.290  0.00  0.00    +0.000 A 
ATOM     18  C   UNL     1       3.953   1.696  17.917  0.00  0.00    +0.000 A 
ATOM     19  C   UNL     1       4.250   2.847  17.184  0.00  0.00    +0.000 A 
ENDBRANCH   1  14
BRANCH   1  20
ATOM     20  C   UNL     1       3.760   6.071  16.722  0.00  0.00    +0.000 C 
BRANCH  20  21
ATOM     21  C   UNL     1       3.176   6.993  17.819  0.00  0.00    +0.000 C 
BRANCH  21  22
ATOM     22  N   UNL     1       2.339   6.343  18.844  0.00  0.00    +0.000 N 
ATOM     23  C   UNL     1       2.215   6.903  20.094  0.00  0.00    +0.000 A 
ATOM     24  N   UNL     1       1.944   6.012  21.013  0.00  0.00    +0.000 NA
ATOM     25  C   UNL     1       1.622   4.883  20.312  0.00  0.00    +0.000 A 
ATOM     26  C   UNL     1       1.123   3.673  20.827  0.00  0.00    +0.000 A 
ATOM     27  C   UNL     1       0.608   2.728  19.945  0.00  0.00    +0.000 A 
ATOM     28  C   UNL     1       0.689   2.951  18.570  0.00  0.00    +0.000 A 
ATOM     29  C   UNL     1       1.326   4.095  18.029  0.00  0.00    +0.000 A 
ATOM     30  C   UNL     1       1.774   5.079  18.931  0.00  0.00    +0.000 A 
ENDBRANCH  21  22
ENDBRANCH  20  21
ENDBRANCH   1  20
TORSDOF 6
ENDMDL
MODEL 8
REMARK VINA RESULT:      -9.3      0.188      4.183
REMARK  Name = 
REMARK  6 active torsions:
REMARK  status: ('A' for Active; 'I' for Inactive)
REMARK    1  A    between atoms: C_4  and  C_5
REMARK    2  A    between atoms: C_5  and  C_6
REMARK    3  A    between atoms: C_5  and  C_17
REMARK    4  A    between atoms: C_5  and  C_23
REMARK    5  A    between atoms: C_6  and  C_7
REMARK    6  A    between atoms: C_7  and  N_8
REMARK                            x       y       z     vdW  Elec       q    Type
REMARK                         _______ _______ _______ _____ _____    ______ ____
ROOT
ATOM      1  C   UNL     1       5.320   5.286  16.771  0.00  0.00    +0.000 C 
ENDROOT
BRANCH   1   5
ATOM      2  C   UNL     1       4.115   1.935  19.380  0.00  0.00    +0.000 A 
ATOM      3  C   UNL     1       4.063   1.797  17.999  0.00  0.00    +0.000 A 
ATOM      4  C   UNL     1       4.547   2.813  17.168  0.00  0.00    +0.000 A 
ATOM      5  C   UNL     1       4.989   4.042  17.678  0.00  0.00    +0.000 A 
ATOM      6  C   UNL     1       5.072   4.134  19.094  0.00  0.00    +0.000 A 
ATOM      7  C   UNL     1       4.656   3.089  19.929  0.00  0.00    +0.000 A 
ENDBRANCH   1   5
BRANCH   1   8
ATOM      8  C   UNL     1       6.555   6.037  17.452  0.00  0.00    +0.000 A 
ATOM      9  C   UNL     1       7.276   5.483  18.544  0.00  0.00    +0.000 A 
ATOM     10  C   UNL     1       8.244   6.211  19.250  0.00  0.00    +0.000 A 
ATOM     11  C   UNL     1       8.514   7.526  18.908  0.00  0.00    +0.000 A 
ATOM     12  C   UNL     1       7.809   8.100  17.850  0.00  0.00    +0.000 A 
ATOM     13  C   UNL     1       6.844   7.378  17.146  0.00  0.00    +0.000 A 
ENDBRANCH   1   8
BRANCH   1  14
ATOM     14  C   UNL     1       5.707   4.847  15.287  0.00  0.00    +0.000 A 
ATOM     15  C   UNL     1       4.807   4.242  14.391  0.00  0.00    +0.000 A 
ATOM     16  C   UNL     1       5.223   3.801  13.125  0.00  0.00    +0.000 A 
ATOM     17  C   UNL     1       6.545   3.957  12.718  0.00  0.00    +0.000 A 
ATOM     18  C   UNL     1       7.456   4.557  13.575  0.00  0.00    +0.000 A 
ATOM     19  C   UNL     1       7.044   4.997  14.836  0.00  0.00    +0.000 A 
ENDBRANCH   1  14
BRANCH   1  20
ATOM     20  C   UNL     1       4.026   6.253  16.541  0.00  0.00    +0.000 C 
BRANCH  20  21
ATOM     21  C   UNL     1       3.478   7.200  17.635  0.00  0.00    +0.000 C 
BRANCH  21  22
ATOM     22  N   UNL     1       2.537   6.607  18.604  0.00  0.00    +0.000 N 
ATOM     23  C   UNL     1       2.318   7.214  19.818  0.00  0.00    +0.000 A 
ATOM     24  N   UNL     1       1.944   6.363  20.739  0.00  0.00    +0.000 NA
ATOM     25  C   UNL     1       1.657   5.217  20.051  0.00  0.00    +0.000 A 
ATOM     26  C   UNL     1       1.084   4.038  20.561  0.00  0.00    +0.000 A 
ATOM     27  C   UNL     1       0.625   3.074  19.670  0.00  0.00    +0.000 A 
ATOM     28  C   UNL     1       0.831   3.244  18.300  0.00  0.00    +0.000 A 
ATOM     29  C   UNL     1       1.543   4.354  17.779  0.00  0.00    +0.000 A 
ATOM     30  C   UNL     1       1.935   5.359  18.683  0.00  0.00    +0.000 A 
ENDBRANCH  21  22
ENDBRANCH  20  21
ENDBRANCH   1  20
TORSDOF 6
ENDMDL
MODEL 9
REMARK VINA RESULT:      -9.2      5.008      8.793
REMARK  Name = 
REMARK  6 active torsions:
REMARK  status: ('A' for Active; 'I' for Inactive)
REMARK    1  A    between atoms: C_4  and  C_5
REMARK    2  A    between atoms: C_5  and  C_6
REMARK    3  A    between atoms: C_5  and  C_17
REMARK    4  A    between atoms: C_5  and  C_23
REMARK    5  A    between atoms: C_6  and  C_7
REMARK    6  A    between atoms: C_7  and  N_8
REMARK                            x       y       z     vdW  Elec       q    Type
REMARK                         _______ _______ _______ _____ _____    ______ ____
ROOT
ATOM      1  C   UNL     1      -0.215  10.633  18.818  0.00  0.00    +0.000 C 
ENDROOT
BRANCH   1   5
ATOM      2  C   UNL     1       1.675  14.622  18.785  0.00  0.00    +0.000 A 
ATOM      3  C   UNL     1       2.448  13.486  18.987  0.00  0.00    +0.000 A 
ATOM      4  C   UNL     1       1.875  12.214  18.888  0.00  0.00    +0.000 A 
ATOM      5  C   UNL     1       0.497  12.033  18.703  0.00  0.00    +0.000 A 
ATOM      6  C   UNL     1      -0.258  13.212  18.456  0.00  0.00    +0.000 A 
ATOM      7  C   UNL     1       0.328  14.484  18.481  0.00  0.00    +0.000 A 
ENDBRANCH   1   5
BRANCH   1   8
ATOM      8  C   UNL     1      -0.462  10.369  20.374  0.00  0.00    +0.000 A 
ATOM      9  C   UNL     1      -0.715  11.420  21.295  0.00  0.00    +0.000 A 
ATOM     10  C   UNL     1      -0.762  11.208  22.680  0.00  0.00    +0.000 A 
ATOM     11  C   UNL     1      -0.535   9.946  23.201  0.00  0.00    +0.000 A 
ATOM     12  C   UNL     1      -0.267   8.897  22.320  0.00  0.00    +0.000 A 
ATOM     13  C   UNL     1      -0.219   9.105  20.941  0.00  0.00    +0.000 A 
ENDBRANCH   1   8
BRANCH   1  14
ATOM     14  C   UNL     1      -1.607  10.614  18.040  0.00  0.00    +0.000 A 
ATOM     15  C   UNL     1      -1.829   9.897  16.850  0.00  0.00    +0.000 A 
ATOM     16  C   UNL     1      -3.050   9.981  16.163  0.00  0.00    +0.000 A 
ATOM     17  C   UNL     1      -4.082  10.779  16.646  0.00  0.00    +0.000 A 
ATOM     18  C   UNL     1      -3.899  11.494  17.821  0.00  0.00    +0.000 A 
ATOM     19  C   UNL     1      -2.685  11.411  18.507  0.00  0.00    +0.000 A 
ENDBRANCH   1  14
BRANCH   1  20
ATOM     20  C   UNL     1       0.628   9.442  18.089  0.00  0.00    +0.000 C 
BRANCH  20  21
ATOM     21  C   UNL     1       2.132   9.190  18.355  0.00  0.00    +0.000 C 
BRANCH  21  22
ATOM     22  N   UNL     1       2.554   7.779  18.444  0.00  0.00    +0.000 N 
ATOM     23  C   UNL     1       2.098   6.983  19.468  0.00  0.00    +0.000 A 
ATOM     24  N   UNL     1       2.925   6.008  19.746  0.00  0.00    +0.000 NA
ATOM     25  C   UNL     1       3.816   6.009  18.709  0.00  0.00    +0.000 A 
ATOM     26  C   UNL     1       4.832   5.068  18.457  0.00  0.00    +0.000 A 
ATOM     27  C   UNL     1       5.470   5.081  17.222  0.00  0.00    +0.000 A 
ATOM     28  C   UNL     1       5.166   6.082  16.298  0.00  0.00    +0.000 A 
ATOM     29  C   UNL     1       4.256   7.128  16.594  0.00  0.00    +0.000 A 
ATOM     30  C   UNL     1       3.561   7.060  17.816  0.00  0.00    +0.000 A 
ENDBRANCH  21  22
ENDBRANCH  20  21
ENDBRANCH   1  20
TORSDOF 6
ENDMDL
