MODEL 1
REMARK VINA RESULT:      -6.8      0.000      0.000
REMARK  Name = 
REMARK  7 active torsions:
REMARK  status: ('A' for Active; 'I' for Inactive)
REMARK    1  A    between atoms: C_1  and  O_2
REMARK    2  A    between atoms: O_2  and  C_3
REMARK    3  A    between atoms: C_8  and  C_9
REMARK    4  A    between atoms: C_12  and  O_13
REMARK    5  A    between atoms: O_13  and  C_14
REMARK    6  A    between atoms: C_14  and  C_15
REMARK    7  A    between atoms: N_20  and  C_21
REMARK                            x       y       z     vdW  Elec       q    Type
REMARK                         _______ _______ _______ _____ _____    ______ ____
ROOT
ATOM      1  C   UNL     1       6.606   5.153  15.011  0.00  0.00    +0.000 C 
ATOM      2  O   UNL     1       5.525   5.083  14.447  0.00  0.00    +0.000 OA
ATOM      3  N   UNL     1       6.883   5.015  16.348  0.00  0.00    +0.000 N 
ATOM      4  C   UNL     1       5.975   4.898  17.359  0.00  0.00    +0.000 C 
ATOM      5  N   UNL     1       4.701   4.772  17.129  0.00  0.00    +0.000 NA
ATOM      6  C   UNL     1       4.039   4.910  18.458  0.00  0.00    +0.000 C 
ATOM      7  C   UNL     1       5.179   4.752  19.492  0.00  0.00    +0.000 C 
ATOM      8  N   UNL     1       6.375   4.907  18.671  0.00  0.00    +0.000 N 
ATOM      9  C   UNL     1       7.460   5.707  19.192  0.00  0.00    +0.000 C 
ATOM     10  H   UNL     1       7.853   5.106  16.587  0.00  0.00    +0.000 HD
ENDROOT
BRANCH   6  11
ATOM     11  C   UNL     1       3.299   6.236  18.593  0.00  0.00    +0.000 A 
ATOM     12  C   UNL     1       3.322   7.200  17.570  0.00  0.00    +0.000 A 
ATOM     13  C   UNL     1       2.640   8.409  17.707  0.00  0.00    +0.000 A 
ATOM     14  C   UNL     1       1.908   8.664  18.865  0.00  0.00    +0.000 A 
ATOM     15  C   UNL     1       1.878   7.732  19.898  0.00  0.00    +0.000 A 
ATOM     16  C   UNL     1       2.555   6.517  19.753  0.00  0.00    +0.000 A 
BRANCH  14  17
ATOM     17  O   UNL     1       1.266   9.920  18.913  0.00  0.00    +0.000 OA
BRANCH  17  18
ATOM     18  C   UNL     1      -0.085  10.062  19.226  0.00  0.00    +0.000 C 
ATOM     19  C   UNL     1      -0.880  10.088  17.952  0.00  0.00    +0.000 C 
ATOM     20  O   UNL     1      -0.586  10.103  20.341  0.00  0.00    +0.000 OA
ENDBRANCH  17  18
ENDBRANCH  14  17
ENDBRANCH   6  11
BRANCH   1  22
ATOM     21  C   UNL     1       7.711   5.113  12.957  0.00  0.00    +0.000 C 
ATOM     22  O   UNL     1       7.775   5.405  14.355  0.00  0.00    +0.000 OA
ENDBRANCH   1  22
TORSDOF 4
ENDMDL
MODEL 2
REMARK VINA RESULT:      -6.6      4.773      7.981
REMARK  Name = 
REMARK  7 active torsions:
REMARK  status: ('A' for Active; 'I' for Inactive)
REMARK    1  A    between atoms: C_1  and  O_2
REMARK    2  A    between atoms: O_2  and  C_3
REMARK    3  A    between atoms: C_8  and  C_9
REMARK    4  A    between atoms: C_12  and  O_13
REMARK    5  A    between atoms: O_13  and  C_14
REMARK    6  A    between atoms: C_14  and  C_15
REMARK    7  A    between atoms: N_20  and  C_21
REMARK                            x       y       z     vdW  Elec       q    Type
REMARK                         _______ _______ _______ _____ _____    ______ ____
ROOT
ATOM      1  C   UNL     1      -2.806  10.159  17.495  0.00  0.00    +0.000 C 
ATOM      2  O   UNL     1      -2.341   9.572  16.530  0.00  0.00    +0.000 OA
ATOM      3  N   UNL     1      -2.141  10.762  18.531  0.00  0.00    +0.000 N 
ATOM      4  C   UNL     1      -0.799  10.717  18.773  0.00  0.00    +0.000 C 
ATOM      5  N   UNL     1       0.033  10.179  17.932  0.00  0.00    +0.000 NA
ATOM      6  C   UNL     1       1.340  10.116  18.647  0.00  0.00    +0.000 C 
ATOM      7  C   UNL     1       1.173  11.049  19.870  0.00  0.00    +0.000 C 
ATOM      8  N   UNL     1      -0.272  11.246  19.923  0.00  0.00    +0.000 N 
ATOM      9  C   UNL     1      -0.917  11.204  21.216  0.00  0.00    +0.000 C 
ATOM     10  H   UNL     1      -2.734  11.194  19.217  0.00  0.00    +0.000 HD
ENDROOT
BRANCH   6  11
ATOM     11  C   UNL     1       1.709   8.689  19.041  0.00  0.00    +0.000 A 
ATOM     12  C   UNL     1       2.305   7.805  18.124  0.00  0.00    +0.000 A 
ATOM     13  C   UNL     1       2.638   6.502  18.497  0.00  0.00    +0.000 A 
ATOM     14  C   UNL     1       2.396   6.072  19.800  0.00  0.00    +0.000 A 
ATOM     15  C   UNL     1       1.798   6.923  20.723  0.00  0.00    +0.000 A 
ATOM     16  C   UNL     1       1.473   8.231  20.349  0.00  0.00    +0.000 A 
BRANCH  14  17
ATOM     17  O   UNL     1       2.755   4.734  20.074  0.00  0.00    +0.000 OA
BRANCH  17  18
ATOM     18  C   UNL     1       2.001   3.909  20.908  0.00  0.00    +0.000 C 
ATOM     19  C   UNL     1       0.826   3.382  20.137  0.00  0.00    +0.000 C 
ATOM     20  O   UNL     1       2.253   3.595  22.063  0.00  0.00    +0.000 OA
ENDBRANCH  17  18
ENDBRANCH  14  17
ENDBRANCH   6  11
BRANCH   1  22
ATOM     21  C   UNL     1      -4.700  11.446  17.044  0.00  0.00    +0.000 C 
ATOM     22  O   UNL     1      -4.147  10.304  17.703  0.00  0.00    +0.000 OA
ENDBRANCH   1  22
TORSDOF 4
ENDMDL
MODEL 3
REMARK VINA RESULT:      -6.6      4.036      6.587
REMARK  Name = 
REMARK  7 active torsions:
REMARK  status: ('A' for Active; 'I' for Inactive)
REMARK    1  A    between atoms: C_1  and  O_2
REMARK    2  A    between atoms: O_2  and  C_3
REMARK    3  A    between atoms: C_8  and  C_9
REMARK    4  A    between atoms: C_12  and  O_13
REMARK    5  A    between atoms: O_13  and  C_14
REMARK    6  A    between atoms: C_14  and  C_15
REMARK    7  A    between atoms: N_20  and  C_21
REMARK                            x       y       z     vdW  Elec       q    Type
REMARK                         _______ _______ _______ _____ _____    ______ ____
ROOT
ATOM      1  C   UNL     1       3.650   2.396  21.006  0.00  0.00    +0.000 C 
ATOM      2  O   UNL     1       4.789   1.962  21.081  0.00  0.00    +0.000 OA
ATOM      3  N   UNL     1       3.051   3.048  19.958  0.00  0.00    +0.000 N 
ATOM      4  C   UNL     1       3.655   3.470  18.810  0.00  0.00    +0.000 C 
ATOM      5  N   UNL     1       4.888   3.168  18.530  0.00  0.00    +0.000 NA
ATOM      6  C   UNL     1       5.243   3.992  17.339  0.00  0.00    +0.000 C 
ATOM      7  C   UNL     1       3.890   4.505  16.790  0.00  0.00    +0.000 C 
ATOM      8  N   UNL     1       2.977   4.236  17.896  0.00  0.00    +0.000 N 
ATOM      9  C   UNL     1       2.004   5.248  18.237  0.00  0.00    +0.000 C 
ATOM     10  H   UNL     1       2.096   3.310  20.117  0.00  0.00    +0.000 HD
ENDROOT
BRANCH   6  11
ATOM     11  C   UNL     1       6.204   5.123  17.691  0.00  0.00    +0.000 A 
ATOM     12  C   UNL     1       6.894   5.148  18.916  0.00  0.00    +0.000 A 
ATOM     13  C   UNL     1       7.770   6.189  19.225  0.00  0.00    +0.000 A 
ATOM     14  C   UNL     1       7.982   7.211  18.304  0.00  0.00    +0.000 A 
ATOM     15  C   UNL     1       7.304   7.217  17.089  0.00  0.00    +0.000 A 
ATOM     16  C   UNL     1       6.433   6.168  16.778  0.00  0.00    +0.000 A 
BRANCH  14  17
ATOM     17  O   UNL     1       8.875   8.224  18.715  0.00  0.00    +0.000 OA
BRANCH  17  18
ATOM     18  C   UNL     1       8.613   9.580  18.527  0.00  0.00    +0.000 C 
ATOM     19  C   UNL     1       9.415  10.374  19.517  0.00  0.00    +0.000 C 
ATOM     20  O   UNL     1       7.899  10.084  17.670  0.00  0.00    +0.000 OA
ENDBRANCH  17  18
ENDBRANCH  14  17
ENDBRANCH   6  11
BRANCH   1  22
ATOM     21  C   UNL     1       1.446   2.778  21.670  0.00  0.00    +0.000 C 
ATOM     22  O   UNL     1       2.746   2.299  22.023  0.00  0.00    +0.000 OA
ENDBRANCH   1  22
TORSDOF 4
ENDMDL
MODEL 4
REMARK VINA RESULT:      -6.6      1.901      2.686
REMARK  Name = 
REMARK  7 active torsions:
REMARK  status: ('A' for Active; 'I' for Inactive)
REMARK    1  A    between atoms: C_1  and  O_2
REMARK    2  A    between atoms: O_2  and  C_3
REMARK    3  A    between atoms: C_8  and  C_9
REMARK    4  A    between atoms: C_12  and  O_13
REMARK    5  A    between atoms: O_13  and  C_14
REMARK    6  A    between atoms: C_14  and  C_15
REMARK    7  A    between atoms: N_20  and  C_21
REMARK                            x       y       z     vdW  Elec       q    Type
REMARK                         _______ _______ _______ _____ _____    ______ ____
ROOT
ATOM      1  C   UNL     1       6.454   4.714  16.625  0.00  0.00    +0.000 C 
ATOM      2  O   UNL     1       6.008   5.639  15.964  0.00  0.00    +0.000 OA
ATOM      3  N   UNL     1       5.772   3.809  17.397  0.00  0.00    +0.000 N 
ATOM      4  C   UNL     1       4.441   3.834  17.697  0.00  0.00    +0.000 C 
ATOM      5  N   UNL     1       3.629   4.688  17.149  0.00  0.00    +0.000 NA
ATOM      6  C   UNL     1       2.344   4.554  17.894  0.00  0.00    +0.000 C 
ATOM      7  C   UNL     1       2.475   3.228  18.682  0.00  0.00    +0.000 C 
ATOM      8  N   UNL     1       3.904   2.949  18.597  0.00  0.00    +0.000 N 
ATOM      9  C   UNL     1       4.577   2.477  19.785  0.00  0.00    +0.000 C 
ATOM     10  H   UNL     1       6.349   3.124  17.851  0.00  0.00    +0.000 HD
ENDROOT
BRANCH   6  11
ATOM     11  C   UNL     1       2.079   5.753  18.798  0.00  0.00    +0.000 A 
ATOM     12  C   UNL     1       1.664   5.592  20.131  0.00  0.00    +0.000 A 
ATOM     13  C   UNL     1       1.425   6.698  20.948  0.00  0.00    +0.000 A 
ATOM     14  C   UNL     1       1.615   7.983  20.445  0.00  0.00    +0.000 A 
ATOM     15  C   UNL     1       2.014   8.171  19.125  0.00  0.00    +0.000 A 
ATOM     16  C   UNL     1       2.262   7.060  18.313  0.00  0.00    +0.000 A 
BRANCH  14  17
ATOM     17  O   UNL     1       1.333   9.035  21.343  0.00  0.00    +0.000 OA
BRANCH  17  18
ATOM     18  C   UNL     1       0.033   9.427  21.658  0.00  0.00    +0.000 C 
ATOM     19  C   UNL     1      -0.460  10.371  20.601  0.00  0.00    +0.000 C 
ATOM     20  O   UNL     1      -0.648   9.043  22.599  0.00  0.00    +0.000 OA
ENDBRANCH  17  18
ENDBRANCH  14  17
ENDBRANCH   6  11
BRANCH   1  22
ATOM     21  C   UNL     1       8.279   4.421  18.049  0.00  0.00    +0.000 C 
ATOM     22  O   UNL     1       7.786   4.430  16.707  0.00  0.00    +0.000 OA
ENDBRANCH   1  22
TORSDOF 4
ENDMDL
MODEL 5
REMARK VINA RESULT:      -6.6      1.909      2.585
REMARK  Name = 
REMARK  7 active torsions:
REMARK  status: ('A' for Active; 'I' for Inactive)
REMARK    1  A    between atoms: C_1  and  O_2
REMARK    2  A    between atoms: O_2  and  C_3
REMARK    3  A    between atoms: C_8  and  C_9
REMARK    4  A    between atoms: C_12  and  O_13
REMARK    5  A    between atoms: O_13  and  C_14
REMARK    6  A    between atoms: C_14  and  C_15
REMARK    7  A    between atoms: N_20  and  C_21
REMARK                            x       y       z     vdW  Elec       q    Type
REMARK                         _______ _______ _______ _____ _____    ______ ____
ROOT
ATOM      1  C   UNL     1       6.580   4.890  16.687  0.00  0.00    +0.000 C 
ATOM      2  O   UNL     1       6.188   5.860  16.057  0.00  0.00    +0.000 OA
ATOM      3  N   UNL     1       5.842   3.966  17.380  0.00  0.00    +0.000 N 
ATOM      4  C   UNL     1       4.500   4.012  17.623  0.00  0.00    +0.000 C 
ATOM      5  N   UNL     1       3.735   4.915  17.085  0.00  0.00    +0.000 NA
ATOM      6  C   UNL     1       2.415   4.778  17.766  0.00  0.00    +0.000 C 
ATOM      7  C   UNL     1       2.477   3.411  18.488  0.00  0.00    +0.000 C 
ATOM      8  N   UNL     1       3.901   3.097  18.450  0.00  0.00    +0.000 N 
ATOM      9  C   UNL     1       4.508   2.546  19.640  0.00  0.00    +0.000 C 
ATOM     10  H   UNL     1       6.380   3.243  17.821  0.00  0.00    +0.000 HD
ENDROOT
BRANCH   6  11
ATOM     11  C   UNL     1       2.139   5.936  18.719  0.00  0.00    +0.000 A 
ATOM     12  C   UNL     1       2.219   7.274  18.293  0.00  0.00    +0.000 A 
ATOM     13  C   UNL     1       1.964   8.324  19.176  0.00  0.00    +0.000 A 
ATOM     14  C   UNL     1       1.607   8.050  20.494  0.00  0.00    +0.000 A 
ATOM     15  C   UNL     1       1.532   6.735  20.944  0.00  0.00    +0.000 A 
ATOM     16  C   UNL     1       1.779   5.685  20.055  0.00  0.00    +0.000 A 
BRANCH  14  17
ATOM     17  O   UNL     1       1.384   9.179  21.311  0.00  0.00    +0.000 OA
BRANCH  17  18
ATOM     18  C   UNL     1       0.115   9.719  21.517  0.00  0.00    +0.000 C 
ATOM     19  C   UNL     1      -0.231   9.609  22.973  0.00  0.00    +0.000 C 
ATOM     20  O   UNL     1      -0.605  10.256  20.685  0.00  0.00    +0.000 OA
ENDBRANCH  17  18
ENDBRANCH  14  17
ENDBRANCH   6  11
BRANCH   1  22
ATOM     21  C   UNL     1       8.328   4.461  18.172  0.00  0.00    +0.000 C 
ATOM     22  O   UNL     1       7.900   4.567  16.812  0.00  0.00    +0.000 OA
ENDBRANCH   1  22
TORSDOF 4
ENDMDL
MODEL 6
REMARK VINA RESULT:      -6.5      0.659      1.349
REMARK  Name = 
REMARK  7 active torsions:
REMARK  status: ('A' for Active; 'I' for Inactive)
REMARK    1  A    between atoms: C_1  and  O_2
REMARK    2  A    between atoms: O_2  and  C_3
REMARK    3  A    between atoms: C_8  and  C_9
REMARK    4  A    between atoms: C_12  and  O_13
REMARK    5  A    between atoms: O_13  and  C_14
REMARK    6  A    between atoms: C_14  and  C_15
REMARK    7  A    between atoms: N_20  and  C_21
REMARK                            x       y       z     vdW  Elec       q    Type
REMARK                         _______ _______ _______ _____ _____    ______ ____
ROOT
ATOM      1  C   UNL     1       6.349   5.212  15.186  0.00  0.00    +0.000 C 
ATOM      2  O   UNL     1       5.298   5.253  14.566  0.00  0.00    +0.000 OA
ATOM      3  N   UNL     1       6.544   4.984  16.525  0.00  0.00    +0.000 N 
ATOM      4  C   UNL     1       5.578   4.884  17.483  0.00  0.00    +0.000 C 
ATOM      5  N   UNL     1       4.313   4.867  17.184  0.00  0.00    +0.000 NA
ATOM      6  C   UNL     1       3.593   4.986  18.484  0.00  0.00    +0.000 C 
ATOM      7  C   UNL     1       4.662   4.690  19.563  0.00  0.00    +0.000 C 
ATOM      8  N   UNL     1       5.908   4.795  18.811  0.00  0.00    +0.000 N 
ATOM      9  C   UNL     1       7.019   5.483  19.427  0.00  0.00    +0.000 C 
ATOM     10  H   UNL     1       7.504   4.989  16.816  0.00  0.00    +0.000 HD
ENDROOT
BRANCH   6  11
ATOM     11  C   UNL     1       2.945   6.357  18.657  0.00  0.00    +0.000 A 
ATOM     12  C   UNL     1       2.294   6.717  19.849  0.00  0.00    +0.000 A 
ATOM     13  C   UNL     1       1.705   7.974  19.994  0.00  0.00    +0.000 A 
ATOM     14  C   UNL     1       1.778   8.896  18.953  0.00  0.00    +0.000 A 
ATOM     15  C   UNL     1       2.407   8.561  17.758  0.00  0.00    +0.000 A 
ATOM     16  C   UNL     1       3.003   7.304  17.619  0.00  0.00    +0.000 A 
BRANCH  14  17
ATOM     17  O   UNL     1       1.141  10.133  19.191  0.00  0.00    +0.000 OA
BRANCH  17  18
ATOM     18  C   UNL     1      -0.227  10.239  19.439  0.00  0.00    +0.000 C 
ATOM     19  C   UNL     1      -0.431  10.705  20.851  0.00  0.00    +0.000 C 
ATOM     20  O   UNL     1      -1.140  10.048  18.647  0.00  0.00    +0.000 OA
ENDBRANCH  17  18
ENDBRANCH  14  17
ENDBRANCH   6  11
BRANCH   1  22
ATOM     21  C   UNL     1       7.596   5.039  13.222  0.00  0.00    +0.000 C 
ATOM     22  O   UNL     1       7.567   5.408  14.603  0.00  0.00    +0.000 OA
ENDBRANCH   1  22
TORSDOF 4
ENDMDL
MODEL 7
REMARK VINA RESULT:      -6.5      4.768      8.037
REMARK  Name = 
REMARK  7 active torsions:
REMARK  status: ('A' for Active; 'I' for Inactive)
REMARK    1  A    between atoms: C_1  and  O_2
REMARK    2  A    between atoms: O_2  and  C_3
REMARK    3  A    between atoms: C_8  and  C_9
REMARK    4  A    between atoms: C_12  and  O_13
REMARK    5  A    between atoms: O_13  and  C_14
REMARK    6  A    between atoms: C_14  and  C_15
REMARK    7  A    between atoms: N_20  and  C_21
REMARK                            x       y       z     vdW  Elec       q    Type
REMARK                         _______ _______ _______ _____ _____    ______ ____
ROOT
ATOM      1  C   UNL     1      -2.789  10.085  17.394  0.00  0.00    +0.000 C 
ATOM      2  O   UNL     1      -2.272   9.538  16.432  0.00  0.00    +0.000 OA
ATOM      3  N   UNL     1      -2.180  10.683  18.467  0.00  0.00    +0.000 N 
ATOM      4  C   UNL     1      -0.846  10.677  18.754  0.00  0.00    +0.000 C 
ATOM      5  N   UNL     1       0.032  10.189  17.929  0.00  0.00    +0.000 NA
ATOM      6  C   UNL     1       1.315  10.152  18.687  0.00  0.00    +0.000 C 
ATOM      7  C   UNL     1       1.075  11.048  19.926  0.00  0.00    +0.000 C 
ATOM      8  N   UNL     1      -0.377  11.193  19.934  0.00  0.00    +0.000 N 
ATOM      9  C   UNL     1      -1.063  11.097  21.202  0.00  0.00    +0.000 C 
ATOM     10  H   UNL     1      -2.810  11.077  19.142  0.00  0.00    +0.000 HD
ENDROOT
BRANCH   6  11
ATOM     11  C   UNL     1       1.720   8.729  19.058  0.00  0.00    +0.000 A 
ATOM     12  C   UNL     1       1.531   8.225  20.356  0.00  0.00    +0.000 A 
ATOM     13  C   UNL     1       1.905   6.921  20.682  0.00  0.00    +0.000 A 
ATOM     14  C   UNL     1       2.459   6.096  19.706  0.00  0.00    +0.000 A 
ATOM     15  C   UNL     1       2.668   6.573  18.416  0.00  0.00    +0.000 A 
ATOM     16  C   UNL     1       2.283   7.877  18.090  0.00  0.00    +0.000 A 
BRANCH  14  17
ATOM     17  O   UNL     1       2.817   4.800  20.137  0.00  0.00    +0.000 OA
BRANCH  17  18
ATOM     18  C   UNL     1       1.976   4.008  20.917  0.00  0.00    +0.000 C 
ATOM     19  C   UNL     1       0.761   3.649  20.112  0.00  0.00    +0.000 C 
ATOM     20  O   UNL     1       2.184   3.602  22.053  0.00  0.00    +0.000 OA
ENDBRANCH  17  18
ENDBRANCH  14  17
ENDBRANCH   6  11
BRANCH   1  22
ATOM     21  C   UNL     1      -4.536  11.314  18.335  0.00  0.00    +0.000 C 
ATOM     22  O   UNL     1      -4.141  10.179  17.560  0.00  0.00    +0.000 OA
ENDBRANCH   1  22
TORSDOF 4
ENDMDL
MODEL 8
REMARK VINA RESULT:      -6.5      0.772      1.415
REMARK  Name = 
REMARK  7 active torsions:
REMARK  status: ('A' for Active; 'I' for Inactive)
REMARK    1  A    between atoms: C_1  and  O_2
REMARK    2  A    between atoms: O_2  and  C_3
REMARK    3  A    between atoms: C_8  and  C_9
REMARK    4  A    between atoms: C_12  and  O_13
REMARK    5  A    between atoms: O_13  and  C_14
REMARK    6  A    between atoms: C_14  and  C_15
REMARK    7  A    between atoms: N_20  and  C_21
REMARK                            x       y       z     vdW  Elec       q    Type
REMARK                         _______ _______ _______ _____ _____    ______ ____
ROOT
ATOM      1  C   UNL     1       6.409   4.998  14.692  0.00  0.00    +0.000 C 
ATOM      2  O   UNL     1       5.274   4.796  14.289  0.00  0.00    +0.000 OA
ATOM      3  N   UNL     1       6.890   4.910  15.973  0.00  0.00    +0.000 N 
ATOM      4  C   UNL     1       6.157   4.701  17.105  0.00  0.00    +0.000 C 
ATOM      5  N   UNL     1       4.887   4.425  17.061  0.00  0.00    +0.000 NA
ATOM      6  C   UNL     1       4.411   4.502  18.472  0.00  0.00    +0.000 C 
ATOM      7  C   UNL     1       5.699   4.491  19.330  0.00  0.00    +0.000 C 
ATOM      8  N   UNL     1       6.738   4.773  18.345  0.00  0.00    +0.000 N 
ATOM      9  C   UNL     1       7.786   5.700  18.707  0.00  0.00    +0.000 C 
ATOM     10  H   UNL     1       7.867   5.116  16.071  0.00  0.00    +0.000 HD
ENDROOT
BRANCH   6  11
ATOM     11  C   UNL     1       3.549   5.736  18.719  0.00  0.00    +0.000 A 
ATOM     12  C   UNL     1       2.793   5.881  19.895  0.00  0.00    +0.000 A 
ATOM     13  C   UNL     1       2.008   7.015  20.109  0.00  0.00    +0.000 A 
ATOM     14  C   UNL     1       1.983   8.029  19.155  0.00  0.00    +0.000 A 
ATOM     15  C   UNL     1       2.713   7.906  17.977  0.00  0.00    +0.000 A 
ATOM     16  C   UNL     1       3.506   6.772  17.770  0.00  0.00    +0.000 A 
BRANCH  14  17
ATOM     17  O   UNL     1       1.149   9.127  19.457  0.00  0.00    +0.000 OA
BRANCH  17  18
ATOM     18  C   UNL     1       0.966  10.196  18.581  0.00  0.00    +0.000 C 
ATOM     19  C   UNL     1      -0.466  10.215  18.130  0.00  0.00    +0.000 C 
ATOM     20  O   UNL     1       1.794  11.035  18.254  0.00  0.00    +0.000 OA
ENDBRANCH  17  18
ENDBRANCH  14  17
ENDBRANCH   6  11
BRANCH   1  22
ATOM     21  C   UNL     1       7.423   4.708  12.611  0.00  0.00    +0.000 C 
ATOM     22  O   UNL     1       7.434   5.376  13.874  0.00  0.00    +0.000 OA
ENDBRANCH   1  22
TORSDOF 4
ENDMDL
MODEL 9
REMARK VINA RESULT:      -6.5      2.321      3.248
REMARK  Name = 
REMARK  7 active torsions:
REMARK  status: ('A' for Active; 'I' for Inactive)
REMARK    1  A    between atoms: C_1  and  O_2
REMARK    2  A    between atoms: O_2  and  C_3
REMARK    3  A    between atoms: C_8  and  C_9
REMARK    4  A    between atoms: C_12  and  O_13
REMARK    5  A    between atoms: O_13  and  C_14
REMARK    6  A    between atoms: C_14  and  C_15
REMARK    7  A    between atoms: N_20  and  C_21
REMARK                            x       y       z     vdW  Elec       q    Type
REMARK                         _______ _______ _______ _____ _____    ______ ____
ROOT
ATOM      1  C   UNL     1       7.402   5.369  18.505  0.00  0.00    +0.000 C 
ATOM      2  O   UNL     1       7.368   6.456  17.949  0.00  0.00    +0.000 OA
ATOM      3  N   UNL     1       6.404   4.436  18.621  0.00  0.00    +0.000 N 
ATOM      4  C   UNL     1       5.101   4.588  18.245  0.00  0.00    +0.000 C 
ATOM      5  N   UNL     1       4.691   5.635  17.593  0.00  0.00    +0.000 NA
ATOM      6  C   UNL     1       3.203   5.540  17.578  0.00  0.00    +0.000 C 
ATOM      7  C   UNL     1       2.890   4.083  17.997  0.00  0.00    +0.000 C 
ATOM      8  N   UNL     1       4.166   3.630  18.542  0.00  0.00    +0.000 N 
ATOM      9  C   UNL     1       4.147   2.851  19.759  0.00  0.00    +0.000 C 
ATOM     10  H   UNL     1       6.661   3.605  19.120  0.00  0.00    +0.000 HD
ENDROOT
BRANCH   6  11
ATOM     11  C   UNL     1       2.554   6.570  18.498  0.00  0.00    +0.000 A 
ATOM     12  C   UNL     1       2.272   7.874  18.057  0.00  0.00    +0.000 A 
ATOM     13  C   UNL     1       1.678   8.807  18.908  0.00  0.00    +0.000 A 
ATOM     14  C   UNL     1       1.342   8.440  20.209  0.00  0.00    +0.000 A 
ATOM     15  C   UNL     1       1.621   7.159  20.675  0.00  0.00    +0.000 A 
ATOM     16  C   UNL     1       2.208   6.224  19.816  0.00  0.00    +0.000 A 
BRANCH  14  17
ATOM     17  O   UNL     1       0.759   9.457  20.996  0.00  0.00    +0.000 OA
BRANCH  17  18
ATOM     18  C   UNL     1       0.985   9.571  22.367  0.00  0.00    +0.000 C 
ATOM     19  C   UNL     1      -0.336   9.689  23.070  0.00  0.00    +0.000 C 
ATOM     20  O   UNL     1       2.062   9.527  22.945  0.00  0.00    +0.000 OA
ENDBRANCH  17  18
ENDBRANCH  14  17
ENDBRANCH   6  11
BRANCH   1  22
ATOM     21  C   UNL     1       8.564   5.259  20.526  0.00  0.00    +0.000 C 
ATOM     22  O   UNL     1       8.510   4.894  19.145  0.00  0.00    +0.000 OA
ENDBRANCH   1  22
TORSDOF 4
ENDMDL
