MODEL 1
REMARK VINA RESULT:      -8.4      0.000      0.000
REMARK  Name = 
REMARK  9 active torsions:
REMARK  status: ('A' for Active; 'I' for Inactive)
REMARK    1  A    between atoms: C_1  and  O_2
REMARK    2  A    between atoms: O_2  and  C_3
REMARK    3  A    between atoms: C_6  and  N_7
REMARK    4  A    between atoms: N_7  and  C_8
REMARK    5  A    between atoms: C_8  and  C_9
REMARK    6  A    between atoms: C_20  and  C_22
REMARK    7  A    between atoms: C_25  and  C_26
REMARK    8  A    between atoms: C_27  and  C_28
REMARK    9  A    between atoms: N_30  and  O_31
REMARK                            x       y       z     vdW  Elec       q    Type
REMARK                         _______ _______ _______ _____ _____    ______ ____
ROOT
ATOM      1  N   UNL     1      -0.123  10.920  20.451  0.00  0.00    +0.000 N 
ATOM      2  C   UNL     1       0.834   9.968  20.903  0.00  0.00    +0.000 C 
ATOM      3  O   UNL     1       1.119   9.808  22.095  0.00  0.00    +0.000 OA
ENDROOT
BRANCH   1   7
ATOM      4  C   UNL     1      -1.532  13.611  23.462  0.00  0.00    +0.000 A 
ATOM      5  C   UNL     1      -0.570  14.017  22.538  0.00  0.00    +0.000 A 
ATOM      6  C   UNL     1      -0.118  13.142  21.540  0.00  0.00    +0.000 A 
ATOM      7  C   UNL     1      -0.630  11.838  21.442  0.00  0.00    +0.000 A 
ATOM      8  C   UNL     1      -1.595  11.437  22.369  0.00  0.00    +0.000 A 
ATOM      9  C   UNL     1      -2.030  12.310  23.386  0.00  0.00    +0.000 A 
BRANCH   4  11
ATOM     10  C   UNL     1      -3.241  14.792  24.616  0.00  0.00    +0.000 C 
ATOM     11  O   UNL     1      -1.855  14.546  24.407  0.00  0.00    +0.000 OA
ENDBRANCH   4  11
ENDBRANCH   1   7
BRANCH   2  12
ATOM     12  C   UNL     1       1.497   9.004  19.979  0.00  0.00    +0.000 A 
ATOM     13  C   UNL     1       1.922   9.356  18.702  0.00  0.00    +0.000 A 
ATOM     14  C   UNL     1       2.547   8.410  17.884  0.00  0.00    +0.000 A 
ATOM     15  C   UNL     1       2.834   7.121  18.350  0.00  0.00    +0.000 A 
ATOM     16  C   UNL     1       2.456   6.782  19.655  0.00  0.00    +0.000 A 
ATOM     17  C   UNL     1       1.799   7.718  20.464  0.00  0.00    +0.000 A 
BRANCH  15  18
ATOM     18  C   UNL     1       3.513   6.185  17.439  0.00  0.00    +0.000 C 
ATOM     19  C   UNL     1       4.763   6.348  16.989  0.00  0.00    +0.000 C 
BRANCH  19  20
ATOM     20  C   UNL     1       5.326   5.392  16.003  0.00  0.00    +0.000 C 
ATOM     21  O   UNL     1       5.729   5.705  14.892  0.00  0.00    +0.000 OA
ATOM     22  N   UNL     1       5.363   4.109  16.487  0.00  0.00    +0.000 N 
ATOM     23  H   UNL     1       5.096   3.826  17.423  0.00  0.00    +0.000 HD
BRANCH  22  24
ATOM     24  O   UNL     1       5.933   3.122  15.660  0.00  0.00    +0.000 OA
ATOM     25  H   UNL     1       6.766   3.540  15.359  0.00  0.00    +0.000 HD
ENDBRANCH  22  24
ENDBRANCH  19  20
ENDBRANCH  15  18
ENDBRANCH   2  12
BRANCH   1  26
ATOM     26  C   UNL     1      -0.573  11.169  19.032  0.00  0.00    +0.000 C 
BRANCH  26  27
ATOM     27  C   UNL     1      -2.068  11.185  18.732  0.00  0.00    +0.000 A 
ATOM     28  C   UNL     1      -2.609  10.227  17.895  0.00  0.00    +0.000 A 
ATOM     29  C   UNL     1      -3.932  10.336  17.509  0.00  0.00    +0.000 A 
ATOM     30  C   UNL     1      -4.783  11.217  18.165  0.00  0.00    +0.000 A 
ATOM     31  C   UNL     1      -6.161  11.109  17.915  0.00  0.00    +0.000 A 
ATOM     32  C   UNL     1      -7.080  11.781  18.706  0.00  0.00    +0.000 A 
ATOM     33  C   UNL     1      -6.608  12.632  19.694  0.00  0.00    +0.000 A 
ATOM     34  C   UNL     1      -5.219  12.807  19.877  0.00  0.00    +0.000 A 
ATOM     35 CL   UNL     1      -4.742  13.893  21.141  0.00  0.00    +0.000 Cl
ATOM     36  C   UNL     1      -4.246  12.085  19.137  0.00  0.00    +0.000 A 
ATOM     37  N   UNL     1      -2.878  12.117  19.340  0.00  0.00    +0.000 NA
ENDBRANCH  26  27
ENDBRANCH   1  26
TORSDOF 8
ENDMDL
MODEL 2
REMARK VINA RESULT:      -8.3      0.616      1.077
REMARK  Name = 
REMARK  9 active torsions:
REMARK  status: ('A' for Active; 'I' for Inactive)
REMARK    1  A    between atoms: C_1  and  O_2
REMARK    2  A    between atoms: O_2  and  C_3
REMARK    3  A    between atoms: C_6  and  N_7
REMARK    4  A    between atoms: N_7  and  C_8
REMARK    5  A    between atoms: C_8  and  C_9
REMARK    6  A    between atoms: C_20  and  C_22
REMARK    7  A    between atoms: C_25  and  C_26
REMARK    8  A    between atoms: C_27  and  C_28
REMARK    9  A    between atoms: N_30  and  O_31
REMARK                            x       y       z     vdW  Elec       q    Type
REMARK                         _______ _______ _______ _____ _____    ______ ____
ROOT
ATOM      1  N   UNL     1      -0.117  10.906  20.493  0.00  0.00    +0.000 N 
ATOM      2  C   UNL     1       0.840   9.942  20.921  0.00  0.00    +0.000 C 
ATOM      3  O   UNL     1       1.114   9.742  22.109  0.00  0.00    +0.000 OA
ENDROOT
BRANCH   1   7
ATOM      4  C   UNL     1      -1.745  13.551  23.434  0.00  0.00    +0.000 A 
ATOM      5  C   UNL     1      -2.193  12.234  23.336  0.00  0.00    +0.000 A 
ATOM      6  C   UNL     1      -1.649  11.360  22.383  0.00  0.00    +0.000 A 
ATOM      7  C   UNL     1      -0.635  11.788  21.511  0.00  0.00    +0.000 A 
ATOM      8  C   UNL     1      -0.189  13.108  21.615  0.00  0.00    +0.000 A 
ATOM      9  C   UNL     1      -0.753  13.992  22.558  0.00  0.00    +0.000 A 
BRANCH   4  11
ATOM     10  C   UNL     1      -2.434  15.712  24.144  0.00  0.00    +0.000 C 
ATOM     11  O   UNL     1      -2.385  14.309  24.376  0.00  0.00    +0.000 OA
ENDBRANCH   4  11
ENDBRANCH   1   7
BRANCH   2  12
ATOM     12  C   UNL     1       1.512   9.013  19.970  0.00  0.00    +0.000 A 
ATOM     13  C   UNL     1       1.908   9.398  18.693  0.00  0.00    +0.000 A 
ATOM     14  C   UNL     1       2.545   8.483  17.848  0.00  0.00    +0.000 A 
ATOM     15  C   UNL     1       2.874   7.194  18.287  0.00  0.00    +0.000 A 
ATOM     16  C   UNL     1       2.525   6.823  19.592  0.00  0.00    +0.000 A 
ATOM     17  C   UNL     1       1.857   7.727  20.427  0.00  0.00    +0.000 A 
BRANCH  15  18
ATOM     18  C   UNL     1       3.562   6.292  17.349  0.00  0.00    +0.000 C 
ATOM     19  C   UNL     1       4.889   6.260  17.176  0.00  0.00    +0.000 C 
BRANCH  19  20
ATOM     20  C   UNL     1       5.479   5.375  16.141  0.00  0.00    +0.000 C 
ATOM     21  O   UNL     1       4.934   4.374  15.697  0.00  0.00    +0.000 OA
ATOM     22  N   UNL     1       6.707   5.816  15.719  0.00  0.00    +0.000 N 
ATOM     23  H   UNL     1       7.158   6.673  16.019  0.00  0.00    +0.000 HD
BRANCH  22  24
ATOM     24  O   UNL     1       7.340   5.087  14.694  0.00  0.00    +0.000 OA
ATOM     25  H   UNL     1       8.112   5.645  14.470  0.00  0.00    +0.000 HD
ENDBRANCH  22  24
ENDBRANCH  19  20
ENDBRANCH  15  18
ENDBRANCH   2  12
BRANCH   1  26
ATOM     26  C   UNL     1      -0.555  11.204  19.080  0.00  0.00    +0.000 C 
BRANCH  26  27
ATOM     27  C   UNL     1      -2.047  11.208  18.764  0.00  0.00    +0.000 A 
ATOM     28  C   UNL     1      -2.575  10.235  17.937  0.00  0.00    +0.000 A 
ATOM     29  C   UNL     1      -3.894  10.331  17.534  0.00  0.00    +0.000 A 
ATOM     30  C   UNL     1      -4.756  11.218  18.168  0.00  0.00    +0.000 A 
ATOM     31  C   UNL     1      -6.130  11.100  17.905  0.00  0.00    +0.000 A 
ATOM     32  C   UNL     1      -7.061  11.779  18.675  0.00  0.00    +0.000 A 
ATOM     33  C   UNL     1      -6.604  12.648  19.655  0.00  0.00    +0.000 A 
ATOM     34  C   UNL     1      -5.218  12.832  19.850  0.00  0.00    +0.000 A 
ATOM     35 CL   UNL     1      -4.759  13.940  21.103  0.00  0.00    +0.000 Cl
ATOM     36  C   UNL     1      -4.233  12.104  19.131  0.00  0.00    +0.000 A 
ATOM     37  N   UNL     1      -2.868  12.145  19.349  0.00  0.00    +0.000 NA
ENDBRANCH  26  27
ENDBRANCH   1  26
TORSDOF 8
ENDMDL
MODEL 3
REMARK VINA RESULT:      -8.3      1.194      1.669
REMARK  Name = 
REMARK  9 active torsions:
REMARK  status: ('A' for Active; 'I' for Inactive)
REMARK    1  A    between atoms: C_1  and  O_2
REMARK    2  A    between atoms: O_2  and  C_3
REMARK    3  A    between atoms: C_6  and  N_7
REMARK    4  A    between atoms: N_7  and  C_8
REMARK    5  A    between atoms: C_8  and  C_9
REMARK    6  A    between atoms: C_20  and  C_22
REMARK    7  A    between atoms: C_25  and  C_26
REMARK    8  A    between atoms: C_27  and  C_28
REMARK    9  A    between atoms: N_30  and  O_31
REMARK                            x       y       z     vdW  Elec       q    Type
REMARK                         _______ _______ _______ _____ _____    ______ ____
ROOT
ATOM      1  N   UNL     1      -0.790  11.880  21.486  0.00  0.00    +0.000 N 
ATOM      2  C   UNL     1      -0.053  10.737  21.909  0.00  0.00    +0.000 C 
ATOM      3  O   UNL     1       0.022  10.380  23.090  0.00  0.00    +0.000 OA
ENDROOT
BRANCH   1   7
ATOM      4  C   UNL     1      -2.399  14.455  24.497  0.00  0.00    +0.000 A 
ATOM      5  C   UNL     1      -3.060  13.281  24.138  0.00  0.00    +0.000 A 
ATOM      6  C   UNL     1      -2.526  12.427  23.162  0.00  0.00    +0.000 A 
ATOM      7  C   UNL     1      -1.309  12.729  22.530  0.00  0.00    +0.000 A 
ATOM      8  C   UNL     1      -0.651  13.906  22.895  0.00  0.00    +0.000 A 
ATOM      9  C   UNL     1      -1.201  14.775  23.859  0.00  0.00    +0.000 A 
BRANCH   4  11
ATOM     10  C   UNL     1      -3.845  16.289  24.939  0.00  0.00    +0.000 C 
ATOM     11  O   UNL     1      -3.046  15.218  25.430  0.00  0.00    +0.000 OA
ENDBRANCH   4  11
ENDBRANCH   1   7
BRANCH   2  12
ATOM     12  C   UNL     1       0.602   9.810  20.944  0.00  0.00    +0.000 A 
ATOM     13  C   UNL     1       0.863  10.159  19.623  0.00  0.00    +0.000 A 
ATOM     14  C   UNL     1       1.490   9.248  18.766  0.00  0.00    +0.000 A 
ATOM     15  C   UNL     1       1.943   8.006  19.229  0.00  0.00    +0.000 A 
ATOM     16  C   UNL     1       1.730   7.676  20.573  0.00  0.00    +0.000 A 
ATOM     17  C   UNL     1       1.071   8.573  21.423  0.00  0.00    +0.000 A 
BRANCH  15  18
ATOM     18  C   UNL     1       2.612   7.108  18.274  0.00  0.00    +0.000 C 
ATOM     19  C   UNL     1       3.590   6.256  18.604  0.00  0.00    +0.000 C 
BRANCH  19  20
ATOM     20  C   UNL     1       4.261   5.455  17.550  0.00  0.00    +0.000 C 
ATOM     21  O   UNL     1       4.757   5.926  16.536  0.00  0.00    +0.000 OA
ATOM     22  N   UNL     1       4.282   4.117  17.849  0.00  0.00    +0.000 N 
ATOM     23  H   UNL     1       3.937   3.702  18.707  0.00  0.00    +0.000 HD
BRANCH  22  24
ATOM     24  O   UNL     1       4.946   3.263  16.948  0.00  0.00    +0.000 OA
ATOM     25  H   UNL     1       5.717   3.796  16.665  0.00  0.00    +0.000 HD
ENDBRANCH  22  24
ENDBRANCH  19  20
ENDBRANCH  15  18
ENDBRANCH   2  12
BRANCH   1  26
ATOM     26  C   UNL     1      -0.980  12.381  20.075  0.00  0.00    +0.000 C 
BRANCH  26  27
ATOM     27  C   UNL     1      -2.331  12.168  19.400  0.00  0.00    +0.000 A 
ATOM     28  C   UNL     1      -2.398  11.473  18.207  0.00  0.00    +0.000 A 
ATOM     29  C   UNL     1      -3.600  11.413  17.526  0.00  0.00    +0.000 A 
ATOM     30  C   UNL     1      -4.780  11.791  18.155  0.00  0.00    +0.000 A 
ATOM     31  C   UNL     1      -5.993  11.474  17.522  0.00  0.00    +0.000 A 
ATOM     32  C   UNL     1      -7.198  11.599  18.194  0.00  0.00    +0.000 A 
ATOM     33  C   UNL     1      -7.191  12.127  19.477  0.00  0.00    +0.000 A 
ATOM     34  C   UNL     1      -5.976  12.531  20.071  0.00  0.00    +0.000 A 
ATOM     35 CL   UNL     1      -6.083  13.176  21.677  0.00  0.00    +0.000 Cl
ATOM     36  C   UNL     1      -4.714  12.355  19.445  0.00  0.00    +0.000 A 
ATOM     37  N   UNL     1      -3.479  12.617  20.010  0.00  0.00    +0.000 NA
ENDBRANCH  26  27
ENDBRANCH   1  26
TORSDOF 8
ENDMDL
MODEL 4
REMARK VINA RESULT:      -8.3      1.777      2.271
REMARK  Name = 
REMARK  9 active torsions:
REMARK  status: ('A' for Active; 'I' for Inactive)
REMARK    1  A    between atoms: C_1  and  O_2
REMARK    2  A    between atoms: O_2  and  C_3
REMARK    3  A    between atoms: C_6  and  N_7
REMARK    4  A    between atoms: N_7  and  C_8
REMARK    5  A    between atoms: C_8  and  C_9
REMARK    6  A    between atoms: C_20  and  C_22
REMARK    7  A    between atoms: C_25  and  C_26
REMARK    8  A    between atoms: C_27  and  C_28
REMARK    9  A    between atoms: N_30  and  O_31
REMARK                            x       y       z     vdW  Elec       q    Type
REMARK                         _______ _______ _______ _____ _____    ______ ____
ROOT
ATOM      1  N   UNL     1       0.333  10.809  20.611  0.00  0.00    +0.000 N 
ATOM      2  C   UNL     1       1.019   9.762  21.289  0.00  0.00    +0.000 C 
ATOM      3  O   UNL     1       1.236   9.771  22.505  0.00  0.00    +0.000 OA
ENDROOT
BRANCH   1   7
ATOM      4  C   UNL     1      -0.594  14.349  22.825  0.00  0.00    +0.000 A 
ATOM      5  C   UNL     1      -1.252  13.149  23.094  0.00  0.00    +0.000 A 
ATOM      6  C   UNL     1      -0.939  11.984  22.380  0.00  0.00    +0.000 A 
ATOM      7  C   UNL     1       0.052  11.995  21.384  0.00  0.00    +0.000 A 
ATOM      8  C   UNL     1       0.708  13.199  21.121  0.00  0.00    +0.000 A 
ATOM      9  C   UNL     1       0.376  14.375  21.823  0.00  0.00    +0.000 A 
BRANCH   4  11
ATOM     10  C   UNL     1      -0.332  16.648  23.367  0.00  0.00    +0.000 C 
ATOM     11  O   UNL     1      -1.021  15.419  23.563  0.00  0.00    +0.000 OA
ENDBRANCH   4  11
ENDBRANCH   1   7
BRANCH   2  12
ATOM     12  C   UNL     1       1.439   8.508  20.600  0.00  0.00    +0.000 A 
ATOM     13  C   UNL     1       1.285   7.249  21.169  0.00  0.00    +0.000 A 
ATOM     14  C   UNL     1       1.688   6.107  20.468  0.00  0.00    +0.000 A 
ATOM     15  C   UNL     1       2.175   6.192  19.157  0.00  0.00    +0.000 A 
ATOM     16  C   UNL     1       2.279   7.456  18.563  0.00  0.00    +0.000 A 
ATOM     17  C   UNL     1       1.907   8.603  19.276  0.00  0.00    +0.000 A 
BRANCH  15  18
ATOM     18  C   UNL     1       2.562   4.946  18.475  0.00  0.00    +0.000 C 
ATOM     19  C   UNL     1       2.089   3.736  18.797  0.00  0.00    +0.000 C 
BRANCH  19  20
ATOM     20  C   UNL     1       2.608   2.530  18.106  0.00  0.00    +0.000 C 
ATOM     21  O   UNL     1       2.320   2.215  16.960  0.00  0.00    +0.000 OA
ATOM     22  N   UNL     1       3.470   1.810  18.893  0.00  0.00    +0.000 N 
ATOM     23  H   UNL     1       3.778   2.076  19.821  0.00  0.00    +0.000 HD
BRANCH  22  24
ATOM     24  O   UNL     1       4.073   0.673  18.321  0.00  0.00    +0.000 OA
ATOM     25  H   UNL     1       3.379   0.333  17.720  0.00  0.00    +0.000 HD
ENDBRANCH  22  24
ENDBRANCH  19  20
ENDBRANCH  15  18
ENDBRANCH   2  12
BRANCH   1  26
ATOM     26  C   UNL     1      -0.018  10.881  19.145  0.00  0.00    +0.000 C 
BRANCH  26  27
ATOM     27  C   UNL     1      -1.490  10.935  18.749  0.00  0.00    +0.000 A 
ATOM     28  C   UNL     1      -2.000   9.989  17.880  0.00  0.00    +0.000 A 
ATOM     29  C   UNL     1      -3.292  10.130  17.408  0.00  0.00    +0.000 A 
ATOM     30  C   UNL     1      -4.161  11.035  18.007  0.00  0.00    +0.000 A 
ATOM     31  C   UNL     1      -5.521  10.962  17.668  0.00  0.00    +0.000 A 
ATOM     32  C   UNL     1      -6.472  11.660  18.396  0.00  0.00    +0.000 A 
ATOM     33  C   UNL     1      -6.043  12.502  19.411  0.00  0.00    +0.000 A 
ATOM     34  C   UNL     1      -4.665  12.642  19.684  0.00  0.00    +0.000 A 
ATOM     35 CL   UNL     1      -4.243  13.719  20.975  0.00  0.00    +0.000 Cl
ATOM     36  C   UNL     1      -3.665  11.893  19.009  0.00  0.00    +0.000 A 
ATOM     37  N   UNL     1      -2.313  11.889  19.301  0.00  0.00    +0.000 NA
ENDBRANCH  26  27
ENDBRANCH   1  26
TORSDOF 8
ENDMDL
MODEL 5
REMARK VINA RESULT:      -8.2      1.116      1.785
REMARK  Name = 
REMARK  9 active torsions:
REMARK  status: ('A' for Active; 'I' for Inactive)
REMARK    1  A    between atoms: C_1  and  O_2
REMARK    2  A    between atoms: O_2  and  C_3
REMARK    3  A    between atoms: C_6  and  N_7
REMARK    4  A    between atoms: N_7  and  C_8
REMARK    5  A    between atoms: C_8  and  C_9
REMARK    6  A    between atoms: C_20  and  C_22
REMARK    7  A    between atoms: C_25  and  C_26
REMARK    8  A    between atoms: C_27  and  C_28
REMARK    9  A    between atoms: N_30  and  O_31
REMARK                            x       y       z     vdW  Elec       q    Type
REMARK                         _______ _______ _______ _____ _____    ______ ____
ROOT
ATOM      1  N   UNL     1      -0.590  11.829  21.247  0.00  0.00    +0.000 N 
ATOM      2  C   UNL     1       0.215  10.732  21.667  0.00  0.00    +0.000 C 
ATOM      3  O   UNL     1       0.338  10.397  22.850  0.00  0.00    +0.000 OA
ENDROOT
BRANCH   1   7
ATOM      4  C   UNL     1      -2.248  14.368  24.262  0.00  0.00    +0.000 A 
ATOM      5  C   UNL     1      -2.870  13.167  23.922  0.00  0.00    +0.000 A 
ATOM      6  C   UNL     1      -2.320  12.325  22.945  0.00  0.00    +0.000 A 
ATOM      7  C   UNL     1      -1.124  12.667  22.292  0.00  0.00    +0.000 A 
ATOM      8  C   UNL     1      -0.505  13.871  22.638  0.00  0.00    +0.000 A 
ATOM      9  C   UNL     1      -1.073  14.727  23.603  0.00  0.00    +0.000 A 
BRANCH   4  11
ATOM     10  C   UNL     1      -4.064  15.819  24.758  0.00  0.00    +0.000 C 
ATOM     11  O   UNL     1      -2.909  15.114  25.199  0.00  0.00    +0.000 OA
ENDBRANCH   4  11
ENDBRANCH   1   7
BRANCH   2  12
ATOM     12  C   UNL     1       0.891   9.823  20.698  0.00  0.00    +0.000 A 
ATOM     13  C   UNL     1       1.285   8.530  21.026  0.00  0.00    +0.000 A 
ATOM     14  C   UNL     1       1.907   7.721  20.070  0.00  0.00    +0.000 A 
ATOM     15  C   UNL     1       2.073   8.152  18.748  0.00  0.00    +0.000 A 
ATOM     16  C   UNL     1       1.626   9.434  18.402  0.00  0.00    +0.000 A 
ATOM     17  C   UNL     1       1.035  10.259  19.367  0.00  0.00    +0.000 A 
BRANCH  15  18
ATOM     18  C   UNL     1       2.717   7.238  17.791  0.00  0.00    +0.000 C 
ATOM     19  C   UNL     1       3.954   6.748  17.938  0.00  0.00    +0.000 C 
BRANCH  19  20
ATOM     20  C   UNL     1       4.547   5.901  16.873  0.00  0.00    +0.000 C 
ATOM     21  O   UNL     1       4.362   4.697  16.767  0.00  0.00    +0.000 OA
ATOM     22  N   UNL     1       5.318   6.627  16.002  0.00  0.00    +0.000 N 
ATOM     23  H   UNL     1       5.441   7.633  16.024  0.00  0.00    +0.000 HD
BRANCH  22  24
ATOM     24  O   UNL     1       5.885   5.939  14.912  0.00  0.00    +0.000 OA
ATOM     25  H   UNL     1       5.868   6.605  14.196  0.00  0.00    +0.000 HD
ENDBRANCH  22  24
ENDBRANCH  19  20
ENDBRANCH  15  18
ENDBRANCH   2  12
BRANCH   1  26
ATOM     26  C   UNL     1      -0.840  12.298  19.834  0.00  0.00    +0.000 C 
BRANCH  26  27
ATOM     27  C   UNL     1      -2.223  12.079  19.227  0.00  0.00    +0.000 A 
ATOM     28  C   UNL     1      -2.348  11.373  18.046  0.00  0.00    +0.000 A 
ATOM     29  C   UNL     1      -3.581  11.307  17.424  0.00  0.00    +0.000 A 
ATOM     30  C   UNL     1      -4.729  11.693  18.105  0.00  0.00    +0.000 A 
ATOM     31  C   UNL     1      -5.971  11.371  17.534  0.00  0.00    +0.000 A 
ATOM     32  C   UNL     1      -7.143  11.504  18.262  0.00  0.00    +0.000 A 
ATOM     33  C   UNL     1      -7.073  12.045  19.538  0.00  0.00    +0.000 A 
ATOM     34  C   UNL     1      -5.831  12.454  20.069  0.00  0.00    +0.000 A 
ATOM     35 CL   UNL     1      -5.861  13.116  21.671  0.00  0.00    +0.000 Cl
ATOM     36  C   UNL     1      -4.601  12.270  19.384  0.00  0.00    +0.000 A 
ATOM     37  N   UNL     1      -3.340  12.537  19.887  0.00  0.00    +0.000 NA
ENDBRANCH  26  27
ENDBRANCH   1  26
TORSDOF 8
ENDMDL
MODEL 6
REMARK VINA RESULT:      -8.2      1.394      2.064
REMARK  Name = 
REMARK  9 active torsions:
REMARK  status: ('A' for Active; 'I' for Inactive)
REMARK    1  A    between atoms: C_1  and  O_2
REMARK    2  A    between atoms: O_2  and  C_3
REMARK    3  A    between atoms: C_6  and  N_7
REMARK    4  A    between atoms: N_7  and  C_8
REMARK    5  A    between atoms: C_8  and  C_9
REMARK    6  A    between atoms: C_20  and  C_22
REMARK    7  A    between atoms: C_25  and  C_26
REMARK    8  A    between atoms: C_27  and  C_28
REMARK    9  A    between atoms: N_30  and  O_31
REMARK                            x       y       z     vdW  Elec       q    Type
REMARK                         _______ _______ _______ _____ _____    ______ ____
ROOT
ATOM      1  N   UNL     1      -0.812  11.747  21.672  0.00  0.00    +0.000 N 
ATOM      2  C   UNL     1      -0.109  10.621  22.187  0.00  0.00    +0.000 C 
ATOM      3  O   UNL     1      -0.119  10.305  23.382  0.00  0.00    +0.000 OA
ENDROOT
BRANCH   1   7
ATOM      4  C   UNL     1      -2.633  14.421  24.468  0.00  0.00    +0.000 A 
ATOM      5  C   UNL     1      -3.249  13.216  24.132  0.00  0.00    +0.000 A 
ATOM      6  C   UNL     1      -2.646  12.330  23.228  0.00  0.00    +0.000 A 
ATOM      7  C   UNL     1      -1.404  12.632  22.646  0.00  0.00    +0.000 A 
ATOM      8  C   UNL     1      -0.791  13.840  22.988  0.00  0.00    +0.000 A 
ATOM      9  C   UNL     1      -1.410  14.739  23.879  0.00  0.00    +0.000 A 
BRANCH   4  11
ATOM     10  C   UNL     1      -3.815  16.453  24.817  0.00  0.00    +0.000 C 
ATOM     11  O   UNL     1      -3.344  15.212  25.329  0.00  0.00    +0.000 OA
ENDBRANCH   4  11
ENDBRANCH   1   7
BRANCH   2  12
ATOM     12  C   UNL     1       0.613   9.661  21.304  0.00  0.00    +0.000 A 
ATOM     13  C   UNL     1       0.952   8.374  21.709  0.00  0.00    +0.000 A 
ATOM     14  C   UNL     1       1.620   7.514  20.831  0.00  0.00    +0.000 A 
ATOM     15  C   UNL     1       1.889   7.889  19.509  0.00  0.00    +0.000 A 
ATOM     16  C   UNL     1       1.499   9.165  19.083  0.00  0.00    +0.000 A 
ATOM     17  C   UNL     1       0.860  10.040  19.972  0.00  0.00    +0.000 A 
BRANCH  15  18
ATOM     18  C   UNL     1       2.578   6.924  18.637  0.00  0.00    +0.000 C 
ATOM     19  C   UNL     1       2.829   5.654  18.974  0.00  0.00    +0.000 C 
BRANCH  19  20
ATOM     20  C   UNL     1       3.608   4.784  18.058  0.00  0.00    +0.000 C 
ATOM     21  O   UNL     1       3.124   4.152  17.130  0.00  0.00    +0.000 OA
ATOM     22  N   UNL     1       4.947   4.781  18.357  0.00  0.00    +0.000 N 
ATOM     23  H   UNL     1       5.389   5.341  19.077  0.00  0.00    +0.000 HD
BRANCH  22  24
ATOM     24  O   UNL     1       5.796   4.036  17.516  0.00  0.00    +0.000 OA
ATOM     25  H   UNL     1       5.967   4.651  16.774  0.00  0.00    +0.000 HD
ENDBRANCH  22  24
ENDBRANCH  19  20
ENDBRANCH  15  18
ENDBRANCH   2  12
BRANCH   1  26
ATOM     26  C   UNL     1      -0.899  12.198  20.235  0.00  0.00    +0.000 C 
BRANCH  26  27
ATOM     27  C   UNL     1      -2.225  12.037  19.498  0.00  0.00    +0.000 A 
ATOM     28  C   UNL     1      -2.265  11.345  18.302  0.00  0.00    +0.000 A 
ATOM     29  C   UNL     1      -3.436  11.332  17.567  0.00  0.00    +0.000 A 
ATOM     30  C   UNL     1      -4.628  11.755  18.142  0.00  0.00    +0.000 A 
ATOM     31  C   UNL     1      -5.822  11.484  17.454  0.00  0.00    +0.000 A 
ATOM     32  C   UNL     1      -7.051  11.656  18.071  0.00  0.00    +0.000 A 
ATOM     33  C   UNL     1      -7.082  12.184  19.353  0.00  0.00    +0.000 A 
ATOM     34  C   UNL     1      -5.880  12.542  20.003  0.00  0.00    +0.000 A 
ATOM     35 CL   UNL     1      -6.036  13.191  21.602  0.00  0.00    +0.000 Cl
ATOM     36  C   UNL     1      -4.599  12.317  19.434  0.00  0.00    +0.000 A 
ATOM     37  N   UNL     1      -3.382  12.531  20.056  0.00  0.00    +0.000 NA
ENDBRANCH  26  27
ENDBRANCH   1  26
TORSDOF 8
ENDMDL
MODEL 7
REMARK VINA RESULT:      -8.2      0.906      1.558
REMARK  Name = 
REMARK  9 active torsions:
REMARK  status: ('A' for Active; 'I' for Inactive)
REMARK    1  A    between atoms: C_1  and  O_2
REMARK    2  A    between atoms: O_2  and  C_3
REMARK    3  A    between atoms: C_6  and  N_7
REMARK    4  A    between atoms: N_7  and  C_8
REMARK    5  A    between atoms: C_8  and  C_9
REMARK    6  A    between atoms: C_20  and  C_22
REMARK    7  A    between atoms: C_25  and  C_26
REMARK    8  A    between atoms: C_27  and  C_28
REMARK    9  A    between atoms: N_30  and  O_31
REMARK                            x       y       z     vdW  Elec       q    Type
REMARK                         _______ _______ _______ _____ _____    ______ ____
ROOT
ATOM      1  N   UNL     1       0.362  10.399  20.430  0.00  0.00    +0.000 N 
ATOM      2  C   UNL     1       1.124   9.322  20.966  0.00  0.00    +0.000 C 
ATOM      3  O   UNL     1       1.235   9.109  22.178  0.00  0.00    +0.000 OA
ENDROOT
BRANCH   1   7
ATOM      4  C   UNL     1      -1.220  13.278  23.167  0.00  0.00    +0.000 A 
ATOM      5  C   UNL     1      -1.677  11.961  23.178  0.00  0.00    +0.000 A 
ATOM      6  C   UNL     1      -1.148  11.011  22.292  0.00  0.00    +0.000 A 
ATOM      7  C   UNL     1      -0.140  11.362  21.379  0.00  0.00    +0.000 A 
ATOM      8  C   UNL     1       0.313  12.683  21.374  0.00  0.00    +0.000 A 
ATOM      9  C   UNL     1      -0.236  13.642  22.249  0.00  0.00    +0.000 A 
BRANCH   4  11
ATOM     10  C   UNL     1      -3.232  13.881  24.280  0.00  0.00    +0.000 C 
ATOM     11  O   UNL     1      -1.847  14.113  24.052  0.00  0.00    +0.000 OA
ENDBRANCH   4  11
ENDBRANCH   1   7
BRANCH   2  12
ATOM     12  C   UNL     1       1.765   8.292  20.100  0.00  0.00    +0.000 A 
ATOM     13  C   UNL     1       1.902   6.963  20.486  0.00  0.00    +0.000 A 
ATOM     14  C   UNL     1       2.504   6.039  19.625  0.00  0.00    +0.000 A 
ATOM     15  C   UNL     1       2.905   6.402  18.333  0.00  0.00    +0.000 A 
ATOM     16  C   UNL     1       2.717   7.728  17.923  0.00  0.00    +0.000 A 
ATOM     17  C   UNL     1       2.146   8.662  18.797  0.00  0.00    +0.000 A 
BRANCH  15  18
ATOM     18  C   UNL     1       3.513   5.372  17.476  0.00  0.00    +0.000 C 
ATOM     19  C   UNL     1       4.738   5.463  16.945  0.00  0.00    +0.000 C 
BRANCH  19  20
ATOM     20  C   UNL     1       5.226   4.409  16.022  0.00  0.00    +0.000 C 
ATOM     21  O   UNL     1       5.400   3.241  16.340  0.00  0.00    +0.000 OA
ATOM     22  N   UNL     1       5.446   4.887  14.756  0.00  0.00    +0.000 N 
ATOM     23  H   UNL     1       5.252   5.832  14.444  0.00  0.00    +0.000 HD
BRANCH  22  24
ATOM     24  O   UNL     1       5.855   3.962  13.776  0.00  0.00    +0.000 OA
ATOM     25  H   UNL     1       5.018   3.735  13.323  0.00  0.00    +0.000 HD
ENDBRANCH  22  24
ENDBRANCH  19  20
ENDBRANCH  15  18
ENDBRANCH   2  12
BRANCH   1  26
ATOM     26  C   UNL     1       0.129  10.726  18.975  0.00  0.00    +0.000 C 
BRANCH  26  27
ATOM     27  C   UNL     1      -1.307  10.856  18.477  0.00  0.00    +0.000 A 
ATOM     28  C   UNL     1      -1.745  10.061  17.434  0.00  0.00    +0.000 A 
ATOM     29  C   UNL     1      -2.995  10.288  16.889  0.00  0.00    +0.000 A 
ATOM     30  C   UNL     1      -3.910  11.097  17.551  0.00  0.00    +0.000 A 
ATOM     31  C   UNL     1      -5.240  11.092  17.099  0.00  0.00    +0.000 A 
ATOM     32  C   UNL     1      -6.247  11.678  17.850  0.00  0.00    +0.000 A 
ATOM     33  C   UNL     1      -5.902  12.347  19.015  0.00  0.00    +0.000 A 
ATOM     34  C   UNL     1      -4.550  12.429  19.413  0.00  0.00    +0.000 A 
ATOM     35 CL   UNL     1      -4.234  13.288  20.886  0.00  0.00    +0.000 Cl
ATOM     36  C   UNL     1      -3.498  11.783  18.711  0.00  0.00    +0.000 A 
ATOM     37  N   UNL     1      -2.174  11.721  19.105  0.00  0.00    +0.000 NA
ENDBRANCH  26  27
ENDBRANCH   1  26
TORSDOF 8
ENDMDL
MODEL 8
REMARK VINA RESULT:      -8.1      3.158      4.846
REMARK  Name = 
REMARK  9 active torsions:
REMARK  status: ('A' for Active; 'I' for Inactive)
REMARK    1  A    between atoms: C_1  and  O_2
REMARK    2  A    between atoms: O_2  and  C_3
REMARK    3  A    between atoms: C_6  and  N_7
REMARK    4  A    between atoms: N_7  and  C_8
REMARK    5  A    between atoms: C_8  and  C_9
REMARK    6  A    between atoms: C_20  and  C_22
REMARK    7  A    between atoms: C_25  and  C_26
REMARK    8  A    between atoms: C_27  and  C_28
REMARK    9  A    between atoms: N_30  and  O_31
REMARK                            x       y       z     vdW  Elec       q    Type
REMARK                         _______ _______ _______ _____ _____    ______ ____
ROOT
ATOM      1  N   UNL     1      -0.087  11.510  20.544  0.00  0.00    +0.000 N 
ATOM      2  C   UNL     1      -0.351  10.236  19.965  0.00  0.00    +0.000 C 
ATOM      3  O   UNL     1      -1.492   9.820  19.737  0.00  0.00    +0.000 OA
ENDROOT
BRANCH   1   7
ATOM      4  C   UNL     1      -3.549  13.578  21.967  0.00  0.00    +0.000 A 
ATOM      5  C   UNL     1      -2.846  12.709  22.801  0.00  0.00    +0.000 A 
ATOM      6  C   UNL     1      -1.701  12.043  22.342  0.00  0.00    +0.000 A 
ATOM      7  C   UNL     1      -1.231  12.240  21.034  0.00  0.00    +0.000 A 
ATOM      8  C   UNL     1      -1.938  13.112  20.203  0.00  0.00    +0.000 A 
ATOM      9  C   UNL     1      -3.102  13.764  20.659  0.00  0.00    +0.000 A 
BRANCH   4  11
ATOM     10  C   UNL     1      -5.330  13.369  23.526  0.00  0.00    +0.000 C 
ATOM     11  O   UNL     1      -4.669  14.132  22.524  0.00  0.00    +0.000 OA
ENDBRANCH   4  11
ENDBRANCH   1   7
BRANCH   2  12
ATOM     12  C   UNL     1       0.738   9.340  19.482  0.00  0.00    +0.000 A 
ATOM     13  C   UNL     1       1.266   8.312  20.256  0.00  0.00    +0.000 A 
ATOM     14  C   UNL     1       2.281   7.497  19.743  0.00  0.00    +0.000 A 
ATOM     15  C   UNL     1       2.730   7.636  18.424  0.00  0.00    +0.000 A 
ATOM     16  C   UNL     1       2.160   8.635  17.625  0.00  0.00    +0.000 A 
ATOM     17  C   UNL     1       1.168   9.475  18.149  0.00  0.00    +0.000 A 
BRANCH  15  18
ATOM     18  C   UNL     1       3.787   6.729  17.948  0.00  0.00    +0.000 C 
ATOM     19  C   UNL     1       3.950   5.473  18.381  0.00  0.00    +0.000 C 
BRANCH  19  20
ATOM     20  C   UNL     1       5.100   4.668  17.902  0.00  0.00    +0.000 C 
ATOM     21  O   UNL     1       6.093   4.419  18.570  0.00  0.00    +0.000 OA
ATOM     22  N   UNL     1       4.918   4.212  16.621  0.00  0.00    +0.000 N 
ATOM     23  H   UNL     1       4.082   4.347  16.063  0.00  0.00    +0.000 HD
BRANCH  22  24
ATOM     24  O   UNL     1       5.921   3.385  16.080  0.00  0.00    +0.000 OA
ATOM     25  H   UNL     1       5.487   2.998  15.292  0.00  0.00    +0.000 HD
ENDBRANCH  22  24
ENDBRANCH  19  20
ENDBRANCH  15  18
ENDBRANCH   2  12
BRANCH   1  26
ATOM     26  C   UNL     1       1.260  12.130  20.828  0.00  0.00    +0.000 C 
BRANCH  26  27
ATOM     27  C   UNL     1       1.793  13.188  19.867  0.00  0.00    +0.000 A 
ATOM     28  C   UNL     1       2.658  12.819  18.853  0.00  0.00    +0.000 A 
ATOM     29  C   UNL     1       3.254  13.800  18.083  0.00  0.00    +0.000 A 
ATOM     30  C   UNL     1       2.784  15.107  18.127  0.00  0.00    +0.000 A 
ATOM     31  C   UNL     1       3.243  16.004  17.149  0.00  0.00    +0.000 A 
ATOM     32  C   UNL     1       2.642  17.242  16.983  0.00  0.00    +0.000 A 
ATOM     33  C   UNL     1       1.634  17.612  17.861  0.00  0.00    +0.000 A 
ATOM     34  C   UNL     1       1.242  16.742  18.901  0.00  0.00    +0.000 A 
ATOM     35 CL   UNL     1      -0.028  17.306  19.937  0.00  0.00    +0.000 Cl
ATOM     36  C   UNL     1       1.783  15.439  19.062  0.00  0.00    +0.000 A 
ATOM     37  N   UNL     1       1.367  14.491  19.980  0.00  0.00    +0.000 NA
ENDBRANCH  26  27
ENDBRANCH   1  26
TORSDOF 8
ENDMDL
MODEL 9
REMARK VINA RESULT:      -8.1      1.033      1.382
REMARK  Name = 
REMARK  9 active torsions:
REMARK  status: ('A' for Active; 'I' for Inactive)
REMARK    1  A    between atoms: C_1  and  O_2
REMARK    2  A    between atoms: O_2  and  C_3
REMARK    3  A    between atoms: C_6  and  N_7
REMARK    4  A    between atoms: N_7  and  C_8
REMARK    5  A    between atoms: C_8  and  C_9
REMARK    6  A    between atoms: C_20  and  C_22
REMARK    7  A    between atoms: C_25  and  C_26
REMARK    8  A    between atoms: C_27  and  C_28
REMARK    9  A    between atoms: N_30  and  O_31
REMARK                            x       y       z     vdW  Elec       q    Type
REMARK                         _______ _______ _______ _____ _____    ______ ____
ROOT
ATOM      1  N   UNL     1      -0.173  11.527  20.953  0.00  0.00    +0.000 N 
ATOM      2  C   UNL     1       0.519  10.392  21.465  0.00  0.00    +0.000 C 
ATOM      3  O   UNL     1       0.633  10.158  22.673  0.00  0.00    +0.000 OA
ENDROOT
BRANCH   1   7
ATOM      4  C   UNL     1      -1.499  14.483  23.745  0.00  0.00    +0.000 A 
ATOM      5  C   UNL     1      -2.103  13.227  23.698  0.00  0.00    +0.000 A 
ATOM      6  C   UNL     1      -1.660  12.250  22.795  0.00  0.00    +0.000 A 
ATOM      7  C   UNL     1      -0.591  12.512  21.922  0.00  0.00    +0.000 A 
ATOM      8  C   UNL     1       0.010  13.771  21.974  0.00  0.00    +0.000 A 
ATOM      9  C   UNL     1      -0.452  14.759  22.866  0.00  0.00    +0.000 A 
BRANCH   4  11
ATOM     10  C   UNL     1      -1.343  15.561  25.857  0.00  0.00    +0.000 C 
ATOM     11  O   UNL     1      -2.053  15.356  24.641  0.00  0.00    +0.000 OA
ENDBRANCH   4  11
ENDBRANCH   1   7
BRANCH   2  12
ATOM     12  C   UNL     1       1.071   9.330  20.577  0.00  0.00    +0.000 A 
ATOM     13  C   UNL     1       1.444   9.570  19.259  0.00  0.00    +0.000 A 
ATOM     14  C   UNL     1       1.967   8.534  18.477  0.00  0.00    +0.000 A 
ATOM     15  C   UNL     1       2.205   7.264  19.017  0.00  0.00    +0.000 A 
ATOM     16  C   UNL     1       1.881   7.037  20.361  0.00  0.00    +0.000 A 
ATOM     17  C   UNL     1       1.326   8.063  21.135  0.00  0.00    +0.000 A 
BRANCH  15  18
ATOM     18  C   UNL     1       2.776   6.229  18.140  0.00  0.00    +0.000 C 
ATOM     19  C   UNL     1       3.957   5.634  18.350  0.00  0.00    +0.000 C 
BRANCH  19  20
ATOM     20  C   UNL     1       4.485   4.664  17.358  0.00  0.00    +0.000 C 
ATOM     21  O   UNL     1       3.786   3.969  16.635  0.00  0.00    +0.000 OA
ATOM     22  N   UNL     1       5.856   4.647  17.328  0.00  0.00    +0.000 N 
ATOM     23  H   UNL     1       6.463   5.254  17.867  0.00  0.00    +0.000 HD
BRANCH  22  24
ATOM     24  O   UNL     1       6.471   3.806  16.381  0.00  0.00    +0.000 OA
ATOM     25  H   UNL     1       5.745   3.207  16.112  0.00  0.00    +0.000 HD
ENDBRANCH  22  24
ENDBRANCH  19  20
ENDBRANCH  15  18
ENDBRANCH   2  12
BRANCH   1  26
ATOM     26  C   UNL     1      -0.405  11.888  19.507  0.00  0.00    +0.000 C 
BRANCH  26  27
ATOM     27  C   UNL     1      -1.818  11.773  18.943  0.00  0.00    +0.000 A 
ATOM     28  C   UNL     1      -2.028  11.104  17.752  0.00  0.00    +0.000 A 
ATOM     29  C   UNL     1      -3.283  11.133  17.172  0.00  0.00    +0.000 A 
ATOM     30  C   UNL     1      -4.381  11.576  17.900  0.00  0.00    +0.000 A 
ATOM     31  C   UNL     1      -5.659  11.348  17.366  0.00  0.00    +0.000 A 
ATOM     32  C   UNL     1      -6.794  11.540  18.137  0.00  0.00    +0.000 A 
ATOM     33  C   UNL     1      -6.647  12.045  19.420  0.00  0.00    +0.000 A 
ATOM     34  C   UNL     1      -5.364  12.360  19.917  0.00  0.00    +0.000 A 
ATOM     35 CL   UNL     1      -5.298  12.984  21.533  0.00  0.00    +0.000 Cl
ATOM     36  C   UNL     1      -4.172  12.114  19.186  0.00  0.00    +0.000 A 
ATOM     37  N   UNL     1      -2.881  12.286  19.651  0.00  0.00    +0.000 NA
ENDBRANCH  26  27
ENDBRANCH   1  26
TORSDOF 8
ENDMDL
