MODEL 1
REMARK VINA RESULT:      -7.4      0.000      0.000
REMARK  Name = 
REMARK  8 active torsions:
REMARK  status: ('A' for Active; 'I' for Inactive)
REMARK    1  A    between atoms: C_1  and  C_2
REMARK    2  A    between atoms: C_5  and  C_6
REMARK    3  A    between atoms: C_6  and  C_7
REMARK    4  A    between atoms: C_6  and  C_8
REMARK    5  A    between atoms: C_8  and  N_9
REMARK    6  A    between atoms: N_12  and  C_13
REMARK    7  A    between atoms: C_13  and  C_14
REMARK    8  A    between atoms: C_17  and  C_18
REMARK                            x       y       z     vdW  Elec       q    Type
REMARK                         _______ _______ _______ _____ _____    ______ ____
ROOT
ATOM      1  N   UNL     1       7.106   7.517  16.933  0.00  0.00    +0.000 N 
ATOM      2  C   UNL     1       7.953   7.908  17.942  0.00  0.00    +0.000 C 
ATOM      3  O   UNL     1       8.406   7.154  18.789  0.00  0.00    +0.000 OA
ATOM      4  N   UNL     1       8.200   9.255  17.909  0.00  0.00    +0.000 N 
ATOM      5  H   UNL     1       7.133   8.082  16.095  0.00  0.00    +0.000 HD
ATOM      6  H   UNL     1       7.782   9.819  17.190  0.00  0.00    +0.000 HD
ENDROOT
BRANCH   1   7
ATOM      7  C   UNL     1       6.834   6.101  16.723  0.00  0.00    +0.000 C 
BRANCH   7   8
ATOM      8  C   UNL     1       5.336   5.787  16.568  0.00  0.00    +0.000 C 
ATOM      9  C   UNL     1       4.516   7.071  16.735  0.00  0.00    +0.000 C 
BRANCH   8  14
ATOM     10  C   UNL     1       3.307   1.573  18.234  0.00  0.00    +0.000 C 
ATOM     11  C   UNL     1       3.987   2.886  18.382  0.00  0.00    +0.000 A 
ATOM     12  C   UNL     1       4.384   3.481  19.564  0.00  0.00    +0.000 A 
ATOM     13  S   UNL     1       5.125   4.990  19.244  0.00  0.00    +0.000 S 
ATOM     14  C   UNL     1       4.873   4.747  17.558  0.00  0.00    +0.000 A 
ATOM     15  N   UNL     1       4.266   3.621  17.241  0.00  0.00    +0.000 NA
ENDBRANCH   8  14
ENDBRANCH   7   8
ENDBRANCH   1   7
BRANCH   4  16
ATOM     16  C   UNL     1       9.017   9.905  18.911  0.00  0.00    +0.000 C 
BRANCH  16  17
ATOM     17  C   UNL     1       9.481  11.276  18.488  0.00  0.00    +0.000 A 
ATOM     18  C   UNL     1       8.637  12.122  17.752  0.00  0.00    +0.000 A 
ATOM     19  C   UNL     1       9.065  13.401  17.376  0.00  0.00    +0.000 A 
ATOM     20  C   UNL     1      10.344  13.847  17.724  0.00  0.00    +0.000 A 
ATOM     21  C   UNL     1      11.196  13.005  18.445  0.00  0.00    +0.000 A 
ATOM     22  C   UNL     1      10.757  11.733  18.816  0.00  0.00    +0.000 A 
ATOM     23  F   UNL     1      11.593  10.947  19.511  0.00  0.00    +0.000 F 
BRANCH  20  24
ATOM     24  C   UNL     1      10.780  15.158  17.340  0.00  0.00    +0.000 C 
ATOM     25  N   UNL     1      11.129  16.220  17.027  0.00  0.00    +0.000 NA
ENDBRANCH  20  24
ENDBRANCH  16  17
ENDBRANCH   4  16
TORSDOF 6
ENDMDL
MODEL 2
REMARK VINA RESULT:      -7.3      5.731      7.361
REMARK  Name = 
REMARK  8 active torsions:
REMARK  status: ('A' for Active; 'I' for Inactive)
REMARK    1  A    between atoms: C_1  and  C_2
REMARK    2  A    between atoms: C_5  and  C_6
REMARK    3  A    between atoms: C_6  and  C_7
REMARK    4  A    between atoms: C_6  and  C_8
REMARK    5  A    between atoms: C_8  and  N_9
REMARK    6  A    between atoms: N_12  and  C_13
REMARK    7  A    between atoms: C_13  and  C_14
REMARK    8  A    between atoms: C_17  and  C_18
REMARK                            x       y       z     vdW  Elec       q    Type
REMARK                         _______ _______ _______ _____ _____    ______ ____
ROOT
ATOM      1  N   UNL     1       5.530   5.218  19.158  0.00  0.00    +0.000 N 
ATOM      2  C   UNL     1       4.164   5.269  19.017  0.00  0.00    +0.000 C 
ATOM      3  O   UNL     1       3.544   4.699  18.132  0.00  0.00    +0.000 OA
ATOM      4  N   UNL     1       3.582   6.068  19.965  0.00  0.00    +0.000 N 
ATOM      5  H   UNL     1       5.879   5.353  20.098  0.00  0.00    +0.000 HD
ATOM      6  H   UNL     1       4.156   6.519  20.656  0.00  0.00    +0.000 HD
ENDROOT
BRANCH   1   7
ATOM      7  C   UNL     1       6.311   4.311  18.326  0.00  0.00    +0.000 C 
BRANCH   7   8
ATOM      8  C   UNL     1       7.309   5.039  17.408  0.00  0.00    +0.000 C 
ATOM      9  C   UNL     1       7.278   6.544  17.695  0.00  0.00    +0.000 C 
BRANCH   8  14
ATOM     10  C   UNL     1       7.803   5.344  12.477  0.00  0.00    +0.000 C 
ATOM     11  C   UNL     1       7.176   4.867  13.736  0.00  0.00    +0.000 A 
ATOM     12  C   UNL     1       6.103   4.003  13.848  0.00  0.00    +0.000 A 
ATOM     13  S   UNL     1       5.727   3.740  15.496  0.00  0.00    +0.000 S 
ATOM     14  C   UNL     1       7.019   4.785  15.949  0.00  0.00    +0.000 A 
ATOM     15  N   UNL     1       7.688   5.313  14.944  0.00  0.00    +0.000 NA
ENDBRANCH   8  14
ENDBRANCH   7   8
ENDBRANCH   1   7
BRANCH   4  16
ATOM     16  C   UNL     1       2.157   6.321  19.977  0.00  0.00    +0.000 C 
BRANCH  16  17
ATOM     17  C   UNL     1       1.815   7.755  19.655  0.00  0.00    +0.000 A 
ATOM     18  C   UNL     1       2.020   8.267  18.365  0.00  0.00    +0.000 A 
ATOM     19  C   UNL     1       1.684   9.594  18.066  0.00  0.00    +0.000 A 
ATOM     20  C   UNL     1       1.149  10.426  19.053  0.00  0.00    +0.000 A 
ATOM     21  C   UNL     1       0.955   9.927  20.345  0.00  0.00    +0.000 A 
ATOM     22  C   UNL     1       1.291   8.602  20.631  0.00  0.00    +0.000 A 
ATOM     23  F   UNL     1       1.091   8.147  21.877  0.00  0.00    +0.000 F 
BRANCH  20  24
ATOM     24  C   UNL     1       0.805  11.783  18.745  0.00  0.00    +0.000 C 
ATOM     25  N   UNL     1       0.525  12.881  18.491  0.00  0.00    +0.000 NA
ENDBRANCH  20  24
ENDBRANCH  16  17
ENDBRANCH   4  16
TORSDOF 6
ENDMDL
MODEL 3
REMARK VINA RESULT:      -7.3      5.607      7.317
REMARK  Name = 
REMARK  8 active torsions:
REMARK  status: ('A' for Active; 'I' for Inactive)
REMARK    1  A    between atoms: C_1  and  C_2
REMARK    2  A    between atoms: C_5  and  C_6
REMARK    3  A    between atoms: C_6  and  C_7
REMARK    4  A    between atoms: C_6  and  C_8
REMARK    5  A    between atoms: C_8  and  N_9
REMARK    6  A    between atoms: N_12  and  C_13
REMARK    7  A    between atoms: C_13  and  C_14
REMARK    8  A    between atoms: C_17  and  C_18
REMARK                            x       y       z     vdW  Elec       q    Type
REMARK                         _______ _______ _______ _____ _____    ______ ____
ROOT
ATOM      1  N   UNL     1       5.566   5.373  19.167  0.00  0.00    +0.000 N 
ATOM      2  C   UNL     1       4.198   5.357  19.044  0.00  0.00    +0.000 C 
ATOM      3  O   UNL     1       3.591   4.701  18.211  0.00  0.00    +0.000 OA
ATOM      4  N   UNL     1       3.594   6.195  19.943  0.00  0.00    +0.000 N 
ATOM      5  H   UNL     1       5.921   5.588  20.089  0.00  0.00    +0.000 HD
ATOM      6  H   UNL     1       4.157   6.716  20.592  0.00  0.00    +0.000 HD
ENDROOT
BRANCH   1   7
ATOM      7  C   UNL     1       6.375   4.444  18.388  0.00  0.00    +0.000 C 
BRANCH   7   8
ATOM      8  C   UNL     1       7.340   5.147  17.418  0.00  0.00    +0.000 C 
ATOM      9  C   UNL     1       7.277   6.663  17.628  0.00  0.00    +0.000 C 
BRANCH   8  14
ATOM     10  C   UNL     1       7.745   5.217  12.469  0.00  0.00    +0.000 C 
ATOM     11  C   UNL     1       7.151   4.787  13.761  0.00  0.00    +0.000 A 
ATOM     12  C   UNL     1       6.103   3.904  13.935  0.00  0.00    +0.000 A 
ATOM     13  S   UNL     1       5.762   3.713  15.600  0.00  0.00    +0.000 S 
ATOM     14  C   UNL     1       7.033   4.813  15.978  0.00  0.00    +0.000 A 
ATOM     15  N   UNL     1       7.671   5.307  14.936  0.00  0.00    +0.000 NA
ENDBRANCH   8  14
ENDBRANCH   7   8
ENDBRANCH   1   7
BRANCH   4  16
ATOM     16  C   UNL     1       2.159   6.388  19.960  0.00  0.00    +0.000 C 
BRANCH  16  17
ATOM     17  C   UNL     1       1.759   7.819  19.702  0.00  0.00    +0.000 A 
ATOM     18  C   UNL     1       1.215   8.607  20.729  0.00  0.00    +0.000 A 
ATOM     19  C   UNL     1       0.861   9.941  20.489  0.00  0.00    +0.000 A 
ATOM     20  C   UNL     1       1.038  10.500  19.220  0.00  0.00    +0.000 A 
ATOM     21  C   UNL     1       1.567   9.718  18.189  0.00  0.00    +0.000 A 
ATOM     22  C   UNL     1       1.918   8.390  18.440  0.00  0.00    +0.000 A 
ATOM     23  F   UNL     1       2.427   7.663  17.434  0.00  0.00    +0.000 F 
BRANCH  20  24
ATOM     24  C   UNL     1       0.677  11.866  18.977  0.00  0.00    +0.000 C 
ATOM     25  N   UNL     1       0.381  12.972  18.783  0.00  0.00    +0.000 NA
ENDBRANCH  20  24
ENDBRANCH  16  17
ENDBRANCH   4  16
TORSDOF 6
ENDMDL
MODEL 4
REMARK VINA RESULT:      -7.1      6.629      8.847
REMARK  Name = 
REMARK  8 active torsions:
REMARK  status: ('A' for Active; 'I' for Inactive)
REMARK    1  A    between atoms: C_1  and  C_2
REMARK    2  A    between atoms: C_5  and  C_6
REMARK    3  A    between atoms: C_6  and  C_7
REMARK    4  A    between atoms: C_6  and  C_8
REMARK    5  A    between atoms: C_8  and  N_9
REMARK    6  A    between atoms: N_12  and  C_13
REMARK    7  A    between atoms: C_13  and  C_14
REMARK    8  A    between atoms: C_17  and  C_18
REMARK                            x       y       z     vdW  Elec       q    Type
REMARK                         _______ _______ _______ _____ _____    ______ ____
ROOT
ATOM      1  N   UNL     1       1.860   7.759  20.767  0.00  0.00    +0.000 N 
ATOM      2  C   UNL     1       1.901   6.463  20.310  0.00  0.00    +0.000 C 
ATOM      3  O   UNL     1       1.303   5.533  20.829  0.00  0.00    +0.000 OA
ATOM      4  N   UNL     1       2.726   6.330  19.226  0.00  0.00    +0.000 N 
ATOM      5  H   UNL     1       2.024   8.474  20.070  0.00  0.00    +0.000 HD
ATOM      6  H   UNL     1       3.200   7.137  18.859  0.00  0.00    +0.000 HD
ENDROOT
BRANCH   1   7
ATOM      7  C   UNL     1       0.931   8.123  21.829  0.00  0.00    +0.000 C 
BRANCH   7   8
ATOM      8  C   UNL     1       0.752   9.644  21.981  0.00  0.00    +0.000 C 
ATOM      9  C   UNL     1      -0.299   9.938  23.057  0.00  0.00    +0.000 C 
BRANCH   8  14
ATOM     10  C   UNL     1      -1.486  10.201  17.584  0.00  0.00    +0.000 C 
ATOM     11  C   UNL     1      -0.611  10.623  18.708  0.00  0.00    +0.000 A 
ATOM     12  C   UNL     1       0.078  11.816  18.814  0.00  0.00    +0.000 A 
ATOM     13  S   UNL     1       0.955  11.861  20.282  0.00  0.00    +0.000 S 
ATOM     14  C   UNL     1       0.355  10.297  20.680  0.00  0.00    +0.000 A 
ATOM     15  N   UNL     1      -0.441   9.759  19.778  0.00  0.00    +0.000 NA
ENDBRANCH   8  14
ENDBRANCH   7   8
ENDBRANCH   1   7
BRANCH   4  16
ATOM     16  C   UNL     1       2.975   5.043  18.610  0.00  0.00    +0.000 C 
BRANCH  16  17
ATOM     17  C   UNL     1       4.023   5.105  17.528  0.00  0.00    +0.000 A 
ATOM     18  C   UNL     1       4.503   6.340  17.066  0.00  0.00    +0.000 A 
ATOM     19  C   UNL     1       5.490   6.392  16.073  0.00  0.00    +0.000 A 
ATOM     20  C   UNL     1       6.001   5.213  15.524  0.00  0.00    +0.000 A 
ATOM     21  C   UNL     1       5.518   3.978  15.969  0.00  0.00    +0.000 A 
ATOM     22  C   UNL     1       4.536   3.938  16.961  0.00  0.00    +0.000 A 
ATOM     23  F   UNL     1       4.092   2.741  17.372  0.00  0.00    +0.000 F 
BRANCH  20  24
ATOM     24  C   UNL     1       7.012   5.268  14.509  0.00  0.00    +0.000 C 
ATOM     25  N   UNL     1       7.827   5.312  13.683  0.00  0.00    +0.000 NA
ENDBRANCH  20  24
ENDBRANCH  16  17
ENDBRANCH   4  16
TORSDOF 6
ENDMDL
MODEL 5
REMARK VINA RESULT:      -7.1      3.426      9.426
REMARK  Name = 
REMARK  8 active torsions:
REMARK  status: ('A' for Active; 'I' for Inactive)
REMARK    1  A    between atoms: C_1  and  C_2
REMARK    2  A    between atoms: C_5  and  C_6
REMARK    3  A    between atoms: C_6  and  C_7
REMARK    4  A    between atoms: C_6  and  C_8
REMARK    5  A    between atoms: C_8  and  N_9
REMARK    6  A    between atoms: N_12  and  C_13
REMARK    7  A    between atoms: C_13  and  C_14
REMARK    8  A    between atoms: C_17  and  C_18
REMARK                            x       y       z     vdW  Elec       q    Type
REMARK                         _______ _______ _______ _____ _____    ______ ____
ROOT
ATOM      1  N   UNL     1       8.419   8.704  18.847  0.00  0.00    +0.000 N 
ATOM      2  C   UNL     1       8.182   7.567  18.113  0.00  0.00    +0.000 C 
ATOM      3  O   UNL     1       8.012   7.553  16.903  0.00  0.00    +0.000 OA
ATOM      4  N   UNL     1       8.120   6.451  18.905  0.00  0.00    +0.000 N 
ATOM      5  H   UNL     1       8.938   8.571  19.705  0.00  0.00    +0.000 HD
ATOM      6  H   UNL     1       8.256   6.537  19.897  0.00  0.00    +0.000 HD
ENDROOT
BRANCH   1   7
ATOM      7  C   UNL     1       8.653   9.970  18.165  0.00  0.00    +0.000 C 
BRANCH   7   8
ATOM      8  C   UNL     1       9.698  10.853  18.869  0.00  0.00    +0.000 C 
ATOM      9  C   UNL     1       9.551  10.724  20.389  0.00  0.00    +0.000 C 
BRANCH   8  14
ATOM     10  C   UNL     1       7.533  15.201  17.839  0.00  0.00    +0.000 C 
ATOM     11  C   UNL     1       8.687  14.278  17.985  0.00  0.00    +0.000 A 
ATOM     12  C   UNL     1      10.018  14.580  17.768  0.00  0.00    +0.000 A 
ATOM     13  S   UNL     1      10.990  13.203  18.059  0.00  0.00    +0.000 S 
ATOM     14  C   UNL     1       9.579  12.301  18.460  0.00  0.00    +0.000 A 
ATOM     15  N   UNL     1       8.447  12.970  18.374  0.00  0.00    +0.000 NA
ENDBRANCH   8  14
ENDBRANCH   7   8
ENDBRANCH   1   7
BRANCH   4  16
ATOM     16  C   UNL     1       7.820   5.144  18.359  0.00  0.00    +0.000 C 
BRANCH  16  17
ATOM     17  C   UNL     1       6.340   4.913  18.177  0.00  0.00    +0.000 A 
ATOM     18  C   UNL     1       5.435   5.233  19.200  0.00  0.00    +0.000 A 
ATOM     19  C   UNL     1       4.060   5.033  19.020  0.00  0.00    +0.000 A 
ATOM     20  C   UNL     1       3.576   4.502  17.821  0.00  0.00    +0.000 A 
ATOM     21  C   UNL     1       4.473   4.167  16.803  0.00  0.00    +0.000 A 
ATOM     22  C   UNL     1       5.840   4.373  16.992  0.00  0.00    +0.000 A 
ATOM     23  F   UNL     1       6.679   4.047  15.997  0.00  0.00    +0.000 F 
BRANCH  20  24
ATOM     24  C   UNL     1       2.168   4.299  17.638  0.00  0.00    +0.000 C 
ATOM     25  N   UNL     1       1.029   4.129  17.493  0.00  0.00    +0.000 NA
ENDBRANCH  20  24
ENDBRANCH  16  17
ENDBRANCH   4  16
TORSDOF 6
ENDMDL
MODEL 6
REMARK VINA RESULT:      -7.1      3.587      9.096
REMARK  Name = 
REMARK  8 active torsions:
REMARK  status: ('A' for Active; 'I' for Inactive)
REMARK    1  A    between atoms: C_1  and  C_2
REMARK    2  A    between atoms: C_5  and  C_6
REMARK    3  A    between atoms: C_6  and  C_7
REMARK    4  A    between atoms: C_6  and  C_8
REMARK    5  A    between atoms: C_8  and  N_9
REMARK    6  A    between atoms: N_12  and  C_13
REMARK    7  A    between atoms: C_13  and  C_14
REMARK    8  A    between atoms: C_17  and  C_18
REMARK                            x       y       z     vdW  Elec       q    Type
REMARK                         _______ _______ _______ _____ _____    ______ ____
ROOT
ATOM      1  N   UNL     1       8.263   9.334  17.974  0.00  0.00    +0.000 N 
ATOM      2  C   UNL     1       7.917   8.004  17.956  0.00  0.00    +0.000 C 
ATOM      3  O   UNL     1       8.377   7.164  18.714  0.00  0.00    +0.000 OA
ATOM      4  N   UNL     1       7.021   7.723  16.959  0.00  0.00    +0.000 N 
ATOM      5  H   UNL     1       7.561   9.974  17.625  0.00  0.00    +0.000 HD
ATOM      6  H   UNL     1       6.694   8.461  16.361  0.00  0.00    +0.000 HD
ENDROOT
BRANCH   1   7
ATOM      7  C   UNL     1       9.100   9.850  19.049  0.00  0.00    +0.000 C 
BRANCH   7   8
ATOM      8  C   UNL     1       9.436  11.343  18.891  0.00  0.00    +0.000 C 
ATOM      9  C   UNL     1      10.834  11.502  18.283  0.00  0.00    +0.000 C 
BRANCH   8  14
ATOM     10  C   UNL     1       8.478  12.123  23.701  0.00  0.00    +0.000 C 
ATOM     11  C   UNL     1       8.964  12.505  22.350  0.00  0.00    +0.000 A 
ATOM     12  C   UNL     1       9.507  13.721  21.981  0.00  0.00    +0.000 A 
ATOM     13  S   UNL     1       9.923  13.702  20.322  0.00  0.00    +0.000 S 
ATOM     14  C   UNL     1       9.359  12.078  20.207  0.00  0.00    +0.000 A 
ATOM     15  N   UNL     1       8.878  11.575  21.326  0.00  0.00    +0.000 NA
ENDBRANCH   8  14
ENDBRANCH   7   8
ENDBRANCH   1   7
BRANCH   4  16
ATOM     16  C   UNL     1       6.558   6.374  16.709  0.00  0.00    +0.000 C 
BRANCH  16  17
ATOM     17  C   UNL     1       5.369   5.997  17.557  0.00  0.00    +0.000 A 
ATOM     18  C   UNL     1       4.152   6.684  17.431  0.00  0.00    +0.000 A 
ATOM     19  C   UNL     1       3.046   6.319  18.209  0.00  0.00    +0.000 A 
ATOM     20  C   UNL     1       3.145   5.270  19.127  0.00  0.00    +0.000 A 
ATOM     21  C   UNL     1       4.359   4.589  19.270  0.00  0.00    +0.000 A 
ATOM     22  C   UNL     1       5.454   4.961  18.487  0.00  0.00    +0.000 A 
ATOM     23  F   UNL     1       6.605   4.289  18.641  0.00  0.00    +0.000 F 
BRANCH  20  24
ATOM     24  C   UNL     1       2.012   4.896  19.922  0.00  0.00    +0.000 C 
ATOM     25  N   UNL     1       1.094   4.598  20.568  0.00  0.00    +0.000 NA
ENDBRANCH  20  24
ENDBRANCH  16  17
ENDBRANCH   4  16
TORSDOF 6
ENDMDL
MODEL 7
REMARK VINA RESULT:      -7.0      3.519      9.413
REMARK  Name = 
REMARK  8 active torsions:
REMARK  status: ('A' for Active; 'I' for Inactive)
REMARK    1  A    between atoms: C_1  and  C_2
REMARK    2  A    between atoms: C_5  and  C_6
REMARK    3  A    between atoms: C_6  and  C_7
REMARK    4  A    between atoms: C_6  and  C_8
REMARK    5  A    between atoms: C_8  and  N_9
REMARK    6  A    between atoms: N_12  and  C_13
REMARK    7  A    between atoms: C_13  and  C_14
REMARK    8  A    between atoms: C_17  and  C_18
REMARK                            x       y       z     vdW  Elec       q    Type
REMARK                         _______ _______ _______ _____ _____    ______ ____
ROOT
ATOM      1  N   UNL     1       8.035   9.322  17.745  0.00  0.00    +0.000 N 
ATOM      2  C   UNL     1       7.957   7.959  17.906  0.00  0.00    +0.000 C 
ATOM      3  O   UNL     1       8.588   7.329  18.740  0.00  0.00    +0.000 OA
ATOM      4  N   UNL     1       7.113   7.385  16.993  0.00  0.00    +0.000 N 
ATOM      5  H   UNL     1       7.214   9.765  17.354  0.00  0.00    +0.000 HD
ATOM      6  H   UNL     1       6.635   7.964  16.324  0.00  0.00    +0.000 HD
ENDROOT
BRANCH   1   7
ATOM      7  C   UNL     1       8.777  10.124  18.710  0.00  0.00    +0.000 C 
BRANCH   7   8
ATOM      8  C   UNL     1       9.690  11.172  18.052  0.00  0.00    +0.000 C 
ATOM      9  C   UNL     1      11.037  11.220  18.781  0.00  0.00    +0.000 C 
BRANCH   8  14
ATOM     10  C   UNL     1       6.144  14.624  17.650  0.00  0.00    +0.000 C 
ATOM     11  C   UNL     1       7.531  14.145  17.883  0.00  0.00    +0.000 A 
ATOM     12  C   UNL     1       8.634  14.923  18.177  0.00  0.00    +0.000 A 
ATOM     13  S   UNL     1      10.019  13.936  18.360  0.00  0.00    +0.000 S 
ATOM     14  C   UNL     1       9.059  12.543  18.043  0.00  0.00    +0.000 A 
ATOM     15  N   UNL     1       7.786  12.786  17.802  0.00  0.00    +0.000 NA
ENDBRANCH   8  14
ENDBRANCH   7   8
ENDBRANCH   1   7
BRANCH   4  16
ATOM     16  C   UNL     1       6.919   5.952  16.931  0.00  0.00    +0.000 C 
BRANCH  16  17
ATOM     17  C   UNL     1       5.630   5.508  17.576  0.00  0.00    +0.000 A 
ATOM     18  C   UNL     1       5.391   5.747  18.938  0.00  0.00    +0.000 A 
ATOM     19  C   UNL     1       4.185   5.349  19.528  0.00  0.00    +0.000 A 
ATOM     20  C   UNL     1       3.208   4.699  18.768  0.00  0.00    +0.000 A 
ATOM     21  C   UNL     1       3.444   4.445  17.414  0.00  0.00    +0.000 A 
ATOM     22  C   UNL     1       4.649   4.848  16.835  0.00  0.00    +0.000 A 
ATOM     23  F   UNL     1       4.848   4.595  15.533  0.00  0.00    +0.000 F 
BRANCH  20  24
ATOM     24  C   UNL     1       1.973   4.293  19.374  0.00  0.00    +0.000 C 
ATOM     25  N   UNL     1       0.971   3.968  19.860  0.00  0.00    +0.000 NA
ENDBRANCH  20  24
ENDBRANCH  16  17
ENDBRANCH   4  16
TORSDOF 6
ENDMDL
MODEL 8
REMARK VINA RESULT:      -6.9      3.300      9.413
REMARK  Name = 
REMARK  8 active torsions:
REMARK  status: ('A' for Active; 'I' for Inactive)
REMARK    1  A    between atoms: C_1  and  C_2
REMARK    2  A    between atoms: C_5  and  C_6
REMARK    3  A    between atoms: C_6  and  C_7
REMARK    4  A    between atoms: C_6  and  C_8
REMARK    5  A    between atoms: C_8  and  N_9
REMARK    6  A    between atoms: N_12  and  C_13
REMARK    7  A    between atoms: C_13  and  C_14
REMARK    8  A    between atoms: C_17  and  C_18
REMARK                            x       y       z     vdW  Elec       q    Type
REMARK                         _______ _______ _______ _____ _____    ______ ____
ROOT
ATOM      1  N   UNL     1       8.324   9.401  17.895  0.00  0.00    +0.000 N 
ATOM      2  C   UNL     1       8.047   8.058  17.994  0.00  0.00    +0.000 C 
ATOM      3  O   UNL     1       8.519   7.321  18.845  0.00  0.00    +0.000 OA
ATOM      4  N   UNL     1       7.206   7.636  16.999  0.00  0.00    +0.000 N 
ATOM      5  H   UNL     1       7.605   9.966  17.463  0.00  0.00    +0.000 HD
ATOM      6  H   UNL     1       6.866   8.296  16.322  0.00  0.00    +0.000 HD
ENDROOT
BRANCH   1   7
ATOM      7  C   UNL     1       9.092  10.061  18.943  0.00  0.00    +0.000 C 
BRANCH   7   8
ATOM      8  C   UNL     1       9.438  11.523  18.611  0.00  0.00    +0.000 C 
ATOM      9  C   UNL     1      10.746  11.580  17.815  0.00  0.00    +0.000 C 
BRANCH   8  14
ATOM     10  C   UNL     1      10.545  15.450  21.441  0.00  0.00    +0.000 C 
ATOM     11  C   UNL     1      10.014  14.086  21.186  0.00  0.00    +0.000 A 
ATOM     12  C   UNL     1       9.455  13.231  22.116  0.00  0.00    +0.000 A 
ATOM     13  S   UNL     1       8.987  11.766  21.365  0.00  0.00    +0.000 S 
ATOM     14  C   UNL     1       9.553  12.370  19.854  0.00  0.00    +0.000 A 
ATOM     15  N   UNL     1      10.072  13.581  19.897  0.00  0.00    +0.000 NA
ENDBRANCH   8  14
ENDBRANCH   7   8
ENDBRANCH   1   7
BRANCH   4  16
ATOM     16  C   UNL     1       6.822   6.246  16.865  0.00  0.00    +0.000 C 
BRANCH  16  17
ATOM     17  C   UNL     1       5.593   5.899  17.667  0.00  0.00    +0.000 A 
ATOM     18  C   UNL     1       5.687   5.084  18.806  0.00  0.00    +0.000 A 
ATOM     19  C   UNL     1       4.546   4.779  19.558  0.00  0.00    +0.000 A 
ATOM     20  C   UNL     1       3.296   5.277  19.176  0.00  0.00    +0.000 A 
ATOM     21  C   UNL     1       3.191   6.078  18.035  0.00  0.00    +0.000 A 
ATOM     22  C   UNL     1       4.336   6.377  17.295  0.00  0.00    +0.000 A 
ATOM     23  F   UNL     1       4.209   7.151  16.206  0.00  0.00    +0.000 F 
BRANCH  20  24
ATOM     24  C   UNL     1       2.129   4.965  19.948  0.00  0.00    +0.000 C 
ATOM     25  N   UNL     1       1.184   4.717  20.575  0.00  0.00    +0.000 NA
ENDBRANCH  20  24
ENDBRANCH  16  17
ENDBRANCH   4  16
TORSDOF 6
ENDMDL
MODEL 9
REMARK VINA RESULT:      -6.8      6.296      8.916
REMARK  Name = 
REMARK  8 active torsions:
REMARK  status: ('A' for Active; 'I' for Inactive)
REMARK    1  A    between atoms: C_1  and  C_2
REMARK    2  A    between atoms: C_5  and  C_6
REMARK    3  A    between atoms: C_6  and  C_7
REMARK    4  A    between atoms: C_6  and  C_8
REMARK    5  A    between atoms: C_8  and  N_9
REMARK    6  A    between atoms: N_12  and  C_13
REMARK    7  A    between atoms: C_13  and  C_14
REMARK    8  A    between atoms: C_17  and  C_18
REMARK                            x       y       z     vdW  Elec       q    Type
REMARK                         _______ _______ _______ _____ _____    ______ ____
ROOT
ATOM      1  N   UNL     1       1.864   7.739  20.884  0.00  0.00    +0.000 N 
ATOM      2  C   UNL     1       2.057   6.421  20.544  0.00  0.00    +0.000 C 
ATOM      3  O   UNL     1       1.267   5.525  20.798  0.00  0.00    +0.000 OA
ATOM      4  N   UNL     1       3.259   6.226  19.919  0.00  0.00    +0.000 N 
ATOM      5  H   UNL     1       2.330   8.416  20.294  0.00  0.00    +0.000 HD
ATOM      6  H   UNL     1       3.867   7.008  19.754  0.00  0.00    +0.000 HD
ENDROOT
BRANCH   1   7
ATOM      7  C   UNL     1       0.584   8.166  21.435  0.00  0.00    +0.000 C 
BRANCH   7   8
ATOM      8  C   UNL     1       0.652   9.534  22.135  0.00  0.00    +0.000 C 
ATOM      9  C   UNL     1      -0.470   9.644  23.173  0.00  0.00    +0.000 C 
BRANCH   8  14
ATOM     10  C   UNL     1       1.555  13.975  20.106  0.00  0.00    +0.000 C 
ATOM     11  C   UNL     1       0.909  12.640  20.179  0.00  0.00    +0.000 A 
ATOM     12  C   UNL     1       0.010  12.107  19.275  0.00  0.00    +0.000 A 
ATOM     13  S   UNL     1      -0.467  10.540  19.772  0.00  0.00    +0.000 S 
ATOM     14  C   UNL     1       0.557  10.674  21.150  0.00  0.00    +0.000 A 
ATOM     15  N   UNL     1       1.209  11.815  21.252  0.00  0.00    +0.000 NA
ENDBRANCH   8  14
ENDBRANCH   7   8
ENDBRANCH   1   7
BRANCH   4  16
ATOM     16  C   UNL     1       3.706   4.907  19.522  0.00  0.00    +0.000 C 
BRANCH  16  17
ATOM     17  C   UNL     1       4.587   4.932  18.298  0.00  0.00    +0.000 A 
ATOM     18  C   UNL     1       4.082   4.553  17.044  0.00  0.00    +0.000 A 
ATOM     19  C   UNL     1       4.899   4.595  15.907  0.00  0.00    +0.000 A 
ATOM     20  C   UNL     1       6.231   5.006  16.011  0.00  0.00    +0.000 A 
ATOM     21  C   UNL     1       6.746   5.371  17.259  0.00  0.00    +0.000 A 
ATOM     22  C   UNL     1       5.922   5.327  18.385  0.00  0.00    +0.000 A 
ATOM     23  F   UNL     1       6.439   5.686  19.569  0.00  0.00    +0.000 F 
BRANCH  20  24
ATOM     24  C   UNL     1       7.066   5.050  14.846  0.00  0.00    +0.000 C 
ATOM     25  N   UNL     1       7.743   5.080  13.904  0.00  0.00    +0.000 NA
ENDBRANCH  20  24
ENDBRANCH  16  17
ENDBRANCH   4  16
TORSDOF 6
ENDMDL
