MODEL 1
REMARK VINA RESULT:      -7.3      0.000      0.000
REMARK  Name = 
REMARK  9 active torsions:
REMARK  status: ('A' for Active; 'I' for Inactive)
REMARK    1  A    between atoms: C_1  and  C_2
REMARK    2  A    between atoms: C_3  and  N_4
REMARK    3  A    between atoms: C_5  and  C_7
REMARK    4  A    between atoms: C_11  and  C_12
REMARK    5  A    between atoms: C_12  and  N_13
REMARK    6  A    between atoms: N_13  and  C_14
REMARK    7  A    between atoms: C_14  and  C_15
REMARK    8  A    between atoms: C_15  and  O_16
REMARK    9  A    between atoms: C_21  and  C_22
REMARK                            x       y       z     vdW  Elec       q    Type
REMARK                         _______ _______ _______ _____ _____    ______ ____
ROOT
ATOM      1  N   UNL     1       1.135   8.409  20.198  0.00  0.00    +0.000 N 
ATOM      2  C   UNL     1       1.159   9.221  21.315  0.00  0.00    +0.000 C 
ATOM      3  O   UNL     1       1.753   9.009  22.366  0.00  0.00    +0.000 OA
ATOM      4  H   UNL     1       0.345   8.593  19.585  0.00  0.00    +0.000 HD
ENDROOT
BRANCH   1   7
ATOM      5  C   UNL     1       2.951   8.063  17.807  0.00  0.00    +0.000 C 
ATOM      6  C   UNL     1       2.838   7.045  18.919  0.00  0.00    +0.000 A 
ATOM      7  C   UNL     1       1.888   7.231  19.959  0.00  0.00    +0.000 A 
ATOM      8  C   UNL     1       1.590   6.162  20.814  0.00  0.00    +0.000 A 
ATOM      9  C   UNL     1       2.286   4.959  20.720  0.00  0.00    +0.000 A 
ATOM     10  C   UNL     1       3.303   4.818  19.780  0.00  0.00    +0.000 A 
ATOM     11  C   UNL     1       3.615   5.839  18.858  0.00  0.00    +0.000 A 
BRANCH  11  12
ATOM     12  C   UNL     1       4.688   5.593  17.841  0.00  0.00    +0.000 A 
ATOM     13  C   UNL     1       4.436   4.880  16.652  0.00  0.00    +0.000 A 
ATOM     14  C   UNL     1       5.415   4.730  15.661  0.00  0.00    +0.000 A 
ATOM     15  C   UNL     1       6.666   5.317  15.820  0.00  0.00    +0.000 A 
ATOM     16  C   UNL     1       6.961   5.986  16.999  0.00  0.00    +0.000 A 
ATOM     17  C   UNL     1       5.998   6.077  18.011  0.00  0.00    +0.000 A 
ENDBRANCH  11  12
ENDBRANCH   1   7
BRANCH   2  18
ATOM     18  C   UNL     1       0.315  10.460  21.190  0.00  0.00    +0.000 A 
ATOM     19  C   UNL     1      -0.445  10.877  22.275  0.00  0.00    +0.000 A 
ATOM     20  C   UNL     1      -1.180  12.048  22.158  0.00  0.00    +0.000 A 
ATOM     21  C   UNL     1      -1.142  12.758  20.963  0.00  0.00    +0.000 A 
ATOM     22  C   UNL     1      -0.373  12.269  19.907  0.00  0.00    +0.000 A 
ATOM     23  N   UNL     1       0.376  11.132  20.004  0.00  0.00    +0.000 NA
BRANCH  22  24
ATOM     24  C   UNL     1      -0.324  13.044  18.600  0.00  0.00    +0.000 C 
BRANCH  24  25
ATOM     25  N   UNL     1      -1.307  12.593  17.598  0.00  0.00    +0.000 NA
ATOM     26  H   UNL     1      -0.752  12.328  16.780  0.00  0.00    +0.000 HD
BRANCH  25  27
ATOM     27  C   UNL     1      -2.022  11.387  18.054  0.00  0.00    +0.000 C 
BRANCH  27  28
ATOM     28  C   UNL     1      -1.632  10.177  17.198  0.00  0.00    +0.000 C 
BRANCH  28  29
ATOM     29  O   UNL     1      -0.340   9.697  17.572  0.00  0.00    +0.000 OA
ATOM     30  H   UNL     1       0.183  10.496  17.760  0.00  0.00    +0.000 HD
ENDBRANCH  28  29
ENDBRANCH  27  28
ENDBRANCH  25  27
ENDBRANCH  24  25
ENDBRANCH  22  24
ENDBRANCH   2  18
TORSDOF 8
ENDMDL
MODEL 2
REMARK VINA RESULT:      -7.3      1.153      1.543
REMARK  Name = 
REMARK  9 active torsions:
REMARK  status: ('A' for Active; 'I' for Inactive)
REMARK    1  A    between atoms: C_1  and  C_2
REMARK    2  A    between atoms: C_3  and  N_4
REMARK    3  A    between atoms: C_5  and  C_7
REMARK    4  A    between atoms: C_11  and  C_12
REMARK    5  A    between atoms: C_12  and  N_13
REMARK    6  A    between atoms: N_13  and  C_14
REMARK    7  A    between atoms: C_14  and  C_15
REMARK    8  A    between atoms: C_15  and  O_16
REMARK    9  A    between atoms: C_21  and  C_22
REMARK                            x       y       z     vdW  Elec       q    Type
REMARK                         _______ _______ _______ _____ _____    ______ ____
ROOT
ATOM      1  N   UNL     1       1.139   8.047  20.028  0.00  0.00    +0.000 N 
ATOM      2  C   UNL     1       1.082   8.917  21.100  0.00  0.00    +0.000 C 
ATOM      3  O   UNL     1       1.639   8.785  22.184  0.00  0.00    +0.000 OA
ATOM      4  H   UNL     1       0.370   8.166  19.375  0.00  0.00    +0.000 HD
ENDROOT
BRANCH   1   7
ATOM      5  C   UNL     1       3.097   7.671  17.757  0.00  0.00    +0.000 C 
ATOM      6  C   UNL     1       2.961   6.698  18.907  0.00  0.00    +0.000 A 
ATOM      7  C   UNL     1       1.948   6.892  19.884  0.00  0.00    +0.000 A 
ATOM      8  C   UNL     1       1.644   5.849  20.770  0.00  0.00    +0.000 A 
ATOM      9  C   UNL     1       2.388   4.672  20.769  0.00  0.00    +0.000 A 
ATOM     10  C   UNL     1       3.461   4.532  19.893  0.00  0.00    +0.000 A 
ATOM     11  C   UNL     1       3.785   5.523  18.943  0.00  0.00    +0.000 A 
BRANCH  11  12
ATOM     12  C   UNL     1       4.922   5.276  17.998  0.00  0.00    +0.000 A 
ATOM     13  C   UNL     1       6.239   5.674  18.301  0.00  0.00    +0.000 A 
ATOM     14  C   UNL     1       7.315   5.362  17.459  0.00  0.00    +0.000 A 
ATOM     15  C   UNL     1       7.107   4.615  16.305  0.00  0.00    +0.000 A 
ATOM     16  C   UNL     1       5.815   4.247  15.955  0.00  0.00    +0.000 A 
ATOM     17  C   UNL     1       4.738   4.617  16.769  0.00  0.00    +0.000 A 
ENDBRANCH  11  12
ENDBRANCH   1   7
BRANCH   2  18
ATOM     18  C   UNL     1       0.196  10.112  20.874  0.00  0.00    +0.000 A 
ATOM     19  C   UNL     1      -0.103  10.947  21.942  0.00  0.00    +0.000 A 
ATOM     20  C   UNL     1      -0.883  12.069  21.705  0.00  0.00    +0.000 A 
ATOM     21  C   UNL     1      -1.346  12.318  20.418  0.00  0.00    +0.000 A 
ATOM     22  C   UNL     1      -1.024  11.424  19.397  0.00  0.00    +0.000 A 
ATOM     23  N   UNL     1      -0.241  10.324  19.599  0.00  0.00    +0.000 NA
BRANCH  22  24
ATOM     24  C   UNL     1      -1.524  11.692  17.986  0.00  0.00    +0.000 C 
BRANCH  24  25
ATOM     25  N   UNL     1      -1.539  10.501  17.118  0.00  0.00    +0.000 NA
ATOM     26  H   UNL     1      -1.022   9.787  17.637  0.00  0.00    +0.000 HD
BRANCH  25  27
ATOM     27  C   UNL     1      -2.911   9.997  16.923  0.00  0.00    +0.000 C 
BRANCH  27  28
ATOM     28  C   UNL     1      -3.513  10.566  15.634  0.00  0.00    +0.000 C 
BRANCH  28  29
ATOM     29  O   UNL     1      -2.654  10.305  14.524  0.00  0.00    +0.000 OA
ATOM     30  H   UNL     1      -1.754  10.483  14.851  0.00  0.00    +0.000 HD
ENDBRANCH  28  29
ENDBRANCH  27  28
ENDBRANCH  25  27
ENDBRANCH  24  25
ENDBRANCH  22  24
ENDBRANCH   2  18
TORSDOF 8
ENDMDL
MODEL 3
REMARK VINA RESULT:      -7.2      1.139      1.173
REMARK  Name = 
REMARK  9 active torsions:
REMARK  status: ('A' for Active; 'I' for Inactive)
REMARK    1  A    between atoms: C_1  and  C_2
REMARK    2  A    between atoms: C_3  and  N_4
REMARK    3  A    between atoms: C_5  and  C_7
REMARK    4  A    between atoms: C_11  and  C_12
REMARK    5  A    between atoms: C_12  and  N_13
REMARK    6  A    between atoms: N_13  and  C_14
REMARK    7  A    between atoms: C_14  and  C_15
REMARK    8  A    between atoms: C_15  and  O_16
REMARK    9  A    between atoms: C_21  and  C_22
REMARK                            x       y       z     vdW  Elec       q    Type
REMARK                         _______ _______ _______ _____ _____    ______ ____
ROOT
ATOM      1  N   UNL     1       1.124   8.087  20.094  0.00  0.00    +0.000 N 
ATOM      2  C   UNL     1       1.108   8.924  21.192  0.00  0.00    +0.000 C 
ATOM      3  O   UNL     1       1.724   8.774  22.241  0.00  0.00    +0.000 OA
ATOM      4  H   UNL     1       0.318   8.207  19.486  0.00  0.00    +0.000 HD
ENDROOT
BRANCH   1   7
ATOM      5  C   UNL     1       2.991   7.834  17.731  0.00  0.00    +0.000 C 
ATOM      6  C   UNL     1       2.921   6.817  18.848  0.00  0.00    +0.000 A 
ATOM      7  C   UNL     1       1.947   6.954  19.873  0.00  0.00    +0.000 A 
ATOM      8  C   UNL     1       1.699   5.873  20.730  0.00  0.00    +0.000 A 
ATOM      9  C   UNL     1       2.464   4.712  20.653  0.00  0.00    +0.000 A 
ATOM     10  C   UNL     1       3.501   4.625  19.729  0.00  0.00    +0.000 A 
ATOM     11  C   UNL     1       3.767   5.658  18.805  0.00  0.00    +0.000 A 
BRANCH  11  12
ATOM     12  C   UNL     1       4.868   5.469  17.805  0.00  0.00    +0.000 A 
ATOM     13  C   UNL     1       4.686   4.703  16.636  0.00  0.00    +0.000 A 
ATOM     14  C   UNL     1       5.685   4.602  15.659  0.00  0.00    +0.000 A 
ATOM     15  C   UNL     1       6.883   5.292  15.809  0.00  0.00    +0.000 A 
ATOM     16  C   UNL     1       7.110   6.019  16.970  0.00  0.00    +0.000 A 
ATOM     17  C   UNL     1       6.132   6.062  17.971  0.00  0.00    +0.000 A 
ENDBRANCH  11  12
ENDBRANCH   1   7
BRANCH   2  18
ATOM     18  C   UNL     1       0.187  10.105  21.049  0.00  0.00    +0.000 A 
ATOM     19  C   UNL     1      -0.266  10.755  22.190  0.00  0.00    +0.000 A 
ATOM     20  C   UNL     1      -1.077  11.871  22.038  0.00  0.00    +0.000 A 
ATOM     21  C   UNL     1      -1.417  12.296  20.759  0.00  0.00    +0.000 A 
ATOM     22  C   UNL     1      -0.943  11.581  19.658  0.00  0.00    +0.000 A 
ATOM     23  N   UNL     1      -0.127  10.493  19.780  0.00  0.00    +0.000 NA
BRANCH  22  24
ATOM     24  C   UNL     1      -1.308  12.044  18.256  0.00  0.00    +0.000 C 
BRANCH  24  25
ATOM     25  N   UNL     1      -1.339  10.961  17.257  0.00  0.00    +0.000 NA
ATOM     26  H   UNL     1      -0.920  10.154  17.725  0.00  0.00    +0.000 HD
BRANCH  25  27
ATOM     27  C   UNL     1      -2.723  10.596  16.903  0.00  0.00    +0.000 C 
BRANCH  27  28
ATOM     28  C   UNL     1      -2.823  10.253  15.413  0.00  0.00    +0.000 C 
BRANCH  28  29
ATOM     29  O   UNL     1      -4.179  10.326  14.973  0.00  0.00    +0.000 OA
ATOM     30  H   UNL     1      -4.565   9.460  15.193  0.00  0.00    +0.000 HD
ENDBRANCH  28  29
ENDBRANCH  27  28
ENDBRANCH  25  27
ENDBRANCH  24  25
ENDBRANCH  22  24
ENDBRANCH   2  18
TORSDOF 8
ENDMDL
MODEL 4
REMARK VINA RESULT:      -7.2      1.102      1.522
REMARK  Name = 
REMARK  9 active torsions:
REMARK  status: ('A' for Active; 'I' for Inactive)
REMARK    1  A    between atoms: C_1  and  C_2
REMARK    2  A    between atoms: C_3  and  N_4
REMARK    3  A    between atoms: C_5  and  C_7
REMARK    4  A    between atoms: C_11  and  C_12
REMARK    5  A    between atoms: C_12  and  N_13
REMARK    6  A    between atoms: N_13  and  C_14
REMARK    7  A    between atoms: C_14  and  C_15
REMARK    8  A    between atoms: C_15  and  O_16
REMARK    9  A    between atoms: C_21  and  C_22
REMARK                            x       y       z     vdW  Elec       q    Type
REMARK                         _______ _______ _______ _____ _____    ______ ____
ROOT
ATOM      1  N   UNL     1       1.041   7.960  20.429  0.00  0.00    +0.000 N 
ATOM      2  C   UNL     1       1.183   8.866  21.462  0.00  0.00    +0.000 C 
ATOM      3  O   UNL     1       1.988   8.810  22.385  0.00  0.00    +0.000 OA
ATOM      4  H   UNL     1       0.133   8.008  19.977  0.00  0.00    +0.000 HD
ENDROOT
BRANCH   1   7
ATOM      5  C   UNL     1       2.858   7.866  18.016  0.00  0.00    +0.000 C 
ATOM      6  C   UNL     1       2.821   6.783  19.072  0.00  0.00    +0.000 A 
ATOM      7  C   UNL     1       1.868   6.850  20.123  0.00  0.00    +0.000 A 
ATOM      8  C   UNL     1       1.647   5.718  20.919  0.00  0.00    +0.000 A 
ATOM      9  C   UNL     1       2.419   4.570  20.757  0.00  0.00    +0.000 A 
ATOM     10  C   UNL     1       3.437   4.548  19.807  0.00  0.00    +0.000 A 
ATOM     11  C   UNL     1       3.674   5.636  18.941  0.00  0.00    +0.000 A 
BRANCH  11  12
ATOM     12  C   UNL     1       4.754   5.517  17.909  0.00  0.00    +0.000 A 
ATOM     13  C   UNL     1       4.539   4.859  16.682  0.00  0.00    +0.000 A 
ATOM     14  C   UNL     1       5.519   4.828  15.680  0.00  0.00    +0.000 A 
ATOM     15  C   UNL     1       6.732   5.483  15.868  0.00  0.00    +0.000 A 
ATOM     16  C   UNL     1       6.992   6.102  17.083  0.00  0.00    +0.000 A 
ATOM     17  C   UNL     1       6.032   6.073  18.102  0.00  0.00    +0.000 A 
ENDBRANCH  11  12
ENDBRANCH   1   7
BRANCH   2  18
ATOM     18  C   UNL     1       0.191   9.997  21.427  0.00  0.00    +0.000 A 
ATOM     19  C   UNL     1      -0.402  10.418  22.610  0.00  0.00    +0.000 A 
ATOM     20  C   UNL     1      -1.279  11.492  22.565  0.00  0.00    +0.000 A 
ATOM     21  C   UNL     1      -1.543  12.104  21.345  0.00  0.00    +0.000 A 
ATOM     22  C   UNL     1      -0.929  11.614  20.193  0.00  0.00    +0.000 A 
ATOM     23  N   UNL     1      -0.046  10.573  20.213  0.00  0.00    +0.000 NA
BRANCH  22  24
ATOM     24  C   UNL     1      -1.212  12.282  18.856  0.00  0.00    +0.000 C 
BRANCH  24  25
ATOM     25  N   UNL     1      -0.014  12.483  18.021  0.00  0.00    +0.000 NA
ATOM     26  H   UNL     1      -0.370  12.812  17.120  0.00  0.00    +0.000 HD
BRANCH  25  27
ATOM     27  C   UNL     1       0.849  13.547  18.568  0.00  0.00    +0.000 C 
BRANCH  27  28
ATOM     28  C   UNL     1       2.317  13.106  18.554  0.00  0.00    +0.000 C 
BRANCH  28  29
ATOM     29  O   UNL     1       2.585  12.299  17.407  0.00  0.00    +0.000 OA
ATOM     30  H   UNL     1       3.416  11.835  17.611  0.00  0.00    +0.000 HD
ENDBRANCH  28  29
ENDBRANCH  27  28
ENDBRANCH  25  27
ENDBRANCH  24  25
ENDBRANCH  22  24
ENDBRANCH   2  18
TORSDOF 8
ENDMDL
MODEL 5
REMARK VINA RESULT:      -7.2      2.111      3.243
REMARK  Name = 
REMARK  9 active torsions:
REMARK  status: ('A' for Active; 'I' for Inactive)
REMARK    1  A    between atoms: C_1  and  C_2
REMARK    2  A    between atoms: C_3  and  N_4
REMARK    3  A    between atoms: C_5  and  C_7
REMARK    4  A    between atoms: C_11  and  C_12
REMARK    5  A    between atoms: C_12  and  N_13
REMARK    6  A    between atoms: N_13  and  C_14
REMARK    7  A    between atoms: C_14  and  C_15
REMARK    8  A    between atoms: C_15  and  O_16
REMARK    9  A    between atoms: C_21  and  C_22
REMARK                            x       y       z     vdW  Elec       q    Type
REMARK                         _______ _______ _______ _____ _____    ______ ____
ROOT
ATOM      1  N   UNL     1       1.306   8.437  20.014  0.00  0.00    +0.000 N 
ATOM      2  C   UNL     1       1.223   9.245  21.132  0.00  0.00    +0.000 C 
ATOM      3  O   UNL     1       1.628   8.986  22.259  0.00  0.00    +0.000 OA
ATOM      4  H   UNL     1       0.638   8.684  19.290  0.00  0.00    +0.000 HD
ENDROOT
BRANCH   1   7
ATOM      5  C   UNL     1       3.231   7.849  17.760  0.00  0.00    +0.000 C 
ATOM      6  C   UNL     1       2.985   6.900  18.912  0.00  0.00    +0.000 A 
ATOM      7  C   UNL     1       1.990   7.202  19.880  0.00  0.00    +0.000 A 
ATOM      8  C   UNL     1       1.571   6.201  20.766  0.00  0.00    +0.000 A 
ATOM      9  C   UNL     1       2.187   4.952  20.774  0.00  0.00    +0.000 A 
ATOM     10  C   UNL     1       3.246   4.696  19.907  0.00  0.00    +0.000 A 
ATOM     11  C   UNL     1       3.680   5.645  18.957  0.00  0.00    +0.000 A 
BRANCH  11  12
ATOM     12  C   UNL     1       4.792   5.276  18.022  0.00  0.00    +0.000 A 
ATOM     13  C   UNL     1       6.141   5.538  18.333  0.00  0.00    +0.000 A 
ATOM     14  C   UNL     1       7.185   5.112  17.502  0.00  0.00    +0.000 A 
ATOM     15  C   UNL     1       6.909   4.383  16.350  0.00  0.00    +0.000 A 
ATOM     16  C   UNL     1       5.589   4.148  15.992  0.00  0.00    +0.000 A 
ATOM     17  C   UNL     1       4.550   4.633  16.795  0.00  0.00    +0.000 A 
ENDBRANCH  11  12
ENDBRANCH   1   7
BRANCH   2  18
ATOM     18  C   UNL     1       0.511  10.549  20.893  0.00  0.00    +0.000 A 
ATOM     19  C   UNL     1       0.269  10.962  19.590  0.00  0.00    +0.000 A 
ATOM     20  C   UNL     1      -0.430  12.143  19.390  0.00  0.00    +0.000 A 
ATOM     21  C   UNL     1      -0.855  12.878  20.491  0.00  0.00    +0.000 A 
ATOM     22  C   UNL     1      -0.558  12.414  21.772  0.00  0.00    +0.000 A 
ATOM     23  N   UNL     1       0.110  11.245  21.997  0.00  0.00    +0.000 NA
BRANCH  22  24
ATOM     24  C   UNL     1      -1.023  13.211  22.980  0.00  0.00    +0.000 C 
BRANCH  24  25
ATOM     25  N   UNL     1      -2.470  13.491  22.993  0.00  0.00    +0.000 NA
ATOM     26  H   UNL     1      -2.736  13.565  22.008  0.00  0.00    +0.000 HD
BRANCH  25  27
ATOM     27  C   UNL     1      -3.229  12.365  23.570  0.00  0.00    +0.000 C 
BRANCH  27  28
ATOM     28  C   UNL     1      -4.487  12.876  24.281  0.00  0.00    +0.000 C 
BRANCH  28  29
ATOM     29  O   UNL     1      -5.010  11.873  25.151  0.00  0.00    +0.000 OA
ATOM     30  H   UNL     1      -5.536  12.358  25.811  0.00  0.00    +0.000 HD
ENDBRANCH  28  29
ENDBRANCH  27  28
ENDBRANCH  25  27
ENDBRANCH  24  25
ENDBRANCH  22  24
ENDBRANCH   2  18
TORSDOF 8
ENDMDL
MODEL 6
REMARK VINA RESULT:      -7.1      2.162      3.193
REMARK  Name = 
REMARK  9 active torsions:
REMARK  status: ('A' for Active; 'I' for Inactive)
REMARK    1  A    between atoms: C_1  and  C_2
REMARK    2  A    between atoms: C_3  and  N_4
REMARK    3  A    between atoms: C_5  and  C_7
REMARK    4  A    between atoms: C_11  and  C_12
REMARK    5  A    between atoms: C_12  and  N_13
REMARK    6  A    between atoms: N_13  and  C_14
REMARK    7  A    between atoms: C_14  and  C_15
REMARK    8  A    between atoms: C_15  and  O_16
REMARK    9  A    between atoms: C_21  and  C_22
REMARK                            x       y       z     vdW  Elec       q    Type
REMARK                         _______ _______ _______ _____ _____    ______ ____
ROOT
ATOM      1  N   UNL     1       1.279   8.145  20.097  0.00  0.00    +0.000 N 
ATOM      2  C   UNL     1       1.262   8.973  21.203  0.00  0.00    +0.000 C 
ATOM      3  O   UNL     1       1.777   8.754  22.294  0.00  0.00    +0.000 OA
ATOM      4  H   UNL     1       0.539   8.351  19.431  0.00  0.00    +0.000 HD
ENDROOT
BRANCH   1   7
ATOM      5  C   UNL     1       3.213   7.679  17.822  0.00  0.00    +0.000 C 
ATOM      6  C   UNL     1       2.996   6.690  18.945  0.00  0.00    +0.000 A 
ATOM      7  C   UNL     1       1.997   6.934  19.924  0.00  0.00    +0.000 A 
ATOM      8  C   UNL     1       1.608   5.895  20.780  0.00  0.00    +0.000 A 
ATOM      9  C   UNL     1       2.259   4.664  20.749  0.00  0.00    +0.000 A 
ATOM     10  C   UNL     1       3.322   4.465  19.873  0.00  0.00    +0.000 A 
ATOM     11  C   UNL     1       3.727   5.454  18.952  0.00  0.00    +0.000 A 
BRANCH  11  12
ATOM     12  C   UNL     1       4.846   5.145  18.004  0.00  0.00    +0.000 A 
ATOM     13  C   UNL     1       4.615   4.537  16.754  0.00  0.00    +0.000 A 
ATOM     14  C   UNL     1       5.649   4.333  15.831  0.00  0.00    +0.000 A 
ATOM     15  C   UNL     1       6.940   4.760  16.121  0.00  0.00    +0.000 A 
ATOM     16  C   UNL     1       7.210   5.321  17.362  0.00  0.00    +0.000 A 
ATOM     17  C   UNL     1       6.183   5.464  18.303  0.00  0.00    +0.000 A 
ENDBRANCH  11  12
ENDBRANCH   1   7
BRANCH   2  18
ATOM     18  C   UNL     1       0.481  10.243  21.006  0.00  0.00    +0.000 A 
ATOM     19  C   UNL     1       0.396  10.798  19.736  0.00  0.00    +0.000 A 
ATOM     20  C   UNL     1      -0.368  11.944  19.564  0.00  0.00    +0.000 A 
ATOM     21  C   UNL     1      -1.012  12.503  20.662  0.00  0.00    +0.000 A 
ATOM     22  C   UNL     1      -0.865  11.904  21.912  0.00  0.00    +0.000 A 
ATOM     23  N   UNL     1      -0.137  10.765  22.105  0.00  0.00    +0.000 NA
BRANCH  22  24
ATOM     24  C   UNL     1      -1.571  12.509  23.116  0.00  0.00    +0.000 C 
BRANCH  24  25
ATOM     25  N   UNL     1      -2.901  11.932  23.384  0.00  0.00    +0.000 NA
ATOM     26  H   UNL     1      -2.884  11.670  24.373  0.00  0.00    +0.000 HD
BRANCH  25  27
ATOM     27  C   UNL     1      -3.966  12.939  23.213  0.00  0.00    +0.000 C 
BRANCH  27  28
ATOM     28  C   UNL     1      -5.079  12.720  24.243  0.00  0.00    +0.000 C 
BRANCH  28  29
ATOM     29  O   UNL     1      -4.523  12.446  25.529  0.00  0.00    +0.000 OA
ATOM     30  H   UNL     1      -3.842  13.129  25.662  0.00  0.00    +0.000 HD
ENDBRANCH  28  29
ENDBRANCH  27  28
ENDBRANCH  25  27
ENDBRANCH  24  25
ENDBRANCH  22  24
ENDBRANCH   2  18
TORSDOF 8
ENDMDL
MODEL 7
REMARK VINA RESULT:      -7.1      1.576      2.727
REMARK  Name = 
REMARK  9 active torsions:
REMARK  status: ('A' for Active; 'I' for Inactive)
REMARK    1  A    between atoms: C_1  and  C_2
REMARK    2  A    between atoms: C_3  and  N_4
REMARK    3  A    between atoms: C_5  and  C_7
REMARK    4  A    between atoms: C_11  and  C_12
REMARK    5  A    between atoms: C_12  and  N_13
REMARK    6  A    between atoms: N_13  and  C_14
REMARK    7  A    between atoms: C_14  and  C_15
REMARK    8  A    between atoms: C_15  and  O_16
REMARK    9  A    between atoms: C_21  and  C_22
REMARK                            x       y       z     vdW  Elec       q    Type
REMARK                         _______ _______ _______ _____ _____    ______ ____
ROOT
ATOM      1  N   UNL     1       0.964   8.852  19.822  0.00  0.00    +0.000 N 
ATOM      2  C   UNL     1       1.072   9.295  21.126  0.00  0.00    +0.000 C 
ATOM      3  O   UNL     1       1.923   8.969  21.946  0.00  0.00    +0.000 OA
ATOM      4  H   UNL     1       0.034   8.977  19.432  0.00  0.00    +0.000 HD
ENDROOT
BRANCH   1   7
ATOM      5  C   UNL     1       1.524   5.966  20.522  0.00  0.00    +0.000 C 
ATOM      6  C   UNL     1       2.102   6.654  19.306  0.00  0.00    +0.000 A 
ATOM      7  C   UNL     1       1.874   8.040  19.098  0.00  0.00    +0.000 A 
ATOM      8  C   UNL     1       2.639   8.724  18.144  0.00  0.00    +0.000 A 
ATOM      9  C   UNL     1       3.541   8.043  17.331  0.00  0.00    +0.000 A 
ATOM     10  C   UNL     1       3.675   6.662  17.450  0.00  0.00    +0.000 A 
ATOM     11  C   UNL     1       2.972   5.925  18.426  0.00  0.00    +0.000 A 
BRANCH  11  12
ATOM     12  C   UNL     1       3.209   4.448  18.527  0.00  0.00    +0.000 A 
ATOM     13  C   UNL     1       4.111   3.903  19.463  0.00  0.00    +0.000 A 
ATOM     14  C   UNL     1       4.263   2.519  19.619  0.00  0.00    +0.000 A 
ATOM     15  C   UNL     1       3.493   1.641  18.865  0.00  0.00    +0.000 A 
ATOM     16  C   UNL     1       2.629   2.146  17.903  0.00  0.00    +0.000 A 
ATOM     17  C   UNL     1       2.529   3.528  17.709  0.00  0.00    +0.000 A 
ENDBRANCH  11  12
ENDBRANCH   1   7
BRANCH   2  18
ATOM     18  C   UNL     1      -0.021  10.240  21.545  0.00  0.00    +0.000 A 
ATOM     19  C   UNL     1      -0.530  10.161  22.834  0.00  0.00    +0.000 A 
ATOM     20  C   UNL     1      -1.504  11.072  23.218  0.00  0.00    +0.000 A 
ATOM     21  C   UNL     1      -1.945  12.022  22.304  0.00  0.00    +0.000 A 
ATOM     22  C   UNL     1      -1.404  12.029  21.018  0.00  0.00    +0.000 A 
ATOM     23  N   UNL     1      -0.430  11.158  20.622  0.00  0.00    +0.000 NA
BRANCH  22  24
ATOM     24  C   UNL     1      -1.880  13.068  20.015  0.00  0.00    +0.000 C 
BRANCH  24  25
ATOM     25  N   UNL     1      -1.718  12.662  18.608  0.00  0.00    +0.000 NA
ATOM     26  H   UNL     1      -0.766  12.293  18.544  0.00  0.00    +0.000 HD
BRANCH  25  27
ATOM     27  C   UNL     1      -2.639  11.564  18.257  0.00  0.00    +0.000 C 
BRANCH  27  28
ATOM     28  C   UNL     1      -1.954  10.571  17.313  0.00  0.00    +0.000 C 
BRANCH  28  29
ATOM     29  O   UNL     1      -0.589  10.386  17.688  0.00  0.00    +0.000 OA
ATOM     30  H   UNL     1      -0.379   9.469  17.439  0.00  0.00    +0.000 HD
ENDBRANCH  28  29
ENDBRANCH  27  28
ENDBRANCH  25  27
ENDBRANCH  24  25
ENDBRANCH  22  24
ENDBRANCH   2  18
TORSDOF 8
ENDMDL
MODEL 8
REMARK VINA RESULT:      -7.1      2.886      8.195
REMARK  Name = 
REMARK  9 active torsions:
REMARK  status: ('A' for Active; 'I' for Inactive)
REMARK    1  A    between atoms: C_1  and  C_2
REMARK    2  A    between atoms: C_3  and  N_4
REMARK    3  A    between atoms: C_5  and  C_7
REMARK    4  A    between atoms: C_11  and  C_12
REMARK    5  A    between atoms: C_12  and  N_13
REMARK    6  A    between atoms: N_13  and  C_14
REMARK    7  A    between atoms: C_14  and  C_15
REMARK    8  A    between atoms: C_15  and  O_16
REMARK    9  A    between atoms: C_21  and  C_22
REMARK                            x       y       z     vdW  Elec       q    Type
REMARK                         _______ _______ _______ _____ _____    ______ ____
ROOT
ATOM      1  N   UNL     1       2.376   6.557  19.616  0.00  0.00    +0.000 N 
ATOM      2  C   UNL     1       1.878   5.276  19.748  0.00  0.00    +0.000 C 
ATOM      3  O   UNL     1       0.938   4.920  20.450  0.00  0.00    +0.000 OA
ATOM      4  H   UNL     1       3.329   6.583  19.264  0.00  0.00    +0.000 HD
ENDROOT
BRANCH   1   7
ATOM      5  C   UNL     1       2.016   9.067  17.971  0.00  0.00    +0.000 C 
ATOM      6  C   UNL     1       1.544   8.936  19.402  0.00  0.00    +0.000 A 
ATOM      7  C   UNL     1       1.839   7.760  20.142  0.00  0.00    +0.000 A 
ATOM      8  C   UNL     1       1.658   7.762  21.531  0.00  0.00    +0.000 A 
ATOM      9  C   UNL     1       1.098   8.863  22.176  0.00  0.00    +0.000 A 
ATOM     10  C   UNL     1       0.694   9.969  21.433  0.00  0.00    +0.000 A 
ATOM     11  C   UNL     1       0.898  10.048  20.040  0.00  0.00    +0.000 A 
BRANCH  11  12
ATOM     12  C   UNL     1       0.484  11.295  19.317  0.00  0.00    +0.000 A 
ATOM     13  C   UNL     1      -0.775  11.410  18.696  0.00  0.00    +0.000 A 
ATOM     14  C   UNL     1      -1.197  12.606  18.101  0.00  0.00    +0.000 A 
ATOM     15  C   UNL     1      -0.381  13.731  18.138  0.00  0.00    +0.000 A 
ATOM     16  C   UNL     1       0.884  13.638  18.702  0.00  0.00    +0.000 A 
ATOM     17  C   UNL     1       1.323  12.421  19.238  0.00  0.00    +0.000 A 
ENDBRANCH  11  12
ENDBRANCH   1   7
BRANCH   2  18
ATOM     18  C   UNL     1       2.634   4.240  18.962  0.00  0.00    +0.000 A 
ATOM     19  C   UNL     1       2.143   2.943  18.899  0.00  0.00    +0.000 A 
ATOM     20  C   UNL     1       2.828   2.013  18.130  0.00  0.00    +0.000 A 
ATOM     21  C   UNL     1       3.982   2.401  17.459  0.00  0.00    +0.000 A 
ATOM     22  C   UNL     1       4.429   3.716  17.585  0.00  0.00    +0.000 A 
ATOM     23  N   UNL     1       3.763   4.656  18.317  0.00  0.00    +0.000 NA
BRANCH  22  24
ATOM     24  C   UNL     1       5.689   4.148  16.850  0.00  0.00    +0.000 C 
BRANCH  24  25
ATOM     25  N   UNL     1       6.922   4.019  17.647  0.00  0.00    +0.000 NA
ATOM     26  H   UNL     1       7.611   3.612  17.008  0.00  0.00    +0.000 HD
BRANCH  25  27
ATOM     27  C   UNL     1       7.433   5.338  18.063  0.00  0.00    +0.000 C 
BRANCH  27  28
ATOM     28  C   UNL     1       7.017   5.643  19.506  0.00  0.00    +0.000 C 
BRANCH  28  29
ATOM     29  O   UNL     1       8.113   5.437  20.396  0.00  0.00    +0.000 OA
ATOM     30  H   UNL     1       8.315   4.487  20.335  0.00  0.00    +0.000 HD
ENDBRANCH  28  29
ENDBRANCH  27  28
ENDBRANCH  25  27
ENDBRANCH  24  25
ENDBRANCH  22  24
ENDBRANCH   2  18
TORSDOF 8
ENDMDL
MODEL 9
REMARK VINA RESULT:      -7.1      5.897      7.904
REMARK  Name = 
REMARK  9 active torsions:
REMARK  status: ('A' for Active; 'I' for Inactive)
REMARK    1  A    between atoms: C_1  and  C_2
REMARK    2  A    between atoms: C_3  and  N_4
REMARK    3  A    between atoms: C_5  and  C_7
REMARK    4  A    between atoms: C_11  and  C_12
REMARK    5  A    between atoms: C_12  and  N_13
REMARK    6  A    between atoms: N_13  and  C_14
REMARK    7  A    between atoms: C_14  and  C_15
REMARK    8  A    between atoms: C_15  and  O_16
REMARK    9  A    between atoms: C_21  and  C_22
REMARK                            x       y       z     vdW  Elec       q    Type
REMARK                         _______ _______ _______ _____ _____    ______ ____
ROOT
ATOM      1  N   UNL     1       6.900   7.630  17.224  0.00  0.00    +0.000 N 
ATOM      2  C   UNL     1       7.923   7.912  18.110  0.00  0.00    +0.000 C 
ATOM      3  O   UNL     1       8.496   7.119  18.848  0.00  0.00    +0.000 OA
ATOM      4  H   UNL     1       6.358   8.449  16.965  0.00  0.00    +0.000 HD
ENDROOT
BRANCH   1   7
ATOM      5  C   UNL     1       4.755   6.220  18.818  0.00  0.00    +0.000 C 
ATOM      6  C   UNL     1       5.299   5.694  17.509  0.00  0.00    +0.000 A 
ATOM      7  C   UNL     1       6.378   6.360  16.870  0.00  0.00    +0.000 A 
ATOM      8  C   UNL     1       7.060   5.717  15.828  0.00  0.00    +0.000 A 
ATOM      9  C   UNL     1       6.628   4.483  15.348  0.00  0.00    +0.000 A 
ATOM     10  C   UNL     1       5.494   3.886  15.893  0.00  0.00    +0.000 A 
ATOM     11  C   UNL     1       4.797   4.458  16.978  0.00  0.00    +0.000 A 
BRANCH  11  12
ATOM     12  C   UNL     1       3.616   3.729  17.545  0.00  0.00    +0.000 A 
ATOM     13  C   UNL     1       3.751   2.477  18.178  0.00  0.00    +0.000 A 
ATOM     14  C   UNL     1       2.662   1.839  18.788  0.00  0.00    +0.000 A 
ATOM     15  C   UNL     1       1.414   2.452  18.809  0.00  0.00    +0.000 A 
ATOM     16  C   UNL     1       1.239   3.664  18.155  0.00  0.00    +0.000 A 
ATOM     17  C   UNL     1       2.316   4.264  17.493  0.00  0.00    +0.000 A 
ENDBRANCH  11  12
ENDBRANCH   1   7
BRANCH   2  18
ATOM     18  C   UNL     1       8.304   9.366  18.164  0.00  0.00    +0.000 A 
ATOM     19  C   UNL     1       7.753  10.247  17.242  0.00  0.00    +0.000 A 
ATOM     20  C   UNL     1       8.079  11.592  17.337  0.00  0.00    +0.000 A 
ATOM     21  C   UNL     1       8.949  12.013  18.336  0.00  0.00    +0.000 A 
ATOM     22  C   UNL     1       9.482  11.069  19.213  0.00  0.00    +0.000 A 
ATOM     23  N   UNL     1       9.161   9.744  19.156  0.00  0.00    +0.000 NA
BRANCH  22  24
ATOM     24  C   UNL     1      10.431  11.525  20.311  0.00  0.00    +0.000 C 
BRANCH  24  25
ATOM     25  N   UNL     1       9.847  11.484  21.664  0.00  0.00    +0.000 NA
ATOM     26  H   UNL     1      10.637  11.628  22.299  0.00  0.00    +0.000 HD
BRANCH  25  27
ATOM     27  C   UNL     1       8.904  12.599  21.875  0.00  0.00    +0.000 C 
BRANCH  27  28
ATOM     28  C   UNL     1       7.946  12.278  23.027  0.00  0.00    +0.000 C 
BRANCH  28  29
ATOM     29  O   UNL     1       8.291  11.032  23.631  0.00  0.00    +0.000 OA
ATOM     30  H   UNL     1       7.588  10.415  23.360  0.00  0.00    +0.000 HD
ENDBRANCH  28  29
ENDBRANCH  27  28
ENDBRANCH  25  27
ENDBRANCH  24  25
ENDBRANCH  22  24
ENDBRANCH   2  18
TORSDOF 8
ENDMDL
