MODEL 1
REMARK VINA RESULT:      -7.1      0.000      0.000
REMARK  Name = 
REMARK  8 active torsions:
REMARK  status: ('A' for Active; 'I' for Inactive)
REMARK    1  A    between atoms: C_1  and  O_2
REMARK    2  A    between atoms: O_2  and  C_3
REMARK    3  A    between atoms: C_9  and  C_10
REMARK    4  A    between atoms: N_12  and  C_13
REMARK    5  A    between atoms: C_15  and  C_16
REMARK    6  A    between atoms: C_20  and  N_21
REMARK    7  A    between atoms: C_24  and  O_25
REMARK    8  A    between atoms: O_25  and  C_26
REMARK                            x       y       z     vdW  Elec       q    Type
REMARK                         _______ _______ _______ _____ _____    ______ ____
ROOT
ATOM      1  C   UNL     1       0.349  13.800  18.732  0.00  0.00    +0.000 A 
ATOM      2  C   UNL     1       0.240  15.194  18.536  0.00  0.00    +0.000 A 
ATOM      3  C   UNL     1       1.265  16.068  18.907  0.00  0.00    +0.000 A 
ATOM      4  C   UNL     1       2.416  15.556  19.491  0.00  0.00    +0.000 A 
ATOM      5  C   UNL     1       2.539  14.179  19.686  0.00  0.00    +0.000 A 
ATOM      6  C   UNL     1       1.531  13.265  19.310  0.00  0.00    +0.000 A 
ENDROOT
BRANCH   6   7
ATOM      7  N   UNL     1       1.749  11.900  19.496  0.00  0.00    +0.000 N 
ATOM      8  C   UNL     1       2.232  11.059  18.408  0.00  0.00    +0.000 C 
ATOM      9  C   UNL     1       1.175  10.011  18.085  0.00  0.00    +0.000 C 
ATOM     10  C   UNL     1       0.877   9.141  19.313  0.00  0.00    +0.000 C 
ATOM     11  C   UNL     1       0.397  10.049  20.451  0.00  0.00    +0.000 C 
ATOM     12  C   UNL     1       1.349  11.209  20.719  0.00  0.00    +0.000 C 
BRANCH  10  13
ATOM     13  O   UNL     1       2.038   8.421  19.765  0.00  0.00    +0.000 OA
BRANCH  13  14
ATOM     14  C   UNL     1       2.033   7.053  19.650  0.00  0.00    +0.000 A 
ATOM     15  C   UNL     1       1.522   6.174  20.608  0.00  0.00    +0.000 A 
ATOM     16  C   UNL     1       1.515   4.797  20.378  0.00  0.00    +0.000 A 
ATOM     17  C   UNL     1       2.042   4.293  19.196  0.00  0.00    +0.000 A 
ATOM     18  F   UNL     1       2.043   2.971  18.992  0.00  0.00    +0.000 F 
ATOM     19  C   UNL     1       2.567   5.141  18.233  0.00  0.00    +0.000 A 
ATOM     20  C   UNL     1       2.548   6.515  18.460  0.00  0.00    +0.000 A 
ATOM     21  F   UNL     1       3.053   7.327  17.518  0.00  0.00    +0.000 F 
ENDBRANCH  13  14
ENDBRANCH  10  13
ENDBRANCH   6   7
BRANCH   1  24
ATOM     22  C   UNL     1      -1.765  12.587  19.288  0.00  0.00    +0.000 C 
ATOM     23  O   UNL     1      -1.825  12.972  20.452  0.00  0.00    +0.000 OA
ATOM     24  N   UNL     1      -0.745  12.935  18.423  0.00  0.00    +0.000 N 
ATOM     25  H   UNL     1      -0.833  12.661  17.451  0.00  0.00    +0.000 HD
BRANCH  22  32
ATOM     26  C   UNL     1      -4.297  11.944  18.979  0.00  0.00    +0.000 A 
ATOM     27  C   UNL     1      -5.192  11.032  18.358  0.00  0.00    +0.000 A 
ATOM     28 CL   UNL     1      -6.921  11.172  18.315  0.00  0.00    +0.000 Cl
ATOM     29  C   UNL     1      -4.721   9.924  17.640  0.00  0.00    +0.000 A 
ATOM     30  C   UNL     1      -3.365   9.705  17.486  0.00  0.00    +0.000 A 
ATOM     31  C   UNL     1      -2.473  10.610  18.041  0.00  0.00    +0.000 A 
ATOM     32  C   UNL     1      -2.907  11.737  18.780  0.00  0.00    +0.000 A 
BRANCH  26  34
ATOM     33  C   UNL     1      -5.264  12.811  21.007  0.00  0.00    +0.000 C 
ATOM     34  O   UNL     1      -4.653  13.038  19.734  0.00  0.00    +0.000 OA
ENDBRANCH  26  34
ENDBRANCH  22  32
ENDBRANCH   1  24
BRANCH   3  35
ATOM     35  C   UNL     1       1.128  17.482  18.701  0.00  0.00    +0.000 C 
ATOM     36  N   UNL     1       1.048  18.625  18.531  0.00  0.00    +0.000 NA
ENDBRANCH   3  35
TORSDOF 7
ENDMDL
MODEL 2
REMARK VINA RESULT:      -7.0      3.473      5.646
REMARK  Name = 
REMARK  8 active torsions:
REMARK  status: ('A' for Active; 'I' for Inactive)
REMARK    1  A    between atoms: C_1  and  O_2
REMARK    2  A    between atoms: O_2  and  C_3
REMARK    3  A    between atoms: C_9  and  C_10
REMARK    4  A    between atoms: N_12  and  C_13
REMARK    5  A    between atoms: C_15  and  C_16
REMARK    6  A    between atoms: C_20  and  N_21
REMARK    7  A    between atoms: C_24  and  O_25
REMARK    8  A    between atoms: O_25  and  C_26
REMARK                            x       y       z     vdW  Elec       q    Type
REMARK                         _______ _______ _______ _____ _____    ______ ____
ROOT
ATOM      1  C   UNL     1      -1.441  14.173  21.932  0.00  0.00    +0.000 A 
ATOM      2  C   UNL     1      -2.061  15.146  22.746  0.00  0.00    +0.000 A 
ATOM      3  C   UNL     1      -3.024  14.800  23.696  0.00  0.00    +0.000 A 
ATOM      4  C   UNL     1      -3.390  13.468  23.839  0.00  0.00    +0.000 A 
ATOM      5  C   UNL     1      -2.781  12.495  23.044  0.00  0.00    +0.000 A 
ATOM      6  C   UNL     1      -1.793  12.805  22.084  0.00  0.00    +0.000 A 
ENDROOT
BRANCH   6   7
ATOM      7  N   UNL     1      -1.199  11.771  21.362  0.00  0.00    +0.000 N 
ATOM      8  C   UNL     1      -0.156  10.942  21.952  0.00  0.00    +0.000 C 
ATOM      9  C   UNL     1       1.133  11.131  21.162  0.00  0.00    +0.000 C 
ATOM     10  C   UNL     1       0.935  10.738  19.693  0.00  0.00    +0.000 C 
ATOM     11  C   UNL     1      -0.184  11.603  19.102  0.00  0.00    +0.000 C 
ATOM     12  C   UNL     1      -1.458  11.569  19.939  0.00  0.00    +0.000 C 
BRANCH  10  13
ATOM     13  O   UNL     1       0.566   9.354  19.544  0.00  0.00    +0.000 OA
BRANCH  13  14
ATOM     14  C   UNL     1       1.523   8.479  19.095  0.00  0.00    +0.000 A 
ATOM     15  C   UNL     1       2.198   8.592  17.877  0.00  0.00    +0.000 A 
ATOM     16  C   UNL     1       3.194   7.677  17.528  0.00  0.00    +0.000 A 
ATOM     17  C   UNL     1       3.500   6.631  18.388  0.00  0.00    +0.000 A 
ATOM     18  F   UNL     1       4.446   5.752  18.038  0.00  0.00    +0.000 F 
ATOM     19  C   UNL     1       2.837   6.486  19.597  0.00  0.00    +0.000 A 
ATOM     20  C   UNL     1       1.863   7.417  19.948  0.00  0.00    +0.000 A 
ATOM     21  F   UNL     1       1.231   7.271  21.123  0.00  0.00    +0.000 F 
ENDBRANCH  13  14
ENDBRANCH  10  13
ENDBRANCH   6   7
BRANCH   1  24
ATOM     22  C   UNL     1       0.847  14.682  21.063  0.00  0.00    +0.000 C 
ATOM     23  O   UNL     1       1.428  14.494  22.128  0.00  0.00    +0.000 OA
ATOM     24  N   UNL     1      -0.521  14.560  20.910  0.00  0.00    +0.000 N 
ATOM     25  H   UNL     1      -0.901  14.627  19.973  0.00  0.00    +0.000 HD
BRANCH  22  32
ATOM     26  C   UNL     1       1.542  16.084  18.948  0.00  0.00    +0.000 A 
ATOM     27  C   UNL     1       2.505  16.216  17.913  0.00  0.00    +0.000 A 
ATOM     28 CL   UNL     1       2.620  17.535  16.790  0.00  0.00    +0.000 Cl
ATOM     29  C   UNL     1       3.529  15.273  17.746  0.00  0.00    +0.000 A 
ATOM     30  C   UNL     1       3.652  14.202  18.610  0.00  0.00    +0.000 A 
ATOM     31  C   UNL     1       2.754  14.081  19.659  0.00  0.00    +0.000 A 
ATOM     32  C   UNL     1       1.700  15.006  19.857  0.00  0.00    +0.000 A 
BRANCH  26  34
ATOM     33  C   UNL     1      -0.598  16.928  18.237  0.00  0.00    +0.000 C 
ATOM     34  O   UNL     1       0.480  16.929  19.176  0.00  0.00    +0.000 OA
ENDBRANCH  26  34
ENDBRANCH  22  32
ENDBRANCH   1  24
BRANCH   3  35
ATOM     35  C   UNL     1      -3.643  15.808  24.508  0.00  0.00    +0.000 C 
ATOM     36  N   UNL     1      -4.160  16.601  25.176  0.00  0.00    +0.000 NA
ENDBRANCH   3  35
TORSDOF 7
ENDMDL
MODEL 3
REMARK VINA RESULT:      -7.0      4.433      7.592
REMARK  Name = 
REMARK  8 active torsions:
REMARK  status: ('A' for Active; 'I' for Inactive)
REMARK    1  A    between atoms: C_1  and  O_2
REMARK    2  A    between atoms: O_2  and  C_3
REMARK    3  A    between atoms: C_9  and  C_10
REMARK    4  A    between atoms: N_12  and  C_13
REMARK    5  A    between atoms: C_15  and  C_16
REMARK    6  A    between atoms: C_20  and  N_21
REMARK    7  A    between atoms: C_24  and  O_25
REMARK    8  A    between atoms: O_25  and  C_26
REMARK                            x       y       z     vdW  Elec       q    Type
REMARK                         _______ _______ _______ _____ _____    ______ ____
ROOT
ATOM      1  C   UNL     1      -1.022  12.356  21.818  0.00  0.00    +0.000 A 
ATOM      2  C   UNL     1      -2.089  11.981  22.662  0.00  0.00    +0.000 A 
ATOM      3  C   UNL     1      -2.881  12.934  23.308  0.00  0.00    +0.000 A 
ATOM      4  C   UNL     1      -2.607  14.283  23.124  0.00  0.00    +0.000 A 
ATOM      5  C   UNL     1      -1.558  14.667  22.287  0.00  0.00    +0.000 A 
ATOM      6  C   UNL     1      -0.746  13.733  21.606  0.00  0.00    +0.000 A 
ENDROOT
BRANCH   6   7
ATOM      7  N   UNL     1       0.253  14.198  20.751  0.00  0.00    +0.000 N 
ATOM      8  C   UNL     1      -0.020  14.459  19.344  0.00  0.00    +0.000 C 
ATOM      9  C   UNL     1       0.827  13.524  18.492  0.00  0.00    +0.000 C 
ATOM     10  C   UNL     1       2.321  13.733  18.773  0.00  0.00    +0.000 C 
ATOM     11  C   UNL     1       2.579  13.479  20.262  0.00  0.00    +0.000 C 
ATOM     12  C   UNL     1       1.651  14.283  21.165  0.00  0.00    +0.000 C 
BRANCH  10  13
ATOM     13  O   UNL     1       2.751  15.070  18.458  0.00  0.00    +0.000 OA
BRANCH  13  14
ATOM     14  C   UNL     1       4.097  15.338  18.493  0.00  0.00    +0.000 A 
ATOM     15  C   UNL     1       5.079  14.566  17.867  0.00  0.00    +0.000 A 
ATOM     16  C   UNL     1       6.421  14.947  17.916  0.00  0.00    +0.000 A 
ATOM     17  C   UNL     1       6.788  16.091  18.613  0.00  0.00    +0.000 A 
ATOM     18  F   UNL     1       8.079  16.440  18.666  0.00  0.00    +0.000 F 
ATOM     19  C   UNL     1       5.836  16.869  19.256  0.00  0.00    +0.000 A 
ATOM     20  C   UNL     1       4.497  16.494  19.181  0.00  0.00    +0.000 A 
ATOM     21  F   UNL     1       3.583  17.258  19.800  0.00  0.00    +0.000 F 
ENDBRANCH  13  14
ENDBRANCH  10  13
ENDBRANCH   6   7
BRANCH   1  24
ATOM     22  C   UNL     1      -0.435  10.664  20.073  0.00  0.00    +0.000 C 
ATOM     23  O   UNL     1      -1.464  10.803  19.417  0.00  0.00    +0.000 OA
ATOM     24  N   UNL     1      -0.174  11.365  21.235  0.00  0.00    +0.000 N 
ATOM     25  H   UNL     1       0.745  11.266  21.651  0.00  0.00    +0.000 HD
BRANCH  22  32
ATOM     26  C   UNL     1       1.195   8.603  20.189  0.00  0.00    +0.000 A 
ATOM     27  C   UNL     1       2.125   7.820  19.454  0.00  0.00    +0.000 A 
ATOM     28 CL   UNL     1       2.842   6.329  19.978  0.00  0.00    +0.000 Cl
ATOM     29  C   UNL     1       2.510   8.177  18.154  0.00  0.00    +0.000 A 
ATOM     30  C   UNL     1       1.967   9.286  17.534  0.00  0.00    +0.000 A 
ATOM     31  C   UNL     1       1.019  10.036  18.214  0.00  0.00    +0.000 A 
ATOM     32  C   UNL     1       0.609   9.715  19.530  0.00  0.00    +0.000 A 
BRANCH  26  34
ATOM     33  C   UNL     1       1.507   8.972  22.547  0.00  0.00    +0.000 C 
ATOM     34  O   UNL     1       0.779   8.363  21.478  0.00  0.00    +0.000 OA
ENDBRANCH  26  34
ENDBRANCH  22  32
ENDBRANCH   1  24
BRANCH   3  35
ATOM     35  C   UNL     1      -3.957  12.528  24.166  0.00  0.00    +0.000 C 
ATOM     36  N   UNL     1      -4.812  12.173  24.862  0.00  0.00    +0.000 NA
ENDBRANCH   3  35
TORSDOF 7
ENDMDL
MODEL 4
REMARK VINA RESULT:      -7.0      0.864      1.262
REMARK  Name = 
REMARK  8 active torsions:
REMARK  status: ('A' for Active; 'I' for Inactive)
REMARK    1  A    between atoms: C_1  and  O_2
REMARK    2  A    between atoms: O_2  and  C_3
REMARK    3  A    between atoms: C_9  and  C_10
REMARK    4  A    between atoms: N_12  and  C_13
REMARK    5  A    between atoms: C_15  and  C_16
REMARK    6  A    between atoms: C_20  and  N_21
REMARK    7  A    between atoms: C_24  and  O_25
REMARK    8  A    between atoms: O_25  and  C_26
REMARK                            x       y       z     vdW  Elec       q    Type
REMARK                         _______ _______ _______ _____ _____    ______ ____
ROOT
ATOM      1  C   UNL     1       0.324  13.825  18.723  0.00  0.00    +0.000 A 
ATOM      2  C   UNL     1       0.242  15.215  18.491  0.00  0.00    +0.000 A 
ATOM      3  C   UNL     1       1.265  16.083  18.880  0.00  0.00    +0.000 A 
ATOM      4  C   UNL     1       2.387  15.570  19.519  0.00  0.00    +0.000 A 
ATOM      5  C   UNL     1       2.482  14.196  19.749  0.00  0.00    +0.000 A 
ATOM      6  C   UNL     1       1.475  13.287  19.357  0.00  0.00    +0.000 A 
ENDROOT
BRANCH   6   7
ATOM      7  N   UNL     1       1.667  11.924  19.582  0.00  0.00    +0.000 N 
ATOM      8  C   UNL     1       2.207  11.058  18.542  0.00  0.00    +0.000 C 
ATOM      9  C   UNL     1       1.161  10.014  18.174  0.00  0.00    +0.000 C 
ATOM     10  C   UNL     1       0.777   9.171  19.397  0.00  0.00    +0.000 C 
ATOM     11  C   UNL     1       0.237  10.106  20.485  0.00  0.00    +0.000 C 
ATOM     12  C   UNL     1       1.184  11.261  20.790  0.00  0.00    +0.000 C 
BRANCH  10  13
ATOM     13  O   UNL     1       1.901   8.448  19.934  0.00  0.00    +0.000 OA
BRANCH  13  14
ATOM     14  C   UNL     1       2.369   7.370  19.227  0.00  0.00    +0.000 A 
ATOM     15  C   UNL     1       3.135   7.452  18.061  0.00  0.00    +0.000 A 
ATOM     16  C   UNL     1       3.610   6.295  17.439  0.00  0.00    +0.000 A 
ATOM     17  C   UNL     1       3.298   5.050  17.968  0.00  0.00    +0.000 A 
ATOM     18  F   UNL     1       3.746   3.948  17.357  0.00  0.00    +0.000 F 
ATOM     19  C   UNL     1       2.528   4.938  19.117  0.00  0.00    +0.000 A 
ATOM     20  C   UNL     1       2.080   6.097  19.744  0.00  0.00    +0.000 A 
ATOM     21  F   UNL     1       1.341   5.977  20.859  0.00  0.00    +0.000 F 
ENDBRANCH  13  14
ENDBRANCH  10  13
ENDBRANCH   6   7
BRANCH   1  24
ATOM     22  C   UNL     1      -1.805  12.622  19.241  0.00  0.00    +0.000 C 
ATOM     23  O   UNL     1      -1.880  13.001  20.407  0.00  0.00    +0.000 OA
ATOM     24  N   UNL     1      -0.770  12.969  18.393  0.00  0.00    +0.000 N 
ATOM     25  H   UNL     1      -0.846  12.699  17.419  0.00  0.00    +0.000 HD
BRANCH  22  32
ATOM     26  C   UNL     1      -4.331  11.937  18.973  0.00  0.00    +0.000 A 
ATOM     27  C   UNL     1      -5.226  11.050  18.318  0.00  0.00    +0.000 A 
ATOM     28 CL   UNL     1      -6.959  11.148  18.344  0.00  0.00    +0.000 Cl
ATOM     29  C   UNL     1      -4.756  10.009  17.506  0.00  0.00    +0.000 A 
ATOM     30  C   UNL     1      -3.402   9.837  17.290  0.00  0.00    +0.000 A 
ATOM     31  C   UNL     1      -2.512  10.722  17.879  0.00  0.00    +0.000 A 
ATOM     32  C   UNL     1      -2.945  11.781  18.712  0.00  0.00    +0.000 A 
BRANCH  26  34
ATOM     33  C   UNL     1      -5.247  12.631  21.089  0.00  0.00    +0.000 C 
ATOM     34  O   UNL     1      -4.685  12.965  19.816  0.00  0.00    +0.000 OA
ENDBRANCH  26  34
ENDBRANCH  22  32
ENDBRANCH   1  24
BRANCH   3  35
ATOM     35  C   UNL     1       1.157  17.494  18.638  0.00  0.00    +0.000 C 
ATOM     36  N   UNL     1       1.092  18.630  18.422  0.00  0.00    +0.000 NA
ENDBRANCH   3  35
TORSDOF 7
ENDMDL
MODEL 5
REMARK VINA RESULT:      -6.7      4.464      7.257
REMARK  Name = 
REMARK  8 active torsions:
REMARK  status: ('A' for Active; 'I' for Inactive)
REMARK    1  A    between atoms: C_1  and  O_2
REMARK    2  A    between atoms: O_2  and  C_3
REMARK    3  A    between atoms: C_9  and  C_10
REMARK    4  A    between atoms: N_12  and  C_13
REMARK    5  A    between atoms: C_15  and  C_16
REMARK    6  A    between atoms: C_20  and  N_21
REMARK    7  A    between atoms: C_24  and  O_25
REMARK    8  A    between atoms: O_25  and  C_26
REMARK                            x       y       z     vdW  Elec       q    Type
REMARK                         _______ _______ _______ _____ _____    ______ ____
ROOT
ATOM      1  C   UNL     1       0.557  13.324  20.600  0.00  0.00    +0.000 A 
ATOM      2  C   UNL     1      -0.682  13.562  21.233  0.00  0.00    +0.000 A 
ATOM      3  C   UNL     1      -1.117  14.856  21.527  0.00  0.00    +0.000 A 
ATOM      4  C   UNL     1      -0.309  15.936  21.198  0.00  0.00    +0.000 A 
ATOM      5  C   UNL     1       0.916  15.715  20.567  0.00  0.00    +0.000 A 
ATOM      6  C   UNL     1       1.382  14.423  20.240  0.00  0.00    +0.000 A 
ENDROOT
BRANCH   6   7
ATOM      7  N   UNL     1       2.596  14.288  19.568  0.00  0.00    +0.000 N 
ATOM      8  C   UNL     1       3.866  14.397  20.275  0.00  0.00    +0.000 C 
ATOM      9  C   UNL     1       4.636  15.593  19.732  0.00  0.00    +0.000 C 
ATOM     10  C   UNL     1       4.898  15.437  18.229  0.00  0.00    +0.000 C 
ATOM     11  C   UNL     1       3.551  15.298  17.510  0.00  0.00    +0.000 C 
ATOM     12  C   UNL     1       2.673  14.208  18.111  0.00  0.00    +0.000 C 
BRANCH  10  13
ATOM     13  O   UNL     1       5.693  14.274  17.933  0.00  0.00    +0.000 OA
BRANCH  13  14
ATOM     14  C   UNL     1       7.058  14.414  17.922  0.00  0.00    +0.000 A 
ATOM     15  C   UNL     1       7.744  15.569  18.307  0.00  0.00    +0.000 A 
ATOM     16  C   UNL     1       9.140  15.598  18.308  0.00  0.00    +0.000 A 
ATOM     17  C   UNL     1       9.854  14.480  17.902  0.00  0.00    +0.000 A 
ATOM     18  F   UNL     1      11.192  14.523  17.894  0.00  0.00    +0.000 F 
ATOM     19  C   UNL     1       9.200  13.324  17.501  0.00  0.00    +0.000 A 
ATOM     20  C   UNL     1       7.808  13.295  17.526  0.00  0.00    +0.000 A 
ATOM     21  F   UNL     1       7.184  12.169  17.143  0.00  0.00    +0.000 F 
ENDBRANCH  13  14
ENDBRANCH  10  13
ENDBRANCH   6   7
BRANCH   1  24
ATOM     22  C   UNL     1       0.567  11.130  19.402  0.00  0.00    +0.000 C 
ATOM     23  O   UNL     1      -0.322  11.420  18.606  0.00  0.00    +0.000 OA
ATOM     24  N   UNL     1       1.019  11.989  20.385  0.00  0.00    +0.000 N 
ATOM     25  H   UNL     1       1.828  11.707  20.926  0.00  0.00    +0.000 HD
BRANCH  22  32
ATOM     26  C   UNL     1       1.353   8.754  20.215  0.00  0.00    +0.000 A 
ATOM     27  C   UNL     1       1.971   7.540  19.814  0.00  0.00    +0.000 A 
ATOM     28 CL   UNL     1       2.090   6.094  20.766  0.00  0.00    +0.000 Cl
ATOM     29  C   UNL     1       2.507   7.386  18.528  0.00  0.00    +0.000 A 
ATOM     30  C   UNL     1       2.418   8.403  17.597  0.00  0.00    +0.000 A 
ATOM     31  C   UNL     1       1.773   9.579  17.950  0.00  0.00    +0.000 A 
ATOM     32  C   UNL     1       1.226   9.778  19.241  0.00  0.00    +0.000 A 
BRANCH  26  34
ATOM     33  C   UNL     1      -0.507   8.595  21.735  0.00  0.00    +0.000 C 
ATOM     34  O   UNL     1       0.829   9.021  21.459  0.00  0.00    +0.000 OA
ENDBRANCH  26  34
ENDBRANCH  22  32
ENDBRANCH   1  24
BRANCH   3  35
ATOM     35  C   UNL     1      -2.379  15.072  22.176  0.00  0.00    +0.000 C 
ATOM     36  N   UNL     1      -3.384  15.244  22.727  0.00  0.00    +0.000 NA
ENDBRANCH   3  35
TORSDOF 7
ENDMDL
MODEL 6
REMARK VINA RESULT:      -6.7      3.399      5.481
REMARK  Name = 
REMARK  8 active torsions:
REMARK  status: ('A' for Active; 'I' for Inactive)
REMARK    1  A    between atoms: C_1  and  O_2
REMARK    2  A    between atoms: O_2  and  C_3
REMARK    3  A    between atoms: C_9  and  C_10
REMARK    4  A    between atoms: N_12  and  C_13
REMARK    5  A    between atoms: C_15  and  C_16
REMARK    6  A    between atoms: C_20  and  N_21
REMARK    7  A    between atoms: C_24  and  O_25
REMARK    8  A    between atoms: O_25  and  C_26
REMARK                            x       y       z     vdW  Elec       q    Type
REMARK                         _______ _______ _______ _____ _____    ______ ____
ROOT
ATOM      1  C   UNL     1      -1.428  13.797  21.992  0.00  0.00    +0.000 A 
ATOM      2  C   UNL     1      -2.325  14.737  22.543  0.00  0.00    +0.000 A 
ATOM      3  C   UNL     1      -3.302  14.361  23.468  0.00  0.00    +0.000 A 
ATOM      4  C   UNL     1      -3.402  13.030  23.848  0.00  0.00    +0.000 A 
ATOM      5  C   UNL     1      -2.517  12.091  23.315  0.00  0.00    +0.000 A 
ATOM      6  C   UNL     1      -1.508  12.436  22.390  0.00  0.00    +0.000 A 
ENDROOT
BRANCH   6   7
ATOM      7  N   UNL     1      -0.634  11.447  21.939  0.00  0.00    +0.000 N 
ATOM      8  C   UNL     1      -0.341  11.290  20.520  0.00  0.00    +0.000 C 
ATOM      9  C   UNL     1      -0.824   9.920  20.062  0.00  0.00    +0.000 C 
ATOM     10  C   UNL     1      -0.131   8.804  20.855  0.00  0.00    +0.000 C 
ATOM     11  C   UNL     1      -0.432   9.005  22.345  0.00  0.00    +0.000 C 
ATOM     12  C   UNL     1      -0.105  10.414  22.826  0.00  0.00    +0.000 C 
BRANCH  10  13
ATOM     13  O   UNL     1       1.297   8.813  20.675  0.00  0.00    +0.000 OA
BRANCH  13  14
ATOM     14  C   UNL     1       1.860   7.791  19.953  0.00  0.00    +0.000 A 
ATOM     15  C   UNL     1       2.004   6.478  20.408  0.00  0.00    +0.000 A 
ATOM     16  C   UNL     1       2.545   5.493  19.580  0.00  0.00    +0.000 A 
ATOM     17  C   UNL     1       2.967   5.825  18.299  0.00  0.00    +0.000 A 
ATOM     18  F   UNL     1       3.497   4.877  17.518  0.00  0.00    +0.000 F 
ATOM     19  C   UNL     1       2.848   7.123  17.825  0.00  0.00    +0.000 A 
ATOM     20  C   UNL     1       2.285   8.094  18.649  0.00  0.00    +0.000 A 
ATOM     21  F   UNL     1       2.169   9.345  18.178  0.00  0.00    +0.000 F 
ENDBRANCH  13  14
ENDBRANCH  10  13
ENDBRANCH   6   7
BRANCH   1  24
ATOM     22  C   UNL     1       0.827  14.534  21.204  0.00  0.00    +0.000 C 
ATOM     23  O   UNL     1       1.341  14.571  22.319  0.00  0.00    +0.000 OA
ATOM     24  N   UNL     1      -0.493  14.188  20.985  0.00  0.00    +0.000 N 
ATOM     25  H   UNL     1      -0.801  14.079  20.026  0.00  0.00    +0.000 HD
BRANCH  22  32
ATOM     26  C   UNL     1       1.614  15.910  19.104  0.00  0.00    +0.000 A 
ATOM     27  C   UNL     1       2.608  16.013  18.094  0.00  0.00    +0.000 A 
ATOM     28 CL   UNL     1       2.787  17.324  16.971  0.00  0.00    +0.000 Cl
ATOM     29  C   UNL     1       3.611  15.043  17.958  0.00  0.00    +0.000 A 
ATOM     30  C   UNL     1       3.683  13.973  18.829  0.00  0.00    +0.000 A 
ATOM     31  C   UNL     1       2.754  13.879  19.854  0.00  0.00    +0.000 A 
ATOM     32  C   UNL     1       1.720  14.832  20.021  0.00  0.00    +0.000 A 
BRANCH  26  34
ATOM     33  C   UNL     1      -0.535  16.730  18.394  0.00  0.00    +0.000 C 
ATOM     34  O   UNL     1       0.569  16.783  19.301  0.00  0.00    +0.000 OA
ENDBRANCH  26  34
ENDBRANCH  22  32
ENDBRANCH   1  24
BRANCH   3  35
ATOM     35  C   UNL     1      -4.206  15.336  24.010  0.00  0.00    +0.000 C 
ATOM     36  N   UNL     1      -4.933  16.108  24.475  0.00  0.00    +0.000 NA
ENDBRANCH   3  35
TORSDOF 7
ENDMDL
MODEL 7
REMARK VINA RESULT:      -6.6      3.518      5.884
REMARK  Name = 
REMARK  8 active torsions:
REMARK  status: ('A' for Active; 'I' for Inactive)
REMARK    1  A    between atoms: C_1  and  O_2
REMARK    2  A    between atoms: O_2  and  C_3
REMARK    3  A    between atoms: C_9  and  C_10
REMARK    4  A    between atoms: N_12  and  C_13
REMARK    5  A    between atoms: C_15  and  C_16
REMARK    6  A    between atoms: C_20  and  N_21
REMARK    7  A    between atoms: C_24  and  O_25
REMARK    8  A    between atoms: O_25  and  C_26
REMARK                            x       y       z     vdW  Elec       q    Type
REMARK                         _______ _______ _______ _____ _____    ______ ____
ROOT
ATOM      1  C   UNL     1      -0.782  13.765  22.611  0.00  0.00    +0.000 A 
ATOM      2  C   UNL     1      -1.641  14.707  23.217  0.00  0.00    +0.000 A 
ATOM      3  C   UNL     1      -2.873  14.333  23.757  0.00  0.00    +0.000 A 
ATOM      4  C   UNL     1      -3.270  13.004  23.689  0.00  0.00    +0.000 A 
ATOM      5  C   UNL     1      -2.428  12.061  23.097  0.00  0.00    +0.000 A 
ATOM      6  C   UNL     1      -1.169  12.399  22.554  0.00  0.00    +0.000 A 
ENDROOT
BRANCH   6   7
ATOM      7  N   UNL     1      -0.367  11.391  22.021  0.00  0.00    +0.000 N 
ATOM      8  C   UNL     1      -0.059  11.345  20.598  0.00  0.00    +0.000 C 
ATOM      9  C   UNL     1      -0.638  10.066  20.006  0.00  0.00    +0.000 C 
ATOM     10  C   UNL     1      -0.050   8.830  20.698  0.00  0.00    +0.000 C 
ATOM     11  C   UNL     1      -0.363   8.914  22.197  0.00  0.00    +0.000 C 
ATOM     12  C   UNL     1       0.063  10.241  22.813  0.00  0.00    +0.000 C 
BRANCH  10  13
ATOM     13  O   UNL     1       1.377   8.743  20.536  0.00  0.00    +0.000 OA
BRANCH  13  14
ATOM     14  C   UNL     1       1.890   7.610  19.955  0.00  0.00    +0.000 A 
ATOM     15  C   UNL     1       1.853   6.335  20.525  0.00  0.00    +0.000 A 
ATOM     16  C   UNL     1       2.358   5.232  19.833  0.00  0.00    +0.000 A 
ATOM     17  C   UNL     1       2.924   5.406  18.578  0.00  0.00    +0.000 A 
ATOM     18  F   UNL     1       3.417   4.345  17.929  0.00  0.00    +0.000 F 
ATOM     19  C   UNL     1       2.987   6.662  17.993  0.00  0.00    +0.000 A 
ATOM     20  C   UNL     1       2.459   7.753  18.679  0.00  0.00    +0.000 A 
ATOM     21  F   UNL     1       2.519   8.963  18.102  0.00  0.00    +0.000 F 
ENDBRANCH  13  14
ENDBRANCH  10  13
ENDBRANCH   6   7
BRANCH   1  24
ATOM     22  C   UNL     1       0.544  14.750  20.734  0.00  0.00    +0.000 C 
ATOM     23  O   UNL     1      -0.414  14.930  19.988  0.00  0.00    +0.000 OA
ATOM     24  N   UNL     1       0.435  14.184  21.991  0.00  0.00    +0.000 N 
ATOM     25  H   UNL     1       1.260  14.173  22.579  0.00  0.00    +0.000 HD
BRANCH  22  32
ATOM     26  C   UNL     1       2.895  14.481  19.583  0.00  0.00    +0.000 A 
ATOM     27  C   UNL     1       4.072  15.168  19.183  0.00  0.00    +0.000 A 
ATOM     28 CL   UNL     1       5.351  14.514  18.209  0.00  0.00    +0.000 Cl
ATOM     29  C   UNL     1       4.275  16.516  19.507  0.00  0.00    +0.000 A 
ATOM     30  C   UNL     1       3.315  17.230  20.199  0.00  0.00    +0.000 A 
ATOM     31  C   UNL     1       2.136  16.594  20.556  0.00  0.00    +0.000 A 
ATOM     32  C   UNL     1       1.895  15.231  20.255  0.00  0.00    +0.000 A 
BRANCH  26  34
ATOM     33  C   UNL     1       2.250  12.765  18.023  0.00  0.00    +0.000 C 
ATOM     34  O   UNL     1       2.614  13.155  19.350  0.00  0.00    +0.000 OA
ENDBRANCH  26  34
ENDBRANCH  22  32
ENDBRANCH   1  24
BRANCH   3  35
ATOM     35  C   UNL     1      -3.731  15.311  24.363  0.00  0.00    +0.000 C 
ATOM     36  N   UNL     1      -4.433  16.109  24.825  0.00  0.00    +0.000 NA
ENDBRANCH   3  35
TORSDOF 7
ENDMDL
MODEL 8
REMARK VINA RESULT:      -6.5      3.718      5.973
REMARK  Name = 
REMARK  8 active torsions:
REMARK  status: ('A' for Active; 'I' for Inactive)
REMARK    1  A    between atoms: C_1  and  O_2
REMARK    2  A    between atoms: O_2  and  C_3
REMARK    3  A    between atoms: C_9  and  C_10
REMARK    4  A    between atoms: N_12  and  C_13
REMARK    5  A    between atoms: C_15  and  C_16
REMARK    6  A    between atoms: C_20  and  N_21
REMARK    7  A    between atoms: C_24  and  O_25
REMARK    8  A    between atoms: O_25  and  C_26
REMARK                            x       y       z     vdW  Elec       q    Type
REMARK                         _______ _______ _______ _____ _____    ______ ____
ROOT
ATOM      1  C   UNL     1      -0.419  13.522  22.355  0.00  0.00    +0.000 A 
ATOM      2  C   UNL     1      -1.231  14.562  22.857  0.00  0.00    +0.000 A 
ATOM      3  C   UNL     1      -2.463  14.302  23.461  0.00  0.00    +0.000 A 
ATOM      4  C   UNL     1      -2.907  12.990  23.562  0.00  0.00    +0.000 A 
ATOM      5  C   UNL     1      -2.112  11.952  23.074  0.00  0.00    +0.000 A 
ATOM      6  C   UNL     1      -0.855  12.175  22.471  0.00  0.00    +0.000 A 
ENDROOT
BRANCH   6   7
ATOM      7  N   UNL     1      -0.100  11.080  22.050  0.00  0.00    +0.000 N 
ATOM      8  C   UNL     1       0.369  10.972  20.675  0.00  0.00    +0.000 C 
ATOM      9  C   UNL     1      -0.260   9.745  20.031  0.00  0.00    +0.000 C 
ATOM     10  C   UNL     1       0.113   8.472  20.802  0.00  0.00    +0.000 C 
ATOM     11  C   UNL     1      -0.367   8.620  22.250  0.00  0.00    +0.000 C 
ATOM     12  C   UNL     1       0.113   9.912  22.900  0.00  0.00    +0.000 C 
BRANCH  10  13
ATOM     13  O   UNL     1       1.533   8.240  20.815  0.00  0.00    +0.000 OA
BRANCH  13  14
ATOM     14  C   UNL     1       2.069   7.471  19.812  0.00  0.00    +0.000 A 
ATOM     15  C   UNL     1       2.549   7.966  18.597  0.00  0.00    +0.000 A 
ATOM     16  C   UNL     1       3.124   7.108  17.657  0.00  0.00    +0.000 A 
ATOM     17  C   UNL     1       3.197   5.747  17.921  0.00  0.00    +0.000 A 
ATOM     18  F   UNL     1       3.737   4.931  17.008  0.00  0.00    +0.000 F 
ATOM     19  C   UNL     1       2.716   5.225  19.113  0.00  0.00    +0.000 A 
ATOM     20  C   UNL     1       2.167   6.091  20.055  0.00  0.00    +0.000 A 
ATOM     21  F   UNL     1       1.710   5.578  21.208  0.00  0.00    +0.000 F 
ENDBRANCH  13  14
ENDBRANCH  10  13
ENDBRANCH   6   7
BRANCH   1  24
ATOM     22  C   UNL     1       0.893  14.346  20.393  0.00  0.00    +0.000 C 
ATOM     23  O   UNL     1      -0.082  14.598  19.690  0.00  0.00    +0.000 OA
ATOM     24  N   UNL     1       0.797  13.818  21.666  0.00  0.00    +0.000 N 
ATOM     25  H   UNL     1       1.647  13.744  22.214  0.00  0.00    +0.000 HD
BRANCH  22  32
ATOM     26  C   UNL     1       3.487  14.758  20.539  0.00  0.00    +0.000 A 
ATOM     27  C   UNL     1       4.655  15.060  19.789  0.00  0.00    +0.000 A 
ATOM     28 CL   UNL     1       6.285  15.029  20.384  0.00  0.00    +0.000 Cl
ATOM     29  C   UNL     1       4.584  15.363  18.422  0.00  0.00    +0.000 A 
ATOM     30  C   UNL     1       3.374  15.342  17.754  0.00  0.00    +0.000 A 
ATOM     31  C   UNL     1       2.228  15.000  18.455  0.00  0.00    +0.000 A 
ATOM     32  C   UNL     1       2.255  14.696  19.838  0.00  0.00    +0.000 A 
BRANCH  26  34
ATOM     33  C   UNL     1       3.792  15.526  22.800  0.00  0.00    +0.000 C 
ATOM     34  O   UNL     1       3.441  14.483  21.886  0.00  0.00    +0.000 OA
ENDBRANCH  26  34
ENDBRANCH  22  32
ENDBRANCH   1  24
BRANCH   3  35
ATOM     35  C   UNL     1      -3.272  15.377  23.961  0.00  0.00    +0.000 C 
ATOM     36  N   UNL     1      -3.950  16.228  24.357  0.00  0.00    +0.000 NA
ENDBRANCH   3  35
TORSDOF 7
ENDMDL
MODEL 9
REMARK VINA RESULT:      -6.5      4.266      7.496
REMARK  Name = 
REMARK  8 active torsions:
REMARK  status: ('A' for Active; 'I' for Inactive)
REMARK    1  A    between atoms: C_1  and  O_2
REMARK    2  A    between atoms: O_2  and  C_3
REMARK    3  A    between atoms: C_9  and  C_10
REMARK    4  A    between atoms: N_12  and  C_13
REMARK    5  A    between atoms: C_15  and  C_16
REMARK    6  A    between atoms: C_20  and  N_21
REMARK    7  A    between atoms: C_24  and  O_25
REMARK    8  A    between atoms: O_25  and  C_26
REMARK                            x       y       z     vdW  Elec       q    Type
REMARK                         _______ _______ _______ _____ _____    ______ ____
ROOT
ATOM      1  C   UNL     1      -2.190  12.960  21.835  0.00  0.00    +0.000 A 
ATOM      2  C   UNL     1      -3.417  12.630  22.450  0.00  0.00    +0.000 A 
ATOM      3  C   UNL     1      -4.274  13.615  22.947  0.00  0.00    +0.000 A 
ATOM      4  C   UNL     1      -3.909  14.950  22.843  0.00  0.00    +0.000 A 
ATOM      5  C   UNL     1      -2.700  15.290  22.233  0.00  0.00    +0.000 A 
ATOM      6  C   UNL     1      -1.815  14.324  21.706  0.00  0.00    +0.000 A 
ENDROOT
BRANCH   6   7
ATOM      7  N   UNL     1      -0.649  14.747  21.070  0.00  0.00    +0.000 N 
ATOM      8  C   UNL     1      -0.673  15.236  19.697  0.00  0.00    +0.000 C 
ATOM      9  C   UNL     1       0.164  14.310  18.825  0.00  0.00    +0.000 C 
ATOM     10  C   UNL     1       1.614  14.255  19.324  0.00  0.00    +0.000 C 
ATOM     11  C   UNL     1       1.612  13.763  20.776  0.00  0.00    +0.000 C 
ATOM     12  C   UNL     1       0.671  14.566  21.667  0.00  0.00    +0.000 C 
BRANCH  10  13
ATOM     13  O   UNL     1       2.254  15.543  19.281  0.00  0.00    +0.000 OA
BRANCH  13  14
ATOM     14  C   UNL     1       3.589  15.587  18.967  0.00  0.00    +0.000 A 
ATOM     15  C   UNL     1       4.266  14.617  18.223  0.00  0.00    +0.000 A 
ATOM     16  C   UNL     1       5.618  14.775  17.912  0.00  0.00    +0.000 A 
ATOM     17  C   UNL     1       6.304  15.895  18.365  0.00  0.00    +0.000 A 
ATOM     18  F   UNL     1       7.602  16.030  18.073  0.00  0.00    +0.000 F 
ATOM     19  C   UNL     1       5.661  16.867  19.117  0.00  0.00    +0.000 A 
ATOM     20  C   UNL     1       4.307  16.713  19.402  0.00  0.00    +0.000 A 
ATOM     21  F   UNL     1       3.692  17.664  20.124  0.00  0.00    +0.000 F 
ENDBRANCH  13  14
ENDBRANCH  10  13
ENDBRANCH   6   7
BRANCH   1  24
ATOM     22  C   UNL     1      -1.268  11.352  20.157  0.00  0.00    +0.000 C 
ATOM     23  O   UNL     1      -2.058  11.642  19.262  0.00  0.00    +0.000 OA
ATOM     24  N   UNL     1      -1.291  11.934  21.411  0.00  0.00    +0.000 N 
ATOM     25  H   UNL     1      -0.536  11.712  22.049  0.00  0.00    +0.000 HD
BRANCH  22  32
ATOM     26  C   UNL     1       0.239   9.246  20.617  0.00  0.00    +0.000 A 
ATOM     27  C   UNL     1       1.242   8.400  20.074  0.00  0.00    +0.000 A 
ATOM     28 CL   UNL     1       1.806   6.912  20.767  0.00  0.00    +0.000 Cl
ATOM     29  C   UNL     1       1.843   8.682  18.839  0.00  0.00    +0.000 A 
ATOM     30  C   UNL     1       1.449   9.779  18.095  0.00  0.00    +0.000 A 
ATOM     31  C   UNL     1       0.437  10.590  18.583  0.00  0.00    +0.000 A 
ATOM     32  C   UNL     1      -0.190  10.345  19.829  0.00  0.00    +0.000 A 
BRANCH  26  34
ATOM     33  C   UNL     1       0.354   9.376  23.019  0.00  0.00    +0.000 C 
ATOM     34  O   UNL     1      -0.386   9.080  21.832  0.00  0.00    +0.000 OA
ENDBRANCH  26  34
ENDBRANCH  22  32
ENDBRANCH   1  24
BRANCH   3  35
ATOM     35  C   UNL     1      -5.515  13.253  23.572  0.00  0.00    +0.000 C 
ATOM     36  N   UNL     1      -6.501  12.941  24.093  0.00  0.00    +0.000 NA
ENDBRANCH   3  35
TORSDOF 7
ENDMDL
