MODEL 1
REMARK VINA RESULT:      -7.7      0.000      0.000
REMARK  Name = 
REMARK  3 active torsions:
REMARK  status: ('A' for Active; 'I' for Inactive)
REMARK    1  A    between atoms: C_1  and  C_2
REMARK    2  A    between atoms: C_6  and  C_8
REMARK    3  A    between atoms: C_8  and  N_9
REMARK                            x       y       z     vdW  Elec       q    Type
REMARK                         _______ _______ _______ _____ _____    ______ ____
ROOT
ATOM      1  C   UNL     1       1.348   2.643  21.537  0.00  0.00    +0.000 C 
ATOM      2  C   UNL     1       2.474   3.186  20.760  0.00  0.00    +0.000 A 
ATOM      3  C   UNL     1       3.529   2.654  20.058  0.00  0.00    +0.000 A 
ATOM      4  C   UNL     1       4.232   3.779  19.557  0.00  0.00    +0.000 A 
ATOM      5  N   UNL     1       5.388   3.719  18.787  0.00  0.00    +0.000 N 
ATOM      6  C   UNL     1       6.037   4.849  18.312  0.00  0.00    +0.000 C 
ATOM      7  O   UNL     1       5.671   6.011  18.483  0.00  0.00    +0.000 OA
ATOM      8  N   UNL     1       3.627   4.906  19.936  0.00  0.00    +0.000 NA
ATOM      9  O   UNL     1       2.534   4.540  20.684  0.00  0.00    +0.000 OA
ATOM     10  H   UNL     1       5.748   2.796  18.590  0.00  0.00    +0.000 HD
ENDROOT
BRANCH   6  11
ATOM     11  C   UNL     1       7.273   4.567  17.489  0.00  0.00    +0.000 C 
BRANCH  11  12
ATOM     12  N   UNL     1       6.982   4.495  16.064  0.00  0.00    +0.000 N 
ATOM     13  C   UNL     1       6.037   3.719  15.448  0.00  0.00    +0.000 A 
ATOM     14  C   UNL     1       6.191   3.913  14.096  0.00  0.00    +0.000 A 
ATOM     15  C   UNL     1       7.277   4.808  13.988  0.00  0.00    +0.000 A 
ATOM     16  N   UNL     1       7.883   5.340  12.779  0.00  0.00    +0.000 N 
ATOM     17  O   UNL     1       7.384   4.962  11.707  0.00  0.00    +0.000 OA
ATOM     18  O   UNL     1       8.840   6.117  12.888  0.00  0.00    +0.000 OA
ATOM     19  N   UNL     1       7.769   5.163  15.191  0.00  0.00    +0.000 NA
ENDBRANCH  11  12
ENDBRANCH   6  11
TORSDOF 2
ENDMDL
MODEL 2
REMARK VINA RESULT:      -7.7      1.867      6.766
REMARK  Name = 
REMARK  3 active torsions:
REMARK  status: ('A' for Active; 'I' for Inactive)
REMARK    1  A    between atoms: C_1  and  C_2
REMARK    2  A    between atoms: C_6  and  C_8
REMARK    3  A    between atoms: C_8  and  N_9
REMARK                            x       y       z     vdW  Elec       q    Type
REMARK                         _______ _______ _______ _____ _____    ______ ____
ROOT
ATOM      1  C   UNL     1       6.730   3.768  12.074  0.00  0.00    +0.000 C 
ATOM      2  C   UNL     1       6.699   4.195  13.482  0.00  0.00    +0.000 A 
ATOM      3  C   UNL     1       6.011   3.814  14.609  0.00  0.00    +0.000 A 
ATOM      4  C   UNL     1       6.489   4.673  15.631  0.00  0.00    +0.000 A 
ATOM      5  N   UNL     1       6.061   4.653  16.953  0.00  0.00    +0.000 N 
ATOM      6  C   UNL     1       6.565   5.510  17.921  0.00  0.00    +0.000 C 
ATOM      7  O   UNL     1       7.445   6.351  17.747  0.00  0.00    +0.000 OA
ATOM      8  N   UNL     1       7.407   5.507  15.139  0.00  0.00    +0.000 NA
ATOM      9  O   UNL     1       7.539   5.213  13.804  0.00  0.00    +0.000 OA
ATOM     10  H   UNL     1       5.345   3.980  17.184  0.00  0.00    +0.000 HD
ENDROOT
BRANCH   6  11
ATOM     11  C   UNL     1       5.971   5.323  19.299  0.00  0.00    +0.000 C 
BRANCH  11  12
ATOM     12  N   UNL     1       4.548   5.018  19.249  0.00  0.00    +0.000 N 
ATOM     13  C   UNL     1       3.505   5.884  19.443  0.00  0.00    +0.000 A 
ATOM     14  C   UNL     1       2.356   5.132  19.392  0.00  0.00    +0.000 A 
ATOM     15  C   UNL     1       2.807   3.810  19.189  0.00  0.00    +0.000 A 
ATOM     16  N   UNL     1       2.011   2.600  19.079  0.00  0.00    +0.000 N 
ATOM     17  O   UNL     1       0.781   2.744  19.174  0.00  0.00    +0.000 OA
ATOM     18  O   UNL     1       2.592   1.521  18.904  0.00  0.00    +0.000 OA
ATOM     19  N   UNL     1       4.149   3.734  19.106  0.00  0.00    +0.000 NA
ENDBRANCH  11  12
ENDBRANCH   6  11
TORSDOF 2
ENDMDL
MODEL 3
REMARK VINA RESULT:      -7.4      1.850      6.554
REMARK  Name = 
REMARK  3 active torsions:
REMARK  status: ('A' for Active; 'I' for Inactive)
REMARK    1  A    between atoms: C_1  and  C_2
REMARK    2  A    between atoms: C_6  and  C_8
REMARK    3  A    between atoms: C_8  and  N_9
REMARK                            x       y       z     vdW  Elec       q    Type
REMARK                         _______ _______ _______ _____ _____    ______ ____
ROOT
ATOM      1  C   UNL     1       6.822   3.747  12.130  0.00  0.00    +0.000 C 
ATOM      2  C   UNL     1       6.675   4.146  13.540  0.00  0.00    +0.000 A 
ATOM      3  C   UNL     1       6.213   3.545  14.687  0.00  0.00    +0.000 A 
ATOM      4  C   UNL     1       6.363   4.532  15.695  0.00  0.00    +0.000 A 
ATOM      5  N   UNL     1       6.012   4.366  17.029  0.00  0.00    +0.000 N 
ATOM      6  C   UNL     1       6.185   5.359  17.983  0.00  0.00    +0.000 C 
ATOM      7  O   UNL     1       6.680   6.467  17.782  0.00  0.00    +0.000 OA
ATOM      8  N   UNL     1       6.885   5.644  15.176  0.00  0.00    +0.000 NA
ATOM      9  O   UNL     1       7.079   5.408  13.837  0.00  0.00    +0.000 OA
ATOM     10  H   UNL     1       5.609   3.475  17.281  0.00  0.00    +0.000 HD
ENDROOT
BRANCH   6  11
ATOM     11  C   UNL     1       5.745   4.977  19.378  0.00  0.00    +0.000 C 
BRANCH  11  12
ATOM     12  N   UNL     1       4.583   4.101  19.368  0.00  0.00    +0.000 N 
ATOM     13  C   UNL     1       4.467   2.868  19.952  0.00  0.00    +0.000 A 
ATOM     14  C   UNL     1       3.230   2.382  19.601  0.00  0.00    +0.000 A 
ATOM     15  C   UNL     1       2.676   3.385  18.777  0.00  0.00    +0.000 A 
ATOM     16  N   UNL     1       1.386   3.385  18.110  0.00  0.00    +0.000 N 
ATOM     17  O   UNL     1       0.680   2.377  18.286  0.00  0.00    +0.000 OA
ATOM     18  O   UNL     1       1.074   4.364  17.419  0.00  0.00    +0.000 OA
ATOM     19  N   UNL     1       3.503   4.438  18.626  0.00  0.00    +0.000 NA
ENDBRANCH  11  12
ENDBRANCH   6  11
TORSDOF 2
ENDMDL
MODEL 4
REMARK VINA RESULT:      -7.0      1.189      1.275
REMARK  Name = 
REMARK  3 active torsions:
REMARK  status: ('A' for Active; 'I' for Inactive)
REMARK    1  A    between atoms: C_1  and  C_2
REMARK    2  A    between atoms: C_6  and  C_8
REMARK    3  A    between atoms: C_8  and  N_9
REMARK                            x       y       z     vdW  Elec       q    Type
REMARK                         _______ _______ _______ _____ _____    ______ ____
ROOT
ATOM      1  C   UNL     1       1.244   2.507  21.930  0.00  0.00    +0.000 C 
ATOM      2  C   UNL     1       2.310   3.062  21.081  0.00  0.00    +0.000 A 
ATOM      3  C   UNL     1       2.423   4.125  20.216  0.00  0.00    +0.000 A 
ATOM      4  C   UNL     1       3.756   4.058  19.736  0.00  0.00    +0.000 A 
ATOM      5  N   UNL     1       4.318   4.940  18.821  0.00  0.00    +0.000 N 
ATOM      6  C   UNL     1       5.632   4.840  18.387  0.00  0.00    +0.000 C 
ATOM      7  O   UNL     1       6.450   4.002  18.764  0.00  0.00    +0.000 OA
ATOM      8  N   UNL     1       4.392   3.023  20.288  0.00  0.00    +0.000 NA
ATOM      9  O   UNL     1       3.496   2.402  21.123  0.00  0.00    +0.000 OA
ATOM     10  H   UNL     1       3.714   5.669  18.470  0.00  0.00    +0.000 HD
ENDROOT
BRANCH   6  11
ATOM     11  C   UNL     1       6.051   5.901  17.395  0.00  0.00    +0.000 C 
BRANCH  11  12
ATOM     12  N   UNL     1       6.108   5.389  16.033  0.00  0.00    +0.000 N 
ATOM     13  C   UNL     1       5.279   4.464  15.457  0.00  0.00    +0.000 A 
ATOM     14  C   UNL     1       5.771   4.226  14.196  0.00  0.00    +0.000 A 
ATOM     15  C   UNL     1       6.922   5.038  14.107  0.00  0.00    +0.000 A 
ATOM     16  N   UNL     1       7.844   5.163  12.991  0.00  0.00    +0.000 N 
ATOM     17  O   UNL     1       7.590   4.471  11.992  0.00  0.00    +0.000 OA
ATOM     18  O   UNL     1       8.809   5.931  13.102  0.00  0.00    +0.000 OA
ATOM     19  N   UNL     1       7.136   5.748  15.231  0.00  0.00    +0.000 NA
ENDBRANCH  11  12
ENDBRANCH   6  11
TORSDOF 2
ENDMDL
MODEL 5
REMARK VINA RESULT:      -7.0      1.622      7.151
REMARK  Name = 
REMARK  3 active torsions:
REMARK  status: ('A' for Active; 'I' for Inactive)
REMARK    1  A    between atoms: C_1  and  C_2
REMARK    2  A    between atoms: C_6  and  C_8
REMARK    3  A    between atoms: C_8  and  N_9
REMARK                            x       y       z     vdW  Elec       q    Type
REMARK                         _______ _______ _______ _____ _____    ______ ____
ROOT
ATOM      1  C   UNL     1       7.151   4.282  11.972  0.00  0.00    +0.000 C 
ATOM      2  C   UNL     1       7.054   4.527  13.420  0.00  0.00    +0.000 A 
ATOM      3  C   UNL     1       6.380   3.950  14.471  0.00  0.00    +0.000 A 
ATOM      4  C   UNL     1       6.758   4.716  15.604  0.00  0.00    +0.000 A 
ATOM      5  N   UNL     1       6.308   4.495  16.900  0.00  0.00    +0.000 N 
ATOM      6  C   UNL     1       6.712   5.266  17.980  0.00  0.00    +0.000 C 
ATOM      7  O   UNL     1       7.516   6.197  17.935  0.00  0.00    +0.000 OA
ATOM      8  N   UNL     1       7.606   5.682  15.245  0.00  0.00    +0.000 NA
ATOM      9  O   UNL     1       7.790   5.568  13.889  0.00  0.00    +0.000 OA
ATOM     10  H   UNL     1       5.651   3.738  17.024  0.00  0.00    +0.000 HD
ENDROOT
BRANCH   6  11
ATOM     11  C   UNL     1       6.110   4.859  19.306  0.00  0.00    +0.000 C 
BRANCH  11  12
ATOM     12  N   UNL     1       4.657   4.946  19.301  0.00  0.00    +0.000 N 
ATOM     13  C   UNL     1       3.886   5.933  18.748  0.00  0.00    +0.000 A 
ATOM     14  C   UNL     1       2.582   5.640  19.071  0.00  0.00    +0.000 A 
ATOM     15  C   UNL     1       2.666   4.465  19.849  0.00  0.00    +0.000 A 
ATOM     16  N   UNL     1       1.583   3.725  20.473  0.00  0.00    +0.000 N 
ATOM     17  O   UNL     1       0.440   4.182  20.302  0.00  0.00    +0.000 OA
ATOM     18  O   UNL     1       1.856   2.710  21.126  0.00  0.00    +0.000 OA
ATOM     19  N   UNL     1       3.935   4.039  19.998  0.00  0.00    +0.000 NA
ENDBRANCH  11  12
ENDBRANCH   6  11
TORSDOF 2
ENDMDL
MODEL 6
REMARK VINA RESULT:      -6.9      2.138      6.803
REMARK  Name = 
REMARK  3 active torsions:
REMARK  status: ('A' for Active; 'I' for Inactive)
REMARK    1  A    between atoms: C_1  and  C_2
REMARK    2  A    between atoms: C_6  and  C_8
REMARK    3  A    between atoms: C_8  and  N_9
REMARK                            x       y       z     vdW  Elec       q    Type
REMARK                         _______ _______ _______ _____ _____    ______ ____
ROOT
ATOM      1  C   UNL     1       7.368   4.766  12.059  0.00  0.00    +0.000 C 
ATOM      2  C   UNL     1       7.002   4.692  13.483  0.00  0.00    +0.000 A 
ATOM      3  C   UNL     1       6.028   4.055  14.215  0.00  0.00    +0.000 A 
ATOM      4  C   UNL     1       6.276   4.441  15.557  0.00  0.00    +0.000 A 
ATOM      5  N   UNL     1       5.524   4.038  16.653  0.00  0.00    +0.000 N 
ATOM      6  C   UNL     1       5.810   4.435  17.951  0.00  0.00    +0.000 C 
ATOM      7  O   UNL     1       6.751   5.151  18.291  0.00  0.00    +0.000 OA
ATOM      8  N   UNL     1       7.334   5.252  15.614  0.00  0.00    +0.000 NA
ATOM      9  O   UNL     1       7.786   5.410  14.327  0.00  0.00    +0.000 OA
ATOM     10  H   UNL     1       4.736   3.435  16.461  0.00  0.00    +0.000 HD
ENDROOT
BRANCH   6  11
ATOM     11  C   UNL     1       4.874   3.882  19.001  0.00  0.00    +0.000 C 
BRANCH  11  12
ATOM     12  N   UNL     1       3.872   4.854  19.414  0.00  0.00    +0.000 N 
ATOM     13  C   UNL     1       2.913   4.700  20.380  0.00  0.00    +0.000 A 
ATOM     14  C   UNL     1       2.144   5.838  20.353  0.00  0.00    +0.000 A 
ATOM     15  C   UNL     1       2.699   6.617  19.316  0.00  0.00    +0.000 A 
ATOM     16  N   UNL     1       2.260   7.918  18.839  0.00  0.00    +0.000 N 
ATOM     17  O   UNL     1       1.275   8.407  19.417  0.00  0.00    +0.000 OA
ATOM     18  O   UNL     1       2.878   8.447  17.906  0.00  0.00    +0.000 OA
ATOM     19  N   UNL     1       3.754   6.016  18.733  0.00  0.00    +0.000 NA
ENDBRANCH  11  12
ENDBRANCH   6  11
TORSDOF 2
ENDMDL
MODEL 7
REMARK VINA RESULT:      -6.7      3.398      4.419
REMARK  Name = 
REMARK  3 active torsions:
REMARK  status: ('A' for Active; 'I' for Inactive)
REMARK    1  A    between atoms: C_1  and  C_2
REMARK    2  A    between atoms: C_6  and  C_8
REMARK    3  A    between atoms: C_8  and  N_9
REMARK                            x       y       z     vdW  Elec       q    Type
REMARK                         _______ _______ _______ _____ _____    ______ ____
ROOT
ATOM      1  C   UNL     1       0.866  10.673  18.839  0.00  0.00    +0.000 C 
ATOM      2  C   UNL     1       1.378   9.320  19.116  0.00  0.00    +0.000 A 
ATOM      3  C   UNL     1       2.144   8.403  18.436  0.00  0.00    +0.000 A 
ATOM      4  C   UNL     1       2.245   7.296  19.317  0.00  0.00    +0.000 A 
ATOM      5  N   UNL     1       2.929   6.118  19.041  0.00  0.00    +0.000 N 
ATOM      6  C   UNL     1       3.007   5.064  19.939  0.00  0.00    +0.000 C 
ATOM      7  O   UNL     1       2.520   5.046  21.069  0.00  0.00    +0.000 OA
ATOM      8  N   UNL     1       1.584   7.547  20.449  0.00  0.00    +0.000 NA
ATOM      9  O   UNL     1       1.044   8.804  20.326  0.00  0.00    +0.000 OA
ATOM     10  H   UNL     1       3.369   6.056  18.134  0.00  0.00    +0.000 HD
ENDROOT
BRANCH   6  11
ATOM     11  C   UNL     1       3.803   3.875  19.449  0.00  0.00    +0.000 C 
BRANCH  11  12
ATOM     12  N   UNL     1       4.478   4.147  18.188  0.00  0.00    +0.000 N 
ATOM     13  C   UNL     1       4.229   3.572  16.971  0.00  0.00    +0.000 A 
ATOM     14  C   UNL     1       5.170   4.069  16.102  0.00  0.00    +0.000 A 
ATOM     15  C   UNL     1       5.968   4.923  16.894  0.00  0.00    +0.000 A 
ATOM     16  N   UNL     1       7.128   5.697  16.487  0.00  0.00    +0.000 N 
ATOM     17  O   UNL     1       7.460   5.598  15.294  0.00  0.00    +0.000 OA
ATOM     18  O   UNL     1       7.705   6.391  17.334  0.00  0.00    +0.000 OA
ATOM     19  N   UNL     1       5.552   4.970  18.174  0.00  0.00    +0.000 NA
ENDBRANCH  11  12
ENDBRANCH   6  11
TORSDOF 2
ENDMDL
MODEL 8
REMARK VINA RESULT:      -6.6      2.282      6.742
REMARK  Name = 
REMARK  3 active torsions:
REMARK  status: ('A' for Active; 'I' for Inactive)
REMARK    1  A    between atoms: C_1  and  C_2
REMARK    2  A    between atoms: C_6  and  C_8
REMARK    3  A    between atoms: C_8  and  N_9
REMARK                            x       y       z     vdW  Elec       q    Type
REMARK                         _______ _______ _______ _____ _____    ______ ____
ROOT
ATOM      1  C   UNL     1       6.618   2.793  11.808  0.00  0.00    +0.000 C 
ATOM      2  C   UNL     1       6.354   3.663  12.966  0.00  0.00    +0.000 A 
ATOM      3  C   UNL     1       5.332   3.805  13.875  0.00  0.00    +0.000 A 
ATOM      4  C   UNL     1       5.752   4.858  14.727  0.00  0.00    +0.000 A 
ATOM      5  N   UNL     1       5.021   5.354  15.799  0.00  0.00    +0.000 N 
ATOM      6  C   UNL     1       5.477   6.382  16.612  0.00  0.00    +0.000 C 
ATOM      7  O   UNL     1       6.564   6.949  16.508  0.00  0.00    +0.000 OA
ATOM      8  N   UNL     1       6.951   5.306  14.348  0.00  0.00    +0.000 NA
ATOM      9  O   UNL     1       7.327   4.566  13.254  0.00  0.00    +0.000 OA
ATOM     10  H   UNL     1       4.118   4.932  15.961  0.00  0.00    +0.000 HD
ENDROOT
BRANCH   6  11
ATOM     11  C   UNL     1       4.533   6.771  17.726  0.00  0.00    +0.000 C 
BRANCH  11  12
ATOM     12  N   UNL     1       3.576   5.718  18.031  0.00  0.00    +0.000 N 
ATOM     13  C   UNL     1       2.225   5.849  18.209  0.00  0.00    +0.000 A 
ATOM     14  C   UNL     1       1.753   4.609  18.568  0.00  0.00    +0.000 A 
ATOM     15  C   UNL     1       2.903   3.791  18.606  0.00  0.00    +0.000 A 
ATOM     16  N   UNL     1       2.989   2.382  18.950  0.00  0.00    +0.000 N 
ATOM     17  O   UNL     1       1.918   1.826  19.246  0.00  0.00    +0.000 OA
ATOM     18  O   UNL     1       4.098   1.833  18.931  0.00  0.00    +0.000 OA
ATOM     19  N   UNL     1       4.023   4.467  18.284  0.00  0.00    +0.000 NA
ENDBRANCH  11  12
ENDBRANCH   6  11
TORSDOF 2
ENDMDL
MODEL 9
REMARK VINA RESULT:      -6.6      3.144      3.901
REMARK  Name = 
REMARK  3 active torsions:
REMARK  status: ('A' for Active; 'I' for Inactive)
REMARK    1  A    between atoms: C_1  and  C_2
REMARK    2  A    between atoms: C_6  and  C_8
REMARK    3  A    between atoms: C_8  and  N_9
REMARK                            x       y       z     vdW  Elec       q    Type
REMARK                         _______ _______ _______ _____ _____    ______ ____
ROOT
ATOM      1  C   UNL     1       0.838  10.317  19.105  0.00  0.00    +0.000 C 
ATOM      2  C   UNL     1       1.471   8.987  19.109  0.00  0.00    +0.000 A 
ATOM      3  C   UNL     1       2.102   8.198  18.177  0.00  0.00    +0.000 A 
ATOM      4  C   UNL     1       2.464   7.024  18.886  0.00  0.00    +0.000 A 
ATOM      5  N   UNL     1       3.124   5.932  18.335  0.00  0.00    +0.000 N 
ATOM      6  C   UNL     1       3.464   4.807  19.072  0.00  0.00    +0.000 C 
ATOM      7  O   UNL     1       3.257   4.647  20.274  0.00  0.00    +0.000 OA
ATOM      8  N   UNL     1       2.074   7.117  20.159  0.00  0.00    +0.000 NA
ATOM      9  O   UNL     1       1.456   8.335  20.300  0.00  0.00    +0.000 OA
ATOM     10  H   UNL     1       3.343   5.989  17.351  0.00  0.00    +0.000 HD
ENDROOT
BRANCH   6  11
ATOM     11  C   UNL     1       4.183   3.733  18.287  0.00  0.00    +0.000 C 
BRANCH  11  12
ATOM     12  N   UNL     1       5.323   4.260  17.551  0.00  0.00    +0.000 N 
ATOM     13  C   UNL     1       6.331   5.051  18.033  0.00  0.00    +0.000 A 
ATOM     14  C   UNL     1       7.126   5.373  16.960  0.00  0.00    +0.000 A 
ATOM     15  C   UNL     1       6.502   4.750  15.858  0.00  0.00    +0.000 A 
ATOM     16  N   UNL     1       6.910   4.779  14.464  0.00  0.00    +0.000 N 
ATOM     17  O   UNL     1       7.936   5.432  14.208  0.00  0.00    +0.000 OA
ATOM     18  O   UNL     1       6.226   4.169  13.632  0.00  0.00    +0.000 OA
ATOM     19  N   UNL     1       5.394   4.072  16.213  0.00  0.00    +0.000 NA
ENDBRANCH  11  12
ENDBRANCH   6  11
TORSDOF 2
ENDMDL
