MODEL 1
REMARK VINA RESULT:      -7.2      0.000      0.000
REMARK  Name = 
REMARK  10 active torsions:
REMARK  status: ('A' for Active; 'I' for Inactive)
REMARK    1  A    between atoms: N_3  and  C_4
REMARK    2  A    between atoms: C_4  and  C_6
REMARK    3  A    between atoms: C_6  and  C_7
REMARK    4  A    between atoms: C_7  and  C_8
REMARK    5  A    between atoms: C_8  and  N_9
REMARK    6  A    between atoms: C_10  and  C_12
REMARK    7  A    between atoms: N_21  and  C_22
REMARK    8  A    between atoms: C_22  and  C_23
REMARK    9  A    between atoms: C_23  and  C_24
REMARK   10  A    between atoms: C_24  and  C_25
REMARK                            x       y       z     vdW  Elec       q    Type
REMARK                         _______ _______ _______ _____ _____    ______ ____
ROOT
ATOM      1  C   UNL     1       3.238   2.105  18.177  0.00  0.00    +0.000 C 
ATOM      2  O   UNL     1       3.542   0.919  18.306  0.00  0.00    +0.000 OA
ENDROOT
BRANCH   1   5
ATOM      3  N   UNL     1       5.088   2.176  20.304  0.00  0.00    +0.000 N 
ATOM      4  C   UNL     1       4.918   3.147  19.371  0.00  0.00    +0.000 C 
ATOM      5  N   UNL     1       4.067   3.177  18.401  0.00  0.00    +0.000 NA
ATOM      6  N   UNL     1       5.801   4.157  19.604  0.00  0.00    +0.000 N 
ATOM      7  H   UNL     1       4.536   1.340  20.096  0.00  0.00    +0.000 HD
ATOM      8  H   UNL     1       6.047   1.934  20.510  0.00  0.00    +0.000 HD
ATOM      9  H   UNL     1       6.396   4.061  20.416  0.00  0.00    +0.000 HD
BRANCH   6  10
ATOM     10  C   UNL     1       5.580   5.525  19.178  0.00  0.00    +0.000 C 
BRANCH  10  11
ATOM     11  C   UNL     1       6.854   6.124  18.596  0.00  0.00    +0.000 C 
BRANCH  11  12
ATOM     12  C   UNL     1       6.641   6.681  17.187  0.00  0.00    +0.000 C 
BRANCH  12  13
ATOM     13  C   UNL     1       6.238   5.609  16.235  0.00  0.00    +0.000 A 
ATOM     14  C   UNL     1       5.385   5.682  15.154  0.00  0.00    +0.000 A 
ATOM     15  N   UNL     1       5.395   4.429  14.609  0.00  0.00    +0.000 N 
ATOM     16  C   UNL     1       6.229   3.655  15.363  0.00  0.00    +0.000 A 
ATOM     17  N   UNL     1       6.753   4.338  16.353  0.00  0.00    +0.000 NA
ATOM     18  H   UNL     1       4.886   4.125  13.791  0.00  0.00    +0.000 HD
ENDBRANCH  12  13
ENDBRANCH  11  12
ENDBRANCH  10  11
ENDBRANCH   6  10
ENDBRANCH   1   5
BRANCH   1  19
ATOM     19  C   UNL     1       1.861   2.495  17.676  0.00  0.00    +0.000 C 
BRANCH  19  20
ATOM     20  C   UNL     1       0.774   2.264  18.726  0.00  0.00    +0.000 C 
BRANCH  20  21
ATOM     21  C   UNL     1       1.087   2.943  20.058  0.00  0.00    +0.000 C 
BRANCH  21  22
ATOM     22  N   UNL     1       1.046   4.382  19.925  0.00  0.00    +0.000 N 
ATOM     23  C   UNL     1       1.854   5.229  20.647  0.00  0.00    +0.000 C 
ATOM     24  O   UNL     1       2.655   4.833  21.489  0.00  0.00    +0.000 OA
ATOM     25  H   UNL     1       0.483   4.764  19.180  0.00  0.00    +0.000 HD
BRANCH  23  26
ATOM     26  C   UNL     1       1.696   6.631  20.328  0.00  0.00    +0.000 A 
ATOM     27  C   UNL     1       1.175   7.688  21.054  0.00  0.00    +0.000 A 
ATOM     28  C   UNL     1       1.249   8.863  20.260  0.00  0.00    +0.000 A 
ATOM     29  C   UNL     1       0.872  10.201  20.467  0.00  0.00    +0.000 A 
ATOM     30  C   UNL     1       1.081  11.134  19.450  0.00  0.00    +0.000 A 
ATOM     31  C   UNL     1       1.663  10.749  18.243  0.00  0.00    +0.000 A 
ATOM     32  C   UNL     1       2.051   9.424  18.017  0.00  0.00    +0.000 A 
ATOM     33  C   UNL     1       1.827   8.502  19.046  0.00  0.00    +0.000 A 
ATOM     34  N   UNL     1       2.097   7.154  19.116  0.00  0.00    +0.000 N 
ATOM     35  H   UNL     1       2.527   6.603  18.384  0.00  0.00    +0.000 HD
ENDBRANCH  23  26
ENDBRANCH  21  22
ENDBRANCH  20  21
ENDBRANCH  19  20
ENDBRANCH   1  19
TORSDOF 10
ENDMDL
MODEL 2
REMARK VINA RESULT:      -7.1      6.428      8.677
REMARK  Name = 
REMARK  10 active torsions:
REMARK  status: ('A' for Active; 'I' for Inactive)
REMARK    1  A    between atoms: N_3  and  C_4
REMARK    2  A    between atoms: C_4  and  C_6
REMARK    3  A    between atoms: C_6  and  C_7
REMARK    4  A    between atoms: C_7  and  C_8
REMARK    5  A    between atoms: C_8  and  N_9
REMARK    6  A    between atoms: C_10  and  C_12
REMARK    7  A    between atoms: N_21  and  C_22
REMARK    8  A    between atoms: C_22  and  C_23
REMARK    9  A    between atoms: C_23  and  C_24
REMARK   10  A    between atoms: C_24  and  C_25
REMARK                            x       y       z     vdW  Elec       q    Type
REMARK                         _______ _______ _______ _____ _____    ______ ____
ROOT
ATOM      1  C   UNL     1       7.236   6.812  17.253  0.00  0.00    +0.000 C 
ATOM      2  O   UNL     1       7.747   6.528  16.170  0.00  0.00    +0.000 OA
ENDROOT
BRANCH   1   5
ATOM      3  N   UNL     1       6.479   4.259  18.183  0.00  0.00    +0.000 N 
ATOM      4  C   UNL     1       5.664   5.340  18.088  0.00  0.00    +0.000 C 
ATOM      5  N   UNL     1       5.951   6.515  17.640  0.00  0.00    +0.000 NA
ATOM      6  N   UNL     1       4.421   5.009  18.536  0.00  0.00    +0.000 N 
ATOM      7  H   UNL     1       7.454   4.492  17.978  0.00  0.00    +0.000 HD
ATOM      8  H   UNL     1       6.406   3.733  19.043  0.00  0.00    +0.000 HD
ATOM      9  H   UNL     1       4.283   4.049  18.823  0.00  0.00    +0.000 HD
BRANCH   6  10
ATOM     10  C   UNL     1       3.213   5.691  18.117  0.00  0.00    +0.000 C 
BRANCH  10  11
ATOM     11  C   UNL     1       2.149   4.693  17.680  0.00  0.00    +0.000 C 
BRANCH  11  12
ATOM     12  C   UNL     1       2.461   3.271  18.152  0.00  0.00    +0.000 C 
BRANCH  12  13
ATOM     13  C   UNL     1       2.074   3.076  19.577  0.00  0.00    +0.000 A 
ATOM     14  C   UNL     1       0.814   3.000  20.132  0.00  0.00    +0.000 A 
ATOM     15  N   UNL     1       1.025   2.783  21.464  0.00  0.00    +0.000 N 
ATOM     16  C   UNL     1       2.375   2.740  21.668  0.00  0.00    +0.000 A 
ATOM     17  N   UNL     1       3.035   2.916  20.549  0.00  0.00    +0.000 NA
ATOM     18  H   UNL     1       0.317   2.665  22.175  0.00  0.00    +0.000 HD
ENDBRANCH  12  13
ENDBRANCH  11  12
ENDBRANCH  10  11
ENDBRANCH   6  10
ENDBRANCH   1   5
BRANCH   1  19
ATOM     19  C   UNL     1       8.050   7.501  18.330  0.00  0.00    +0.000 C 
BRANCH  19  20
ATOM     20  C   UNL     1       8.274   8.983  18.029  0.00  0.00    +0.000 C 
BRANCH  20  21
ATOM     21  C   UNL     1       9.132   9.676  19.085  0.00  0.00    +0.000 C 
BRANCH  21  22
ATOM     22  N   UNL     1       9.358  11.062  18.739  0.00  0.00    +0.000 N 
ATOM     23  C   UNL     1      10.086  11.925  19.522  0.00  0.00    +0.000 C 
ATOM     24  O   UNL     1      10.579  11.598  20.598  0.00  0.00    +0.000 OA
ATOM     25  H   UNL     1       9.067  11.365  17.821  0.00  0.00    +0.000 HD
BRANCH  23  26
ATOM     26  C   UNL     1      10.241  13.254  18.972  0.00  0.00    +0.000 A 
ATOM     27  C   UNL     1      11.243  13.823  18.205  0.00  0.00    +0.000 A 
ATOM     28  C   UNL     1      10.900  15.176  17.942  0.00  0.00    +0.000 A 
ATOM     29  C   UNL     1      11.527  16.218  17.237  0.00  0.00    +0.000 A 
ATOM     30  C   UNL     1      10.908  17.468  17.175  0.00  0.00    +0.000 A 
ATOM     31  C   UNL     1       9.679  17.683  17.796  0.00  0.00    +0.000 A 
ATOM     32  C   UNL     1       9.034  16.659  18.499  0.00  0.00    +0.000 A 
ATOM     33  C   UNL     1       9.673  15.415  18.556  0.00  0.00    +0.000 A 
ATOM     34  N   UNL     1       9.292  14.238  19.161  0.00  0.00    +0.000 N 
ATOM     35  H   UNL     1       8.436  14.097  19.683  0.00  0.00    +0.000 HD
ENDBRANCH  23  26
ENDBRANCH  21  22
ENDBRANCH  20  21
ENDBRANCH  19  20
ENDBRANCH   1  19
TORSDOF 10
ENDMDL
MODEL 3
REMARK VINA RESULT:      -7.1      2.283      3.522
REMARK  Name = 
REMARK  10 active torsions:
REMARK  status: ('A' for Active; 'I' for Inactive)
REMARK    1  A    between atoms: N_3  and  C_4
REMARK    2  A    between atoms: C_4  and  C_6
REMARK    3  A    between atoms: C_6  and  C_7
REMARK    4  A    between atoms: C_7  and  C_8
REMARK    5  A    between atoms: C_8  and  N_9
REMARK    6  A    between atoms: C_10  and  C_12
REMARK    7  A    between atoms: N_21  and  C_22
REMARK    8  A    between atoms: C_22  and  C_23
REMARK    9  A    between atoms: C_23  and  C_24
REMARK   10  A    between atoms: C_24  and  C_25
REMARK                            x       y       z     vdW  Elec       q    Type
REMARK                         _______ _______ _______ _____ _____    ______ ____
ROOT
ATOM      1  C   UNL     1       2.551   2.860  18.645  0.00  0.00    +0.000 C 
ATOM      2  O   UNL     1       2.557   1.861  19.364  0.00  0.00    +0.000 OA
ENDROOT
BRANCH   1   5
ATOM      3  N   UNL     1       5.305   3.261  19.101  0.00  0.00    +0.000 N 
ATOM      4  C   UNL     1       4.695   3.271  17.889  0.00  0.00    +0.000 C 
ATOM      5  N   UNL     1       3.439   3.126  17.630  0.00  0.00    +0.000 NA
ATOM      6  N   UNL     1       5.625   3.480  16.916  0.00  0.00    +0.000 N 
ATOM      7  H   UNL     1       4.668   2.981  19.851  0.00  0.00    +0.000 HD
ATOM      8  H   UNL     1       6.171   2.742  19.148  0.00  0.00    +0.000 HD
ATOM      9  H   UNL     1       6.577   3.628  17.223  0.00  0.00    +0.000 HD
BRANCH   6  10
ATOM     10  C   UNL     1       5.313   4.057  15.623  0.00  0.00    +0.000 C 
BRANCH  10  11
ATOM     11  C   UNL     1       5.944   5.435  15.477  0.00  0.00    +0.000 C 
BRANCH  11  12
ATOM     12  C   UNL     1       5.485   6.401  16.571  0.00  0.00    +0.000 C 
BRANCH  12  13
ATOM     13  C   UNL     1       6.635   6.885  17.384  0.00  0.00    +0.000 A 
ATOM     14  C   UNL     1       7.290   6.257  18.422  0.00  0.00    +0.000 A 
ATOM     15  N   UNL     1       8.284   7.119  18.788  0.00  0.00    +0.000 N 
ATOM     16  C   UNL     1       8.198   8.218  17.982  0.00  0.00    +0.000 A 
ATOM     17  N   UNL     1       7.211   8.108  17.125  0.00  0.00    +0.000 NA
ATOM     18  H   UNL     1       8.970   6.974  19.517  0.00  0.00    +0.000 HD
ENDBRANCH  12  13
ENDBRANCH  11  12
ENDBRANCH  10  11
ENDBRANCH   6  10
ENDBRANCH   1   5
BRANCH   1  19
ATOM     19  C   UNL     1       1.467   3.909  18.794  0.00  0.00    +0.000 C 
BRANCH  19  20
ATOM     20  C   UNL     1       1.721   5.135  17.917  0.00  0.00    +0.000 C 
BRANCH  20  21
ATOM     21  C   UNL     1       2.649   6.152  18.579  0.00  0.00    +0.000 C 
BRANCH  21  22
ATOM     22  N   UNL     1       1.890   7.155  19.292  0.00  0.00    +0.000 N 
ATOM     23  C   UNL     1       1.906   8.489  18.960  0.00  0.00    +0.000 C 
ATOM     24  O   UNL     1       2.591   8.943  18.048  0.00  0.00    +0.000 OA
ATOM     25  H   UNL     1       1.231   6.833  19.985  0.00  0.00    +0.000 HD
BRANCH  23  26
ATOM     26  C   UNL     1       1.036   9.320  19.763  0.00  0.00    +0.000 A 
ATOM     27  C   UNL     1       0.342  10.481  19.469  0.00  0.00    +0.000 A 
ATOM     28  C   UNL     1      -0.360  10.896  20.632  0.00  0.00    +0.000 A 
ATOM     29  C   UNL     1      -1.202  11.983  20.923  0.00  0.00    +0.000 A 
ATOM     30  C   UNL     1      -1.737  12.108  22.206  0.00  0.00    +0.000 A 
ATOM     31  C   UNL     1      -1.448  11.164  23.190  0.00  0.00    +0.000 A 
ATOM     32  C   UNL     1      -0.616  10.071  22.922  0.00  0.00    +0.000 A 
ATOM     33  C   UNL     1      -0.084   9.967  21.632  0.00  0.00    +0.000 A 
ATOM     34  N   UNL     1       0.751   9.021  21.080  0.00  0.00    +0.000 N 
ATOM     35  H   UNL     1       1.120   8.211  21.562  0.00  0.00    +0.000 HD
ENDBRANCH  23  26
ENDBRANCH  21  22
ENDBRANCH  20  21
ENDBRANCH  19  20
ENDBRANCH   1  19
TORSDOF 10
ENDMDL
MODEL 4
REMARK VINA RESULT:      -7.0      2.131      2.917
REMARK  Name = 
REMARK  10 active torsions:
REMARK  status: ('A' for Active; 'I' for Inactive)
REMARK    1  A    between atoms: N_3  and  C_4
REMARK    2  A    between atoms: C_4  and  C_6
REMARK    3  A    between atoms: C_6  and  C_7
REMARK    4  A    between atoms: C_7  and  C_8
REMARK    5  A    between atoms: C_8  and  N_9
REMARK    6  A    between atoms: C_10  and  C_12
REMARK    7  A    between atoms: N_21  and  C_22
REMARK    8  A    between atoms: C_22  and  C_23
REMARK    9  A    between atoms: C_23  and  C_24
REMARK   10  A    between atoms: C_24  and  C_25
REMARK                            x       y       z     vdW  Elec       q    Type
REMARK                         _______ _______ _______ _____ _____    ______ ____
ROOT
ATOM      1  C   UNL     1       2.173   2.955  19.288  0.00  0.00    +0.000 C 
ATOM      2  O   UNL     1       1.924   1.874  18.754  0.00  0.00    +0.000 OA
ENDROOT
BRANCH   1   5
ATOM      3  N   UNL     1       4.691   1.781  19.776  0.00  0.00    +0.000 N 
ATOM      4  C   UNL     1       4.479   3.062  19.381  0.00  0.00    +0.000 C 
ATOM      5  N   UNL     1       3.350   3.655  19.177  0.00  0.00    +0.000 NA
ATOM      6  N   UNL     1       5.676   3.693  19.231  0.00  0.00    +0.000 N 
ATOM      7  H   UNL     1       3.828   1.231  19.779  0.00  0.00    +0.000 HD
ATOM      8  H   UNL     1       5.430   1.293  19.290  0.00  0.00    +0.000 HD
ATOM      9  H   UNL     1       6.503   3.157  19.460  0.00  0.00    +0.000 HD
BRANCH   6  10
ATOM     10  C   UNL     1       5.842   5.129  19.337  0.00  0.00    +0.000 C 
BRANCH  10  11
ATOM     11  C   UNL     1       7.189   5.563  18.776  0.00  0.00    +0.000 C 
BRANCH  11  12
ATOM     12  C   UNL     1       7.663   4.655  17.639  0.00  0.00    +0.000 C 
BRANCH  12  13
ATOM     13  C   UNL     1       6.821   4.827  16.423  0.00  0.00    +0.000 A 
ATOM     14  C   UNL     1       6.541   5.977  15.715  0.00  0.00    +0.000 A 
ATOM     15  N   UNL     1       5.754   5.571  14.674  0.00  0.00    +0.000 N 
ATOM     16  C   UNL     1       5.583   4.221  14.786  0.00  0.00    +0.000 A 
ATOM     17  N   UNL     1       6.213   3.742  15.832  0.00  0.00    +0.000 NA
ATOM     18  H   UNL     1       5.371   6.156  13.945  0.00  0.00    +0.000 HD
ENDBRANCH  12  13
ENDBRANCH  11  12
ENDBRANCH  10  11
ENDBRANCH   6  10
ENDBRANCH   1   5
BRANCH   1  19
ATOM     19  C   UNL     1       1.118   3.666  20.111  0.00  0.00    +0.000 C 
BRANCH  19  20
ATOM     20  C   UNL     1       1.719   4.735  21.026  0.00  0.00    +0.000 C 
BRANCH  20  21
ATOM     21  C   UNL     1       2.140   5.991  20.266  0.00  0.00    +0.000 C 
BRANCH  21  22
ATOM     22  N   UNL     1       1.508   7.166  20.822  0.00  0.00    +0.000 N 
ATOM     23  C   UNL     1       1.474   8.380  20.176  0.00  0.00    +0.000 C 
ATOM     24  O   UNL     1       2.006   8.573  19.087  0.00  0.00    +0.000 OA
ATOM     25  H   UNL     1       0.966   7.048  21.665  0.00  0.00    +0.000 HD
BRANCH  23  26
ATOM     26  C   UNL     1       0.746   9.415  20.877  0.00  0.00    +0.000 A 
ATOM     27  C   UNL     1      -0.122   9.363  21.954  0.00  0.00    +0.000 A 
ATOM     28  C   UNL     1      -0.569  10.680  22.240  0.00  0.00    +0.000 A 
ATOM     29  C   UNL     1      -1.446  11.223  23.196  0.00  0.00    +0.000 A 
ATOM     30  C   UNL     1      -1.682  12.599  23.201  0.00  0.00    +0.000 A 
ATOM     31  C   UNL     1      -1.053  13.430  22.276  0.00  0.00    +0.000 A 
ATOM     32  C   UNL     1      -0.173  12.912  21.319  0.00  0.00    +0.000 A 
ATOM     33  C   UNL     1       0.047  11.530  21.325  0.00  0.00    +0.000 A 
ATOM     34  N   UNL     1       0.842  10.745  20.522  0.00  0.00    +0.000 N 
ATOM     35  H   UNL     1       1.423  11.080  19.764  0.00  0.00    +0.000 HD
ENDBRANCH  23  26
ENDBRANCH  21  22
ENDBRANCH  20  21
ENDBRANCH  19  20
ENDBRANCH   1  19
TORSDOF 10
ENDMDL
MODEL 5
REMARK VINA RESULT:      -7.0      3.447      4.716
REMARK  Name = 
REMARK  10 active torsions:
REMARK  status: ('A' for Active; 'I' for Inactive)
REMARK    1  A    between atoms: N_3  and  C_4
REMARK    2  A    between atoms: C_4  and  C_6
REMARK    3  A    between atoms: C_6  and  C_7
REMARK    4  A    between atoms: C_7  and  C_8
REMARK    5  A    between atoms: C_8  and  N_9
REMARK    6  A    between atoms: C_10  and  C_12
REMARK    7  A    between atoms: N_21  and  C_22
REMARK    8  A    between atoms: C_22  and  C_23
REMARK    9  A    between atoms: C_23  and  C_24
REMARK   10  A    between atoms: C_24  and  C_25
REMARK                            x       y       z     vdW  Elec       q    Type
REMARK                         _______ _______ _______ _____ _____    ______ ____
ROOT
ATOM      1  C   UNL     1       5.040   4.521  16.094  0.00  0.00    +0.000 C 
ATOM      2  O   UNL     1       5.032   4.139  14.923  0.00  0.00    +0.000 OA
ENDROOT
BRANCH   1   5
ATOM      3  N   UNL     1       7.626   5.120  15.141  0.00  0.00    +0.000 N 
ATOM      4  C   UNL     1       6.960   5.804  16.106  0.00  0.00    +0.000 C 
ATOM      5  N   UNL     1       5.794   5.552  16.599  0.00  0.00    +0.000 NA
ATOM      6  N   UNL     1       7.726   6.847  16.530  0.00  0.00    +0.000 N 
ATOM      7  H   UNL     1       7.040   4.404  14.702  0.00  0.00    +0.000 HD
ATOM      8  H   UNL     1       8.087   5.688  14.444  0.00  0.00    +0.000 HD
ATOM      9  H   UNL     1       8.644   6.934  16.116  0.00  0.00    +0.000 HD
BRANCH   6  10
ATOM     10  C   UNL     1       7.599   7.450  17.842  0.00  0.00    +0.000 C 
BRANCH  10  11
ATOM     11  C   UNL     1       8.040   8.907  17.815  0.00  0.00    +0.000 C 
BRANCH  11  12
ATOM     12  C   UNL     1       8.974   9.252  18.977  0.00  0.00    +0.000 C 
BRANCH  12  13
ATOM     13  C   UNL     1       9.252  10.714  19.032  0.00  0.00    +0.000 A 
ATOM     14  C   UNL     1       9.517  11.588  17.999  0.00  0.00    +0.000 A 
ATOM     15  N   UNL     1       9.663  12.809  18.594  0.00  0.00    +0.000 N 
ATOM     16  C   UNL     1       9.491  12.638  19.937  0.00  0.00    +0.000 A 
ATOM     17  N   UNL     1       9.243  11.384  20.234  0.00  0.00    +0.000 NA
ATOM     18  H   UNL     1       9.855  13.686  18.130  0.00  0.00    +0.000 HD
ENDBRANCH  12  13
ENDBRANCH  11  12
ENDBRANCH  10  11
ENDBRANCH   6  10
ENDBRANCH   1   5
BRANCH   1  19
ATOM     19  C   UNL     1       4.122   3.882  17.117  0.00  0.00    +0.000 C 
BRANCH  19  20
ATOM     20  C   UNL     1       4.895   3.221  18.258  0.00  0.00    +0.000 C 
BRANCH  20  21
ATOM     21  C   UNL     1       4.620   3.874  19.612  0.00  0.00    +0.000 C 
BRANCH  21  22
ATOM     22  N   UNL     1       3.952   5.145  19.445  0.00  0.00    +0.000 N 
ATOM     23  C   UNL     1       2.752   5.450  20.043  0.00  0.00    +0.000 C 
ATOM     24  O   UNL     1       2.134   4.654  20.744  0.00  0.00    +0.000 OA
ATOM     25  H   UNL     1       4.457   5.876  18.965  0.00  0.00    +0.000 HD
BRANCH  23  26
ATOM     26  C   UNL     1       2.279   6.793  19.793  0.00  0.00    +0.000 A 
ATOM     27  C   UNL     1       2.290   7.577  18.652  0.00  0.00    +0.000 A 
ATOM     28  C   UNL     1       1.703   8.833  18.959  0.00  0.00    +0.000 A 
ATOM     29  C   UNL     1       1.458  10.000  18.214  0.00  0.00    +0.000 A 
ATOM     30  C   UNL     1       0.853  11.093  18.837  0.00  0.00    +0.000 A 
ATOM     31  C   UNL     1       0.489  11.031  20.181  0.00  0.00    +0.000 A 
ATOM     32  C   UNL     1       0.718   9.879  20.941  0.00  0.00    +0.000 A 
ATOM     33  C   UNL     1       1.331   8.795  20.301  0.00  0.00    +0.000 A 
ATOM     34  N   UNL     1       1.679   7.552  20.778  0.00  0.00    +0.000 N 
ATOM     35  H   UNL     1       1.527   7.223  21.723  0.00  0.00    +0.000 HD
ENDBRANCH  23  26
ENDBRANCH  21  22
ENDBRANCH  20  21
ENDBRANCH  19  20
ENDBRANCH   1  19
TORSDOF 10
ENDMDL
MODEL 6
REMARK VINA RESULT:      -6.9      2.554      7.584
REMARK  Name = 
REMARK  10 active torsions:
REMARK  status: ('A' for Active; 'I' for Inactive)
REMARK    1  A    between atoms: N_3  and  C_4
REMARK    2  A    between atoms: C_4  and  C_6
REMARK    3  A    between atoms: C_6  and  C_7
REMARK    4  A    between atoms: C_7  and  C_8
REMARK    5  A    between atoms: C_8  and  N_9
REMARK    6  A    between atoms: C_10  and  C_12
REMARK    7  A    between atoms: N_21  and  C_22
REMARK    8  A    between atoms: C_22  and  C_23
REMARK    9  A    between atoms: C_23  and  C_24
REMARK   10  A    between atoms: C_24  and  C_25
REMARK                            x       y       z     vdW  Elec       q    Type
REMARK                         _______ _______ _______ _____ _____    ______ ____
ROOT
ATOM      1  C   UNL     1       1.937   2.756  18.623  0.00  0.00    +0.000 C 
ATOM      2  O   UNL     1       0.843   2.262  18.351  0.00  0.00    +0.000 OA
ENDROOT
BRANCH   1   5
ATOM      3  N   UNL     1       0.743   3.824  20.945  0.00  0.00    +0.000 N 
ATOM      4  C   UNL     1       1.609   4.477  20.129  0.00  0.00    +0.000 C 
ATOM      5  N   UNL     1       2.155   4.047  19.042  0.00  0.00    +0.000 NA
ATOM      6  N   UNL     1       1.836   5.727  20.620  0.00  0.00    +0.000 N 
ATOM      7  H   UNL     1       0.641   2.838  20.689  0.00  0.00    +0.000 HD
ATOM      8  H   UNL     1       0.918   3.924  21.935  0.00  0.00    +0.000 HD
ATOM      9  H   UNL     1       1.325   5.987  21.453  0.00  0.00    +0.000 HD
BRANCH   6  10
ATOM     10  C   UNL     1       2.253   6.845  19.796  0.00  0.00    +0.000 C 
BRANCH  10  11
ATOM     11  C   UNL     1       1.688   8.154  20.331  0.00  0.00    +0.000 C 
BRANCH  11  12
ATOM     12  C   UNL     1       0.630   7.928  21.414  0.00  0.00    +0.000 C 
BRANCH  12  13
ATOM     13  C   UNL     1       0.014   9.214  21.844  0.00  0.00    +0.000 A 
ATOM     14  C   UNL     1      -0.331   9.631  23.113  0.00  0.00    +0.000 A 
ATOM     15  N   UNL     1      -0.823  10.895  22.950  0.00  0.00    +0.000 N 
ATOM     16  C   UNL     1      -0.766  11.194  21.620  0.00  0.00    +0.000 A 
ATOM     17  N   UNL     1      -0.267  10.199  20.925  0.00  0.00    +0.000 NA
ATOM     18  H   UNL     1      -1.161  11.507  23.679  0.00  0.00    +0.000 HD
ENDBRANCH  12  13
ENDBRANCH  11  12
ENDBRANCH  10  11
ENDBRANCH   6  10
ENDBRANCH   1   5
BRANCH   1  19
ATOM     19  C   UNL     1       3.196   1.914  18.569  0.00  0.00    +0.000 C 
BRANCH  19  20
ATOM     20  C   UNL     1       4.157   2.232  19.715  0.00  0.00    +0.000 C 
BRANCH  20  21
ATOM     21  C   UNL     1       4.969   3.502  19.468  0.00  0.00    +0.000 C 
BRANCH  21  22
ATOM     22  N   UNL     1       5.259   3.663  18.060  0.00  0.00    +0.000 N 
ATOM     23  C   UNL     1       6.387   4.293  17.591  0.00  0.00    +0.000 C 
ATOM     24  O   UNL     1       7.226   4.800  18.330  0.00  0.00    +0.000 OA
ATOM     25  H   UNL     1       4.662   3.181  17.405  0.00  0.00    +0.000 HD
BRANCH  23  26
ATOM     26  C   UNL     1       6.517   4.302  16.150  0.00  0.00    +0.000 A 
ATOM     27  C   UNL     1       5.898   3.552  15.165  0.00  0.00    +0.000 A 
ATOM     28  C   UNL     1       6.402   3.960  13.901  0.00  0.00    +0.000 A 
ATOM     29  C   UNL     1       6.152   3.555  12.579  0.00  0.00    +0.000 A 
ATOM     30  C   UNL     1       6.843   4.171  11.534  0.00  0.00    +0.000 A 
ATOM     31  C   UNL     1       7.768   5.182  11.795  0.00  0.00    +0.000 A 
ATOM     32  C   UNL     1       8.029   5.604  13.103  0.00  0.00    +0.000 A 
ATOM     33  C   UNL     1       7.331   4.970  14.137  0.00  0.00    +0.000 A 
ATOM     34  N   UNL     1       7.374   5.165  15.499  0.00  0.00    +0.000 N 
ATOM     35  H   UNL     1       7.955   5.843  15.976  0.00  0.00    +0.000 HD
ENDBRANCH  23  26
ENDBRANCH  21  22
ENDBRANCH  20  21
ENDBRANCH  19  20
ENDBRANCH   1  19
TORSDOF 10
ENDMDL
MODEL 7
REMARK VINA RESULT:      -6.9      3.142      4.327
REMARK  Name = 
REMARK  10 active torsions:
REMARK  status: ('A' for Active; 'I' for Inactive)
REMARK    1  A    between atoms: N_3  and  C_4
REMARK    2  A    between atoms: C_4  and  C_6
REMARK    3  A    between atoms: C_6  and  C_7
REMARK    4  A    between atoms: C_7  and  C_8
REMARK    5  A    between atoms: C_8  and  N_9
REMARK    6  A    between atoms: C_10  and  C_12
REMARK    7  A    between atoms: N_21  and  C_22
REMARK    8  A    between atoms: C_22  and  C_23
REMARK    9  A    between atoms: C_23  and  C_24
REMARK   10  A    between atoms: C_24  and  C_25
REMARK                            x       y       z     vdW  Elec       q    Type
REMARK                         _______ _______ _______ _____ _____    ______ ____
ROOT
ATOM      1  C   UNL     1       2.534   4.241  19.893  0.00  0.00    +0.000 C 
ATOM      2  O   UNL     1       1.873   3.362  20.447  0.00  0.00    +0.000 OA
ENDROOT
BRANCH   1   5
ATOM      3  N   UNL     1       5.011   2.964  19.464  0.00  0.00    +0.000 N 
ATOM      4  C   UNL     1       4.235   3.526  18.503  0.00  0.00    +0.000 C 
ATOM      5  N   UNL     1       3.114   4.149  18.651  0.00  0.00    +0.000 NA
ATOM      6  N   UNL     1       4.826   3.357  17.288  0.00  0.00    +0.000 N 
ATOM      7  H   UNL     1       4.549   2.953  20.377  0.00  0.00    +0.000 HD
ATOM      8  H   UNL     1       5.390   2.055  19.240  0.00  0.00    +0.000 HD
ATOM      9  H   UNL     1       5.726   2.897  17.282  0.00  0.00    +0.000 HD
BRANCH   6  10
ATOM     10  C   UNL     1       4.589   4.231  16.156  0.00  0.00    +0.000 C 
BRANCH  10  11
ATOM     11  C   UNL     1       5.902   4.658  15.515  0.00  0.00    +0.000 C 
BRANCH  11  12
ATOM     12  C   UNL     1       7.108   4.354  16.408  0.00  0.00    +0.000 C 
BRANCH  12  13
ATOM     13  C   UNL     1       7.448   5.519  17.272  0.00  0.00    +0.000 A 
ATOM     14  C   UNL     1       7.801   5.538  18.605  0.00  0.00    +0.000 A 
ATOM     15  N   UNL     1       8.040   6.853  18.890  0.00  0.00    +0.000 N 
ATOM     16  C   UNL     1       7.824   7.570  17.749  0.00  0.00    +0.000 A 
ATOM     17  N   UNL     1       7.464   6.794  16.755  0.00  0.00    +0.000 NA
ATOM     18  H   UNL     1       8.332   7.232  19.780  0.00  0.00    +0.000 HD
ENDBRANCH  12  13
ENDBRANCH  11  12
ENDBRANCH  10  11
ENDBRANCH   6  10
ENDBRANCH   1   5
BRANCH   1  19
ATOM     19  C   UNL     1       2.722   5.592  20.553  0.00  0.00    +0.000 C 
BRANCH  19  20
ATOM     20  C   UNL     1       2.264   6.744  19.658  0.00  0.00    +0.000 C 
BRANCH  20  21
ATOM     21  C   UNL     1       1.794   7.959  20.456  0.00  0.00    +0.000 C 
BRANCH  21  22
ATOM     22  N   UNL     1       0.645   8.574  19.829  0.00  0.00    +0.000 N 
ATOM     23  C   UNL     1       0.675   9.829  19.268  0.00  0.00    +0.000 C 
ATOM     24  O   UNL     1       1.673  10.544  19.281  0.00  0.00    +0.000 OA
ATOM     25  H   UNL     1      -0.175   8.001  19.696  0.00  0.00    +0.000 HD
BRANCH  23  26
ATOM     26  C   UNL     1      -0.564  10.240  18.644  0.00  0.00    +0.000 A 
ATOM     27  C   UNL     1      -1.658  10.930  19.136  0.00  0.00    +0.000 A 
ATOM     28  C   UNL     1      -2.617  11.060  18.096  0.00  0.00    +0.000 A 
ATOM     29  C   UNL     1      -3.892  11.646  18.018  0.00  0.00    +0.000 A 
ATOM     30  C   UNL     1      -4.595  11.591  16.813  0.00  0.00    +0.000 A 
ATOM     31  C   UNL     1      -4.040  10.970  15.696  0.00  0.00    +0.000 A 
ATOM     32  C   UNL     1      -2.770  10.384  15.749  0.00  0.00    +0.000 A 
ATOM     33  C   UNL     1      -2.084  10.444  16.967  0.00  0.00    +0.000 A 
ATOM     34  N   UNL     1      -0.841   9.967  17.321  0.00  0.00    +0.000 N 
ATOM     35  H   UNL     1      -0.206   9.475  16.706  0.00  0.00    +0.000 HD
ENDBRANCH  23  26
ENDBRANCH  21  22
ENDBRANCH  20  21
ENDBRANCH  19  20
ENDBRANCH   1  19
TORSDOF 10
ENDMDL
MODEL 8
REMARK VINA RESULT:      -6.8      2.945      3.964
REMARK  Name = 
REMARK  10 active torsions:
REMARK  status: ('A' for Active; 'I' for Inactive)
REMARK    1  A    between atoms: N_3  and  C_4
REMARK    2  A    between atoms: C_4  and  C_6
REMARK    3  A    between atoms: C_6  and  C_7
REMARK    4  A    between atoms: C_7  and  C_8
REMARK    5  A    between atoms: C_8  and  N_9
REMARK    6  A    between atoms: C_10  and  C_12
REMARK    7  A    between atoms: N_21  and  C_22
REMARK    8  A    between atoms: C_22  and  C_23
REMARK    9  A    between atoms: C_23  and  C_24
REMARK   10  A    between atoms: C_24  and  C_25
REMARK                            x       y       z     vdW  Elec       q    Type
REMARK                         _______ _______ _______ _____ _____    ______ ____
ROOT
ATOM      1  C   UNL     1       2.561   4.069  19.656  0.00  0.00    +0.000 C 
ATOM      2  O   UNL     1       1.735   3.188  19.419  0.00  0.00    +0.000 OA
ENDROOT
BRANCH   1   5
ATOM      3  N   UNL     1       4.939   2.569  19.870  0.00  0.00    +0.000 N 
ATOM      4  C   UNL     1       4.733   3.608  19.021  0.00  0.00    +0.000 C 
ATOM      5  N   UNL     1       3.680   4.345  18.908  0.00  0.00    +0.000 NA
ATOM      6  N   UNL     1       5.849   3.802  18.266  0.00  0.00    +0.000 N 
ATOM      7  H   UNL     1       4.086   2.304  20.369  0.00  0.00    +0.000 HD
ATOM      8  H   UNL     1       5.389   1.760  19.466  0.00  0.00    +0.000 HD
ATOM      9  H   UNL     1       6.640   3.203  18.461  0.00  0.00    +0.000 HD
BRANCH   6  10
ATOM     10  C   UNL     1       6.194   5.074  17.662  0.00  0.00    +0.000 C 
BRANCH  10  11
ATOM     11  C   UNL     1       5.661   5.161  16.238  0.00  0.00    +0.000 C 
BRANCH  11  12
ATOM     12  C   UNL     1       5.957   3.896  15.430  0.00  0.00    +0.000 C 
BRANCH  12  13
ATOM     13  C   UNL     1       6.595   4.223  14.125  0.00  0.00    +0.000 A 
ATOM     14  C   UNL     1       6.344   3.693  12.877  0.00  0.00    +0.000 A 
ATOM     15  N   UNL     1       7.178   4.366  12.030  0.00  0.00    +0.000 N 
ATOM     16  C   UNL     1       7.893   5.258  12.776  0.00  0.00    +0.000 A 
ATOM     17  N   UNL     1       7.566   5.195  14.045  0.00  0.00    +0.000 NA
ATOM     18  H   UNL     1       7.251   4.239  11.030  0.00  0.00    +0.000 HD
ENDBRANCH  12  13
ENDBRANCH  11  12
ENDBRANCH  10  11
ENDBRANCH   6  10
ENDBRANCH   1   5
BRANCH   1  19
ATOM     19  C   UNL     1       2.366   5.011  20.827  0.00  0.00    +0.000 C 
BRANCH  19  20
ATOM     20  C   UNL     1       1.340   6.105  20.529  0.00  0.00    +0.000 C 
BRANCH  20  21
ATOM     21  C   UNL     1       1.948   7.506  20.556  0.00  0.00    +0.000 C 
BRANCH  21  22
ATOM     22  N   UNL     1       0.944   8.497  20.872  0.00  0.00    +0.000 N 
ATOM     23  C   UNL     1       1.031   9.337  21.957  0.00  0.00    +0.000 C 
ATOM     24  O   UNL     1       1.954   9.293  22.765  0.00  0.00    +0.000 OA
ATOM     25  H   UNL     1       0.213   8.652  20.193  0.00  0.00    +0.000 HD
BRANCH  23  26
ATOM     26  C   UNL     1      -0.049  10.293  22.067  0.00  0.00    +0.000 A 
ATOM     27  C   UNL     1      -0.867  10.641  23.128  0.00  0.00    +0.000 A 
ATOM     28  C   UNL     1      -1.779  11.638  22.689  0.00  0.00    +0.000 A 
ATOM     29  C   UNL     1      -2.822  12.344  23.314  0.00  0.00    +0.000 A 
ATOM     30  C   UNL     1      -3.552  13.278  22.576  0.00  0.00    +0.000 A 
ATOM     31  C   UNL     1      -3.249  13.515  21.236  0.00  0.00    +0.000 A 
ATOM     32  C   UNL     1      -2.213  12.828  20.595  0.00  0.00    +0.000 A 
ATOM     33  C   UNL     1      -1.496  11.891  21.349  0.00  0.00    +0.000 A 
ATOM     34  N   UNL     1      -0.443  11.076  21.001  0.00  0.00    +0.000 N 
ATOM     35  H   UNL     1      -0.007  11.040  20.089  0.00  0.00    +0.000 HD
ENDBRANCH  23  26
ENDBRANCH  21  22
ENDBRANCH  20  21
ENDBRANCH  19  20
ENDBRANCH   1  19
TORSDOF 10
ENDMDL
MODEL 9
REMARK VINA RESULT:      -6.7      6.476      8.781
REMARK  Name = 
REMARK  10 active torsions:
REMARK  status: ('A' for Active; 'I' for Inactive)
REMARK    1  A    between atoms: N_3  and  C_4
REMARK    2  A    between atoms: C_4  and  C_6
REMARK    3  A    between atoms: C_6  and  C_7
REMARK    4  A    between atoms: C_7  and  C_8
REMARK    5  A    between atoms: C_8  and  N_9
REMARK    6  A    between atoms: C_10  and  C_12
REMARK    7  A    between atoms: N_21  and  C_22
REMARK    8  A    between atoms: C_22  and  C_23
REMARK    9  A    between atoms: C_23  and  C_24
REMARK   10  A    between atoms: C_24  and  C_25
REMARK                            x       y       z     vdW  Elec       q    Type
REMARK                         _______ _______ _______ _____ _____    ______ ____
ROOT
ATOM      1  C   UNL     1       7.639   6.980  18.237  0.00  0.00    +0.000 C 
ATOM      2  O   UNL     1       8.499   6.806  19.101  0.00  0.00    +0.000 OA
ENDROOT
BRANCH   1   5
ATOM      3  N   UNL     1       7.745   4.182  17.894  0.00  0.00    +0.000 N 
ATOM      4  C   UNL     1       6.614   4.932  17.935  0.00  0.00    +0.000 C 
ATOM      5  N   UNL     1       6.513   6.213  18.056  0.00  0.00    +0.000 NA
ATOM      6  N   UNL     1       5.529   4.119  17.810  0.00  0.00    +0.000 N 
ATOM      7  H   UNL     1       8.580   4.732  18.112  0.00  0.00    +0.000 HD
ATOM      8  H   UNL     1       7.722   3.330  18.436  0.00  0.00    +0.000 HD
ATOM      9  H   UNL     1       5.713   3.134  17.674  0.00  0.00    +0.000 HD
BRANCH   6  10
ATOM     10  C   UNL     1       4.249   4.568  17.298  0.00  0.00    +0.000 C 
BRANCH  10  11
ATOM     11  C   UNL     1       3.287   3.398  17.140  0.00  0.00    +0.000 C 
BRANCH  11  12
ATOM     12  C   UNL     1       3.374   2.414  18.308  0.00  0.00    +0.000 C 
BRANCH  12  13
ATOM     13  C   UNL     1       2.384   2.746  19.370  0.00  0.00    +0.000 A 
ATOM     14  C   UNL     1       1.106   3.248  19.240  0.00  0.00    +0.000 A 
ATOM     15  N   UNL     1       0.626   3.333  20.516  0.00  0.00    +0.000 N 
ATOM     16  C   UNL     1       1.607   2.894  21.358  0.00  0.00    +0.000 A 
ATOM     17  N   UNL     1       2.681   2.534  20.696  0.00  0.00    +0.000 NA
ATOM     18  H   UNL     1      -0.291   3.653  20.794  0.00  0.00    +0.000 HD
ENDBRANCH  12  13
ENDBRANCH  11  12
ENDBRANCH  10  11
ENDBRANCH   6  10
ENDBRANCH   1   5
BRANCH   1  19
ATOM     19  C   UNL     1       7.732   8.156  17.285  0.00  0.00    +0.000 C 
BRANCH  19  20
ATOM     20  C   UNL     1       7.776   9.495  18.021  0.00  0.00    +0.000 C 
BRANCH  20  21
ATOM     21  C   UNL     1       9.202   9.968  18.299  0.00  0.00    +0.000 C 
BRANCH  21  22
ATOM     22  N   UNL     1       9.294  11.409  18.213  0.00  0.00    +0.000 N 
ATOM     23  C   UNL     1      10.477  12.077  18.003  0.00  0.00    +0.000 C 
ATOM     24  O   UNL     1      11.559  11.505  17.903  0.00  0.00    +0.000 OA
ATOM     25  H   UNL     1       8.429  11.929  18.185  0.00  0.00    +0.000 HD
BRANCH  23  26
ATOM     26  C   UNL     1      10.347  13.513  17.895  0.00  0.00    +0.000 A 
ATOM     27  C   UNL     1      11.150  14.469  17.297  0.00  0.00    +0.000 A 
ATOM     28  C   UNL     1      10.560  15.745  17.493  0.00  0.00    +0.000 A 
ATOM     29  C   UNL     1      10.924  17.052  17.125  0.00  0.00    +0.000 A 
ATOM     30  C   UNL     1      10.102  18.119  17.492  0.00  0.00    +0.000 A 
ATOM     31  C   UNL     1       8.929  17.895  18.212  0.00  0.00    +0.000 A 
ATOM     32  C   UNL     1       8.544  16.603  18.586  0.00  0.00    +0.000 A 
ATOM     33  C   UNL     1       9.384  15.547  18.213  0.00  0.00    +0.000 A 
ATOM     34  N   UNL     1       9.273  14.192  18.433  0.00  0.00    +0.000 N 
ATOM     35  H   UNL     1       8.515  13.738  18.926  0.00  0.00    +0.000 HD
ENDBRANCH  23  26
ENDBRANCH  21  22
ENDBRANCH  20  21
ENDBRANCH  19  20
ENDBRANCH   1  19
TORSDOF 10
ENDMDL
