MODEL 1
REMARK VINA RESULT:      -7.1      0.000      0.000
REMARK  Name = 
REMARK  9 active torsions:
REMARK  status: ('A' for Active; 'I' for Inactive)
REMARK    1  A    between atoms: C_1  and  C_2
REMARK    2  A    between atoms: C_2  and  C_3
REMARK    3  A    between atoms: C_3  and  S_4
REMARK    4  A    between atoms: S_4  and  N_7
REMARK    5  A    between atoms: N_7  and  C_8
REMARK    6  A    between atoms: C_8  and  C_9
REMARK    7  A    between atoms: C_8  and  C_16
REMARK    8  A    between atoms: C_9  and  C_10
REMARK    9  A    between atoms: C_18  and  O_19
REMARK                            x       y       z     vdW  Elec       q    Type
REMARK                         _______ _______ _______ _____ _____    ______ ____
ROOT
ATOM      1  C   UNL     1       4.991   5.514  17.628  0.00  0.00    +0.000 C 
ENDROOT
BRANCH   1   2
ATOM      2  C   UNL     1       4.803   4.913  16.216  0.00  0.00    +0.000 C 
ATOM      3  C   UNL     1       5.337   5.674  14.975  0.00  0.00    +0.000 C 
ATOM      4  C   UNL     1       6.346   4.541  14.724  0.00  0.00    +0.000 C 
ATOM      5  C   UNL     1       5.574   3.664  15.727  0.00  0.00    +0.000 C 
BRANCH   4   6
ATOM      6  O   UNL     1       7.725   4.805  15.043  0.00  0.00    +0.000 OA
ATOM      7  H   UNL     1       8.039   5.435  14.375  0.00  0.00    +0.000 HD
ENDBRANCH   4   6
ENDBRANCH   1   2
BRANCH   1   8
ATOM      8  N   UNL     1       5.892   4.649  18.517  0.00  0.00    +0.000 NA
ATOM      9  H   UNL     1       5.460   4.663  19.452  0.00  0.00    +0.000 HD
BRANCH   8  10
ATOM     10  S   UNL     1       7.493   5.211  18.631  0.00  0.00    +0.000 S 
ATOM     11  O   UNL     1       8.298   4.264  17.895  0.00  0.00    +0.000 OA
ATOM     12  O   UNL     1       7.763   5.511  20.019  0.00  0.00    +0.000 OA
BRANCH  10  13
ATOM     13  C   UNL     1       7.531   6.785  17.752  0.00  0.00    +0.000 C 
BRANCH  13  15
ATOM     14  C   UNL     1       8.372   9.190  18.118  0.00  0.00    +0.000 C 
ATOM     15  C   UNL     1       8.328   7.764  18.626  0.00  0.00    +0.000 C 
ENDBRANCH  13  15
ENDBRANCH  10  13
ENDBRANCH   8  10
ENDBRANCH   1   8
BRANCH   1  16
ATOM     16  C   UNL     1       3.643   5.758  18.347  0.00  0.00    +0.000 C 
BRANCH  16  17
ATOM     17  C   UNL     1       2.907   4.523  18.829  0.00  0.00    +0.000 A 
ATOM     18  C   UNL     1       1.814   4.060  18.093  0.00  0.00    +0.000 A 
ATOM     19  C   UNL     1       1.068   2.990  18.577  0.00  0.00    +0.000 A 
ATOM     20  C   UNL     1       1.422   2.413  19.787  0.00  0.00    +0.000 A 
ATOM     21  C   UNL     1       2.531   2.919  20.446  0.00  0.00    +0.000 A 
ATOM     22  N   UNL     1       3.292   3.938  19.987  0.00  0.00    +0.000 NA
ENDBRANCH  16  17
ENDBRANCH   1  16
TORSDOF 8
ENDMDL
MODEL 2
REMARK VINA RESULT:      -6.8      1.983      4.094
REMARK  Name = 
REMARK  9 active torsions:
REMARK  status: ('A' for Active; 'I' for Inactive)
REMARK    1  A    between atoms: C_1  and  C_2
REMARK    2  A    between atoms: C_2  and  C_3
REMARK    3  A    between atoms: C_3  and  S_4
REMARK    4  A    between atoms: S_4  and  N_7
REMARK    5  A    between atoms: N_7  and  C_8
REMARK    6  A    between atoms: C_8  and  C_9
REMARK    7  A    between atoms: C_8  and  C_16
REMARK    8  A    between atoms: C_9  and  C_10
REMARK    9  A    between atoms: C_18  and  O_19
REMARK                            x       y       z     vdW  Elec       q    Type
REMARK                         _______ _______ _______ _____ _____    ______ ____
ROOT
ATOM      1  C   UNL     1       4.861   5.565  17.129  0.00  0.00    +0.000 C 
ENDROOT
BRANCH   1   2
ATOM      2  C   UNL     1       5.905   6.100  18.135  0.00  0.00    +0.000 C 
ATOM      3  C   UNL     1       6.473   5.160  19.231  0.00  0.00    +0.000 C 
ATOM      4  C   UNL     1       7.863   5.254  18.580  0.00  0.00    +0.000 C 
ATOM      5  C   UNL     1       7.361   6.438  17.733  0.00  0.00    +0.000 C 
BRANCH   4   6
ATOM      6  O   UNL     1       8.326   4.103  17.848  0.00  0.00    +0.000 OA
ATOM      7  H   UNL     1       8.545   3.432  18.514  0.00  0.00    +0.000 HD
ENDBRANCH   4   6
ENDBRANCH   1   2
BRANCH   1   8
ATOM      8  N   UNL     1       5.226   5.896  15.676  0.00  0.00    +0.000 NA
ATOM      9  H   UNL     1       4.331   5.991  15.176  0.00  0.00    +0.000 HD
BRANCH   8  10
ATOM     10  S   UNL     1       6.169   4.702  14.914  0.00  0.00    +0.000 S 
ATOM     11  O   UNL     1       6.210   3.586  15.831  0.00  0.00    +0.000 OA
ATOM     12  O   UNL     1       7.381   5.329  14.435  0.00  0.00    +0.000 OA
BRANCH  10  13
ATOM     13  C   UNL     1       5.243   4.196  13.452  0.00  0.00    +0.000 C 
BRANCH  13  15
ATOM     14  C   UNL     1       5.563   2.425  11.611  0.00  0.00    +0.000 C 
ATOM     15  C   UNL     1       6.215   3.408  12.561  0.00  0.00    +0.000 C 
ENDBRANCH  13  15
ENDBRANCH  10  13
ENDBRANCH   8  10
ENDBRANCH   1   8
BRANCH   1  16
ATOM     16  C   UNL     1       3.435   6.086  17.429  0.00  0.00    +0.000 C 
BRANCH  16  17
ATOM     17  C   UNL     1       2.644   5.312  18.466  0.00  0.00    +0.000 A 
ATOM     18  C   UNL     1       1.937   4.176  18.066  0.00  0.00    +0.000 A 
ATOM     19  C   UNL     1       1.127   3.516  18.984  0.00  0.00    +0.000 A 
ATOM     20  C   UNL     1       1.031   4.009  20.277  0.00  0.00    +0.000 A 
ATOM     21  C   UNL     1       1.779   5.131  20.599  0.00  0.00    +0.000 A 
ATOM     22  N   UNL     1       2.597   5.776  19.737  0.00  0.00    +0.000 NA
ENDBRANCH  16  17
ENDBRANCH   1  16
TORSDOF 8
ENDMDL
MODEL 3
REMARK VINA RESULT:      -6.7      2.036      4.175
REMARK  Name = 
REMARK  9 active torsions:
REMARK  status: ('A' for Active; 'I' for Inactive)
REMARK    1  A    between atoms: C_1  and  C_2
REMARK    2  A    between atoms: C_2  and  C_3
REMARK    3  A    between atoms: C_3  and  S_4
REMARK    4  A    between atoms: S_4  and  N_7
REMARK    5  A    between atoms: N_7  and  C_8
REMARK    6  A    between atoms: C_8  and  C_9
REMARK    7  A    between atoms: C_8  and  C_16
REMARK    8  A    between atoms: C_9  and  C_10
REMARK    9  A    between atoms: C_18  and  O_19
REMARK                            x       y       z     vdW  Elec       q    Type
REMARK                         _______ _______ _______ _____ _____    ______ ____
ROOT
ATOM      1  C   UNL     1       4.873   5.712  17.194  0.00  0.00    +0.000 C 
ENDROOT
BRANCH   1   2
ATOM      2  C   UNL     1       5.924   6.181  18.227  0.00  0.00    +0.000 C 
ATOM      3  C   UNL     1       6.464   5.185  19.285  0.00  0.00    +0.000 C 
ATOM      4  C   UNL     1       7.860   5.275  18.645  0.00  0.00    +0.000 C 
ATOM      5  C   UNL     1       7.389   6.503  17.845  0.00  0.00    +0.000 C 
BRANCH   4   6
ATOM      6  O   UNL     1       8.301   4.144  17.869  0.00  0.00    +0.000 OA
ATOM      7  H   UNL     1       8.719   3.534  18.497  0.00  0.00    +0.000 HD
ENDBRANCH   4   6
ENDBRANCH   1   2
BRANCH   1   8
ATOM      8  N   UNL     1       5.298   6.010  15.751  0.00  0.00    +0.000 NA
ATOM      9  H   UNL     1       4.424   6.152  15.225  0.00  0.00    +0.000 HD
BRANCH   8  10
ATOM     10  S   UNL     1       6.192   4.758  15.024  0.00  0.00    +0.000 S 
ATOM     11  O   UNL     1       6.179   3.664  15.966  0.00  0.00    +0.000 OA
ATOM     12  O   UNL     1       7.433   5.320  14.538  0.00  0.00    +0.000 OA
BRANCH  10  13
ATOM     13  C   UNL     1       5.253   4.259  13.567  0.00  0.00    +0.000 C 
BRANCH  13  15
ATOM     14  C   UNL     1       5.497   2.515  11.689  0.00  0.00    +0.000 C 
ATOM     15  C   UNL     1       6.189   3.394  12.710  0.00  0.00    +0.000 C 
ENDBRANCH  13  15
ENDBRANCH  10  13
ENDBRANCH   8  10
ENDBRANCH   1   8
BRANCH   1  16
ATOM     16  C   UNL     1       3.477   6.326  17.455  0.00  0.00    +0.000 C 
BRANCH  16  17
ATOM     17  C   UNL     1       2.580   5.569  18.415  0.00  0.00    +0.000 A 
ATOM     18  C   UNL     1       2.464   6.025  19.730  0.00  0.00    +0.000 A 
ATOM     19  C   UNL     1       1.726   5.284  20.647  0.00  0.00    +0.000 A 
ATOM     20  C   UNL     1       1.130   4.101  20.236  0.00  0.00    +0.000 A 
ATOM     21  C   UNL     1       1.279   3.728  18.910  0.00  0.00    +0.000 A 
ATOM     22  N   UNL     1       1.965   4.441  17.989  0.00  0.00    +0.000 NA
ENDBRANCH  16  17
ENDBRANCH   1  16
TORSDOF 8
ENDMDL
MODEL 4
REMARK VINA RESULT:      -6.7      2.044      2.360
REMARK  Name = 
REMARK  9 active torsions:
REMARK  status: ('A' for Active; 'I' for Inactive)
REMARK    1  A    between atoms: C_1  and  C_2
REMARK    2  A    between atoms: C_2  and  C_3
REMARK    3  A    between atoms: C_3  and  S_4
REMARK    4  A    between atoms: S_4  and  N_7
REMARK    5  A    between atoms: N_7  and  C_8
REMARK    6  A    between atoms: C_8  and  C_9
REMARK    7  A    between atoms: C_8  and  C_16
REMARK    8  A    between atoms: C_9  and  C_10
REMARK    9  A    between atoms: C_18  and  O_19
REMARK                            x       y       z     vdW  Elec       q    Type
REMARK                         _______ _______ _______ _____ _____    ______ ____
ROOT
ATOM      1  C   UNL     1       4.670   3.932  17.177  0.00  0.00    +0.000 C 
ENDROOT
BRANCH   1   2
ATOM      2  C   UNL     1       4.948   4.018  15.659  0.00  0.00    +0.000 C 
ATOM      3  C   UNL     1       5.189   5.398  14.995  0.00  0.00    +0.000 C 
ATOM      4  C   UNL     1       6.636   4.986  14.679  0.00  0.00    +0.000 C 
ATOM      5  C   UNL     1       6.270   3.529  15.020  0.00  0.00    +0.000 C 
BRANCH   4   6
ATOM      6  O   UNL     1       7.679   5.580  15.477  0.00  0.00    +0.000 OA
ATOM      7  H   UNL     1       8.115   6.231  14.905  0.00  0.00    +0.000 HD
ENDBRANCH   4   6
ENDBRANCH   1   2
BRANCH   1   8
ATOM      8  N   UNL     1       5.955   3.992  18.012  0.00  0.00    +0.000 NA
ATOM      9  H   UNL     1       5.897   3.204  18.672  0.00  0.00    +0.000 HD
BRANCH   8  10
ATOM     10  S   UNL     1       6.143   5.441  18.884  0.00  0.00    +0.000 S 
ATOM     11  O   UNL     1       6.633   6.413  17.934  0.00  0.00    +0.000 OA
ATOM     12  O   UNL     1       6.869   5.141  20.097  0.00  0.00    +0.000 OA
BRANCH  10  13
ATOM     13  C   UNL     1       4.484   5.935  19.390  0.00  0.00    +0.000 C 
BRANCH  13  15
ATOM     14  C   UNL     1       2.419   7.073  18.358  0.00  0.00    +0.000 C 
ATOM     15  C   UNL     1       3.896   6.765  18.239  0.00  0.00    +0.000 C 
ENDBRANCH  13  15
ENDBRANCH  10  13
ENDBRANCH   8  10
ENDBRANCH   1   8
BRANCH   1  16
ATOM     16  C   UNL     1       3.871   2.662  17.558  0.00  0.00    +0.000 C 
BRANCH  16  17
ATOM     17  C   UNL     1       2.992   2.767  18.789  0.00  0.00    +0.000 A 
ATOM     18  C   UNL     1       1.680   3.222  18.643  0.00  0.00    +0.000 A 
ATOM     19  C   UNL     1       0.895   3.420  19.774  0.00  0.00    +0.000 A 
ATOM     20  C   UNL     1       1.439   3.170  21.025  0.00  0.00    +0.000 A 
ATOM     21  C   UNL     1       2.743   2.704  21.083  0.00  0.00    +0.000 A 
ATOM     22  N   UNL     1       3.520   2.475  20.000  0.00  0.00    +0.000 NA
ENDBRANCH  16  17
ENDBRANCH   1  16
TORSDOF 8
ENDMDL
MODEL 5
REMARK VINA RESULT:      -6.6      1.186      1.630
REMARK  Name = 
REMARK  9 active torsions:
REMARK  status: ('A' for Active; 'I' for Inactive)
REMARK    1  A    between atoms: C_1  and  C_2
REMARK    2  A    between atoms: C_2  and  C_3
REMARK    3  A    between atoms: C_3  and  S_4
REMARK    4  A    between atoms: S_4  and  N_7
REMARK    5  A    between atoms: N_7  and  C_8
REMARK    6  A    between atoms: C_8  and  C_9
REMARK    7  A    between atoms: C_8  and  C_16
REMARK    8  A    between atoms: C_9  and  C_10
REMARK    9  A    between atoms: C_18  and  O_19
REMARK                            x       y       z     vdW  Elec       q    Type
REMARK                         _______ _______ _______ _____ _____    ______ ____
ROOT
ATOM      1  C   UNL     1       5.014   4.095  17.338  0.00  0.00    +0.000 C 
ENDROOT
BRANCH   1   2
ATOM      2  C   UNL     1       4.908   4.312  15.811  0.00  0.00    +0.000 C 
ATOM      3  C   UNL     1       5.282   5.686  15.199  0.00  0.00    +0.000 C 
ATOM      4  C   UNL     1       6.466   5.031  14.469  0.00  0.00    +0.000 C 
ATOM      5  C   UNL     1       5.875   3.648  14.801  0.00  0.00    +0.000 C 
BRANCH   4   6
ATOM      6  O   UNL     1       7.785   5.296  14.984  0.00  0.00    +0.000 OA
ATOM      7  H   UNL     1       7.666   5.525  15.920  0.00  0.00    +0.000 HD
ENDBRANCH   4   6
ENDBRANCH   1   2
BRANCH   1   8
ATOM      8  N   UNL     1       6.467   4.083  17.828  0.00  0.00    +0.000 NA
ATOM      9  H   UNL     1       6.583   3.196  18.339  0.00  0.00    +0.000 HD
BRANCH   8  10
ATOM     10  S   UNL     1       6.858   5.379  18.858  0.00  0.00    +0.000 S 
ATOM     11  O   UNL     1       8.144   5.055  19.430  0.00  0.00    +0.000 OA
ATOM     12  O   UNL     1       5.708   5.649  19.692  0.00  0.00    +0.000 OA
BRANCH  10  13
ATOM     13  C   UNL     1       7.062   6.818  17.790  0.00  0.00    +0.000 C 
BRANCH  13  15
ATOM     14  C   UNL     1       8.216   9.109  18.008  0.00  0.00    +0.000 C 
ATOM     15  C   UNL     1       8.226   7.638  18.367  0.00  0.00    +0.000 C 
ENDBRANCH  13  15
ENDBRANCH  10  13
ENDBRANCH   8  10
ENDBRANCH   1   8
BRANCH   1  16
ATOM     16  C   UNL     1       4.307   2.798  17.798  0.00  0.00    +0.000 C 
BRANCH  16  17
ATOM     17  C   UNL     1       3.223   2.961  18.846  0.00  0.00    +0.000 A 
ATOM     18  C   UNL     1       3.560   2.812  20.193  0.00  0.00    +0.000 A 
ATOM     19  C   UNL     1       2.559   2.858  21.158  0.00  0.00    +0.000 A 
ATOM     20  C   UNL     1       1.243   3.040  20.757  0.00  0.00    +0.000 A 
ATOM     21  C   UNL     1       0.995   3.197  19.403  0.00  0.00    +0.000 A 
ATOM     22  N   UNL     1       1.950   3.186  18.446  0.00  0.00    +0.000 NA
ENDBRANCH  16  17
ENDBRANCH   1  16
TORSDOF 8
ENDMDL
MODEL 6
REMARK VINA RESULT:      -6.6      1.284      1.518
REMARK  Name = 
REMARK  9 active torsions:
REMARK  status: ('A' for Active; 'I' for Inactive)
REMARK    1  A    between atoms: C_1  and  C_2
REMARK    2  A    between atoms: C_2  and  C_3
REMARK    3  A    between atoms: C_3  and  S_4
REMARK    4  A    between atoms: S_4  and  N_7
REMARK    5  A    between atoms: N_7  and  C_8
REMARK    6  A    between atoms: C_8  and  C_9
REMARK    7  A    between atoms: C_8  and  C_16
REMARK    8  A    between atoms: C_9  and  C_10
REMARK    9  A    between atoms: C_18  and  O_19
REMARK                            x       y       z     vdW  Elec       q    Type
REMARK                         _______ _______ _______ _____ _____    ______ ____
ROOT
ATOM      1  C   UNL     1       4.735   4.122  17.140  0.00  0.00    +0.000 C 
ENDROOT
BRANCH   1   2
ATOM      2  C   UNL     1       4.825   4.309  15.608  0.00  0.00    +0.000 C 
ATOM      3  C   UNL     1       5.294   5.666  15.022  0.00  0.00    +0.000 C 
ATOM      4  C   UNL     1       6.550   4.979  14.459  0.00  0.00    +0.000 C 
ATOM      5  C   UNL     1       5.900   3.612  14.739  0.00  0.00    +0.000 C 
BRANCH   4   6
ATOM      6  O   UNL     1       7.798   5.237  15.131  0.00  0.00    +0.000 OA
ATOM      7  H   UNL     1       7.759   6.162  15.422  0.00  0.00    +0.000 HD
ENDBRANCH   4   6
ENDBRANCH   1   2
BRANCH   1   8
ATOM      8  N   UNL     1       6.112   4.155  17.815  0.00  0.00    +0.000 NA
ATOM      9  H   UNL     1       6.194   3.265  18.327  0.00  0.00    +0.000 HD
BRANCH   8  10
ATOM     10  S   UNL     1       6.316   5.448  18.901  0.00  0.00    +0.000 S 
ATOM     11  O   UNL     1       6.576   4.846  20.188  0.00  0.00    +0.000 OA
ATOM     12  O   UNL     1       5.219   6.370  18.709  0.00  0.00    +0.000 OA
BRANCH  10  13
ATOM     13  C   UNL     1       7.808   6.312  18.371  0.00  0.00    +0.000 C 
BRANCH  13  15
ATOM     14  C   UNL     1       8.087   8.821  17.871  0.00  0.00    +0.000 C 
ATOM     15  C   UNL     1       7.351   7.534  17.563  0.00  0.00    +0.000 C 
ENDBRANCH  13  15
ENDBRANCH  10  13
ENDBRANCH   8  10
ENDBRANCH   1   8
BRANCH   1  16
ATOM     16  C   UNL     1       4.004   2.816  17.531  0.00  0.00    +0.000 C 
BRANCH  16  17
ATOM     17  C   UNL     1       3.087   2.896  18.736  0.00  0.00    +0.000 A 
ATOM     18  C   UNL     1       1.772   3.331  18.555  0.00  0.00    +0.000 A 
ATOM     19  C   UNL     1       0.951   3.506  19.665  0.00  0.00    +0.000 A 
ATOM     20  C   UNL     1       1.463   3.255  20.929  0.00  0.00    +0.000 A 
ATOM     21  C   UNL     1       2.772   2.809  21.022  0.00  0.00    +0.000 A 
ATOM     22  N   UNL     1       3.584   2.602  19.961  0.00  0.00    +0.000 NA
ENDBRANCH  16  17
ENDBRANCH   1  16
TORSDOF 8
ENDMDL
MODEL 7
REMARK VINA RESULT:      -6.6      2.471      3.880
REMARK  Name = 
REMARK  9 active torsions:
REMARK  status: ('A' for Active; 'I' for Inactive)
REMARK    1  A    between atoms: C_1  and  C_2
REMARK    2  A    between atoms: C_2  and  C_3
REMARK    3  A    between atoms: C_3  and  S_4
REMARK    4  A    between atoms: S_4  and  N_7
REMARK    5  A    between atoms: N_7  and  C_8
REMARK    6  A    between atoms: C_8  and  C_9
REMARK    7  A    between atoms: C_8  and  C_16
REMARK    8  A    between atoms: C_9  and  C_10
REMARK    9  A    between atoms: C_18  and  O_19
REMARK                            x       y       z     vdW  Elec       q    Type
REMARK                         _______ _______ _______ _____ _____    ______ ____
ROOT
ATOM      1  C   UNL     1       4.561   4.624  18.377  0.00  0.00    +0.000 C 
ENDROOT
BRANCH   1   2
ATOM      2  C   UNL     1       4.031   3.256  17.888  0.00  0.00    +0.000 C 
ATOM      3  C   UNL     1       3.684   2.150  18.917  0.00  0.00    +0.000 C 
ATOM      4  C   UNL     1       2.203   2.249  18.513  0.00  0.00    +0.000 C 
ATOM      5  C   UNL     1       2.619   3.072  17.280  0.00  0.00    +0.000 C 
BRANCH   4   6
ATOM      6  O   UNL     1       1.311   2.899  19.438  0.00  0.00    +0.000 OA
ATOM      7  H   UNL     1       1.706   3.765  19.627  0.00  0.00    +0.000 HD
ENDBRANCH   4   6
ENDBRANCH   1   2
BRANCH   1   8
ATOM      8  N   UNL     1       6.033   4.561  18.802  0.00  0.00    +0.000 NA
ATOM      9  H   UNL     1       6.094   5.098  19.679  0.00  0.00    +0.000 HD
BRANCH   8  10
ATOM     10  S   UNL     1       7.108   5.225  17.663  0.00  0.00    +0.000 S 
ATOM     11  O   UNL     1       6.283   5.754  16.602  0.00  0.00    +0.000 OA
ATOM     12  O   UNL     1       8.139   4.246  17.399  0.00  0.00    +0.000 OA
BRANCH  10  13
ATOM     13  C   UNL     1       7.917   6.609  18.490  0.00  0.00    +0.000 C 
BRANCH  13  15
ATOM     14  C   UNL     1       8.284   9.132  18.140  0.00  0.00    +0.000 C 
ATOM     15  C   UNL     1       7.757   7.830  17.574  0.00  0.00    +0.000 C 
ENDBRANCH  13  15
ENDBRANCH  10  13
ENDBRANCH   8  10
ENDBRANCH   1   8
BRANCH   1  16
ATOM     16  C   UNL     1       3.716   5.202  19.537  0.00  0.00    +0.000 C 
BRANCH  16  17
ATOM     17  C   UNL     1       2.947   6.473  19.237  0.00  0.00    +0.000 A 
ATOM     18  C   UNL     1       3.100   7.074  17.986  0.00  0.00    +0.000 A 
ATOM     19  C   UNL     1       2.480   8.294  17.732  0.00  0.00    +0.000 A 
ATOM     20  C   UNL     1       1.732   8.892  18.735  0.00  0.00    +0.000 A 
ATOM     21  C   UNL     1       1.614   8.222  19.943  0.00  0.00    +0.000 A 
ATOM     22  N   UNL     1       2.180   7.023  20.208  0.00  0.00    +0.000 NA
ENDBRANCH  16  17
ENDBRANCH   1  16
TORSDOF 8
ENDMDL
MODEL 8
REMARK VINA RESULT:      -6.5      2.942      6.005
REMARK  Name = 
REMARK  9 active torsions:
REMARK  status: ('A' for Active; 'I' for Inactive)
REMARK    1  A    between atoms: C_1  and  C_2
REMARK    2  A    between atoms: C_2  and  C_3
REMARK    3  A    between atoms: C_3  and  S_4
REMARK    4  A    between atoms: S_4  and  N_7
REMARK    5  A    between atoms: N_7  and  C_8
REMARK    6  A    between atoms: C_8  and  C_9
REMARK    7  A    between atoms: C_8  and  C_16
REMARK    8  A    between atoms: C_9  and  C_10
REMARK    9  A    between atoms: C_18  and  O_19
REMARK                            x       y       z     vdW  Elec       q    Type
REMARK                         _______ _______ _______ _____ _____    ______ ____
ROOT
ATOM      1  C   UNL     1       4.978   4.126  17.754  0.00  0.00    +0.000 C 
ENDROOT
BRANCH   1   2
ATOM      2  C   UNL     1       3.973   5.233  17.359  0.00  0.00    +0.000 C 
ATOM      3  C   UNL     1       2.522   5.189  17.903  0.00  0.00    +0.000 C 
ATOM      4  C   UNL     1       2.789   6.480  18.695  0.00  0.00    +0.000 C 
ATOM      5  C   UNL     1       4.078   6.686  17.879  0.00  0.00    +0.000 C 
BRANCH   4   6
ATOM      6  O   UNL     1       2.954   6.355  20.121  0.00  0.00    +0.000 OA
ATOM      7  H   UNL     1       3.877   6.588  20.305  0.00  0.00    +0.000 HD
ENDBRANCH   4   6
ENDBRANCH   1   2
BRANCH   1   8
ATOM      8  N   UNL     1       5.038   3.907  19.271  0.00  0.00    +0.000 NA
ATOM      9  H   UNL     1       6.039   3.848  19.506  0.00  0.00    +0.000 HD
BRANCH   8  10
ATOM     10  S   UNL     1       4.255   2.490  19.794  0.00  0.00    +0.000 S 
ATOM     11  O   UNL     1       5.257   1.720  20.494  0.00  0.00    +0.000 OA
ATOM     12  O   UNL     1       3.531   1.939  18.670  0.00  0.00    +0.000 OA
BRANCH  10  13
ATOM     13  C   UNL     1       3.015   3.020  20.991  0.00  0.00    +0.000 C 
BRANCH  13  15
ATOM     14  C   UNL     1       0.624   3.577  20.216  0.00  0.00    +0.000 C 
ATOM     15  C   UNL     1       1.660   2.505  20.485  0.00  0.00    +0.000 C 
ENDBRANCH  13  15
ENDBRANCH  10  13
ENDBRANCH   8  10
ENDBRANCH   1   8
BRANCH   1  16
ATOM     16  C   UNL     1       6.402   4.407  17.220  0.00  0.00    +0.000 C 
BRANCH  16  17
ATOM     17  C   UNL     1       6.545   4.509  15.714  0.00  0.00    +0.000 A 
ATOM     18  C   UNL     1       5.788   3.658  14.905  0.00  0.00    +0.000 A 
ATOM     19  C   UNL     1       5.983   3.671  13.528  0.00  0.00    +0.000 A 
ATOM     20  C   UNL     1       6.935   4.522  12.989  0.00  0.00    +0.000 A 
ATOM     21  C   UNL     1       7.633   5.347  13.857  0.00  0.00    +0.000 A 
ATOM     22  N   UNL     1       7.444   5.378  15.196  0.00  0.00    +0.000 NA
ENDBRANCH  16  17
ENDBRANCH   1  16
TORSDOF 8
ENDMDL
MODEL 9
REMARK VINA RESULT:      -6.4      3.406      5.334
REMARK  Name = 
REMARK  9 active torsions:
REMARK  status: ('A' for Active; 'I' for Inactive)
REMARK    1  A    between atoms: C_1  and  C_2
REMARK    2  A    between atoms: C_2  and  C_3
REMARK    3  A    between atoms: C_3  and  S_4
REMARK    4  A    between atoms: S_4  and  N_7
REMARK    5  A    between atoms: N_7  and  C_8
REMARK    6  A    between atoms: C_8  and  C_9
REMARK    7  A    between atoms: C_8  and  C_16
REMARK    8  A    between atoms: C_9  and  C_10
REMARK    9  A    between atoms: C_18  and  O_19
REMARK                            x       y       z     vdW  Elec       q    Type
REMARK                         _______ _______ _______ _____ _____    ______ ____
ROOT
ATOM      1  C   UNL     1       3.640   6.718  17.933  0.00  0.00    +0.000 C 
ENDROOT
BRANCH   1   2
ATOM      2  C   UNL     1       4.871   6.491  17.025  0.00  0.00    +0.000 C 
ATOM      3  C   UNL     1       6.282   6.363  17.655  0.00  0.00    +0.000 C 
ATOM      4  C   UNL     1       6.352   4.902  17.182  0.00  0.00    +0.000 C 
ATOM      5  C   UNL     1       5.130   5.160  16.281  0.00  0.00    +0.000 C 
BRANCH   4   6
ATOM      6  O   UNL     1       6.196   3.878  18.183  0.00  0.00    +0.000 OA
ATOM      7  H   UNL     1       5.648   4.268  18.882  0.00  0.00    +0.000 HD
ENDBRANCH   4   6
ENDBRANCH   1   2
BRANCH   1   8
ATOM      8  N   UNL     1       2.643   5.554  17.867  0.00  0.00    +0.000 NA
ATOM      9  H   UNL     1       1.710   5.978  17.968  0.00  0.00    +0.000 HD
BRANCH   8  10
ATOM     10  S   UNL     1       2.863   4.388  19.086  0.00  0.00    +0.000 S 
ATOM     11  O   UNL     1       3.836   4.947  19.996  0.00  0.00    +0.000 OA
ATOM     12  O   UNL     1       3.078   3.109  18.447  0.00  0.00    +0.000 OA
BRANCH  10  13
ATOM     13  C   UNL     1       1.285   4.269  19.951  0.00  0.00    +0.000 C 
BRANCH  13  15
ATOM     14  C   UNL     1       1.720   2.584  21.848  0.00  0.00    +0.000 C 
ATOM     15  C   UNL     1       1.165   2.825  20.460  0.00  0.00    +0.000 C 
ENDBRANCH  13  15
ENDBRANCH  10  13
ENDBRANCH   8  10
ENDBRANCH   1   8
BRANCH   1  16
ATOM     16  C   UNL     1       2.906   8.041  17.609  0.00  0.00    +0.000 C 
BRANCH  16  17
ATOM     17  C   UNL     1       1.921   8.533  18.651  0.00  0.00    +0.000 A 
ATOM     18  C   UNL     1       1.083   9.604  18.335  0.00  0.00    +0.000 A 
ATOM     19  C   UNL     1       0.247  10.132  19.314  0.00  0.00    +0.000 A 
ATOM     20  C   UNL     1       0.272   9.586  20.588  0.00  0.00    +0.000 A 
ATOM     21  C   UNL     1       1.119   8.512  20.816  0.00  0.00    +0.000 A 
ATOM     22  N   UNL     1       1.921   7.960  19.878  0.00  0.00    +0.000 NA
ENDBRANCH  16  17
ENDBRANCH   1  16
TORSDOF 8
ENDMDL
