MODEL 1
REMARK VINA RESULT:      -8.3      0.000      0.000
REMARK  Name = 
REMARK  7 active torsions:
REMARK  status: ('A' for Active; 'I' for Inactive)
REMARK    1  A    between atoms: C_2  and  C_12
REMARK    2  A    between atoms: N_3  and  C_4
REMARK    3  A    between atoms: C_4  and  C_5
REMARK    4  A    between atoms: C_5  and  C_6
REMARK    5  A    between atoms: C_6  and  N_7
REMARK    6  A    between atoms: C_16  and  C_17
REMARK    7  A    between atoms: C_17  and  C_18
REMARK                            x       y       z     vdW  Elec       q    Type
REMARK                         _______ _______ _______ _____ _____    ______ ____
ROOT
ATOM      1  C   UNL     1       1.958   5.622  20.154  0.00  0.00    +0.000 A 
ATOM      2  C   UNL     1       0.939   4.802  20.654  0.00  0.00    +0.000 A 
ATOM      3  C   UNL     1       1.093   3.417  20.627  0.00  0.00    +0.000 A 
ATOM      4  C   UNL     1       2.262   2.854  20.111  0.00  0.00    +0.000 A 
ATOM      5  C   UNL     1       3.282   3.666  19.594  0.00  0.00    +0.000 A 
ATOM      6  C   UNL     1       3.114   5.057  19.604  0.00  0.00    +0.000 A 
ENDROOT
BRANCH   1   8
ATOM      7  O   UNL     1       2.216   7.781  19.259  0.00  0.00    +0.000 OA
ATOM      8  C   UNL     1       1.861   7.101  20.213  0.00  0.00    +0.000 C 
ATOM      9  N   UNL     1       1.407   7.617  21.408  0.00  0.00    +0.000 N 
ATOM     10  H   UNL     1       1.268   6.992  22.191  0.00  0.00    +0.000 HD
BRANCH   9  11
ATOM     11  C   UNL     1       1.282   9.044  21.633  0.00  0.00    +0.000 C 
BRANCH  11  12
ATOM     12  C   UNL     1      -0.144   9.553  21.405  0.00  0.00    +0.000 C 
BRANCH  12  13
ATOM     13  C   UNL     1      -0.150  10.976  20.829  0.00  0.00    +0.000 C 
BRANCH  13  14
ATOM     14  N   UNL     1       0.284  11.076  19.423  0.00  0.00    +0.000 NA
ATOM     15  C   UNL     1      -0.109  12.382  18.856  0.00  0.00    +0.000 C 
ATOM     16  C   UNL     1      -1.551  12.195  18.414  0.00  0.00    +0.000 C 
ATOM     17  C   UNL     1      -1.579  10.766  17.907  0.00  0.00    +0.000 C 
ATOM     18  C   UNL     1      -0.357  10.094  18.530  0.00  0.00    +0.000 C 
ENDBRANCH  13  14
ENDBRANCH  12  13
ENDBRANCH  11  12
ENDBRANCH   9  11
ENDBRANCH   1   8
BRANCH   5  19
ATOM     19  C   UNL     1       4.583   3.055  19.121  0.00  0.00    +0.000 C 
BRANCH  19  20
ATOM     20  C   UNL     1       5.620   4.129  18.791  0.00  0.00    +0.000 A 
ATOM     21  N   UNL     1       6.240   4.667  19.803  0.00  0.00    +0.000 NA
ATOM     22  N   UNL     1       7.137   5.651  19.541  0.00  0.00    +0.000 N 
ATOM     23  C   UNL     1       7.440   6.154  18.307  0.00  0.00    +0.000 A 
ATOM     24  O   UNL     1       8.206   7.100  18.153  0.00  0.00    +0.000 OA
ATOM     25  C   UNL     1       6.795   5.472  17.158  0.00  0.00    +0.000 A 
ATOM     26  C   UNL     1       5.889   4.501  17.366  0.00  0.00    +0.000 A 
ATOM     27  C   UNL     1       5.196   3.796  16.233  0.00  0.00    +0.000 C 
ATOM     28  C   UNL     1       5.407   4.468  14.872  0.00  0.00    +0.000 C 
ATOM     29  C   UNL     1       6.852   4.917  14.696  0.00  0.00    +0.000 C 
ATOM     30  C   UNL     1       7.240   5.915  15.789  0.00  0.00    +0.000 C 
ATOM     31  H   UNL     1       7.566   6.102  20.342  0.00  0.00    +0.000 HD
ENDBRANCH  19  20
ENDBRANCH   5  19
TORSDOF 7
ENDMDL
MODEL 2
REMARK VINA RESULT:      -8.3      2.197      7.343
REMARK  Name = 
REMARK  7 active torsions:
REMARK  status: ('A' for Active; 'I' for Inactive)
REMARK    1  A    between atoms: C_2  and  C_12
REMARK    2  A    between atoms: N_3  and  C_4
REMARK    3  A    between atoms: C_4  and  C_5
REMARK    4  A    between atoms: C_5  and  C_6
REMARK    5  A    between atoms: C_6  and  N_7
REMARK    6  A    between atoms: C_16  and  C_17
REMARK    7  A    between atoms: C_17  and  C_18
REMARK                            x       y       z     vdW  Elec       q    Type
REMARK                         _______ _______ _______ _____ _____    ______ ____
ROOT
ATOM      1  C   UNL     1       2.759   3.054  18.661  0.00  0.00    +0.000 A 
ATOM      2  C   UNL     1       1.530   2.401  18.817  0.00  0.00    +0.000 A 
ATOM      3  C   UNL     1       0.568   2.936  19.673  0.00  0.00    +0.000 A 
ATOM      4  C   UNL     1       0.830   4.122  20.362  0.00  0.00    +0.000 A 
ATOM      5  C   UNL     1       2.063   4.776  20.224  0.00  0.00    +0.000 A 
ATOM      6  C   UNL     1       3.034   4.222  19.380  0.00  0.00    +0.000 A 
ENDROOT
BRANCH   1   8
ATOM      7  O   UNL     1       4.021   1.351  17.644  0.00  0.00    +0.000 OA
ATOM      8  C   UNL     1       3.789   2.550  17.721  0.00  0.00    +0.000 C 
ATOM      9  N   UNL     1       4.470   3.519  17.015  0.00  0.00    +0.000 N 
ATOM     10  H   UNL     1       4.312   4.493  17.240  0.00  0.00    +0.000 HD
BRANCH   9  11
ATOM     11  C   UNL     1       5.526   3.191  16.077  0.00  0.00    +0.000 C 
BRANCH  11  12
ATOM     12  C   UNL     1       6.489   4.357  15.841  0.00  0.00    +0.000 C 
BRANCH  12  13
ATOM     13  C   UNL     1       7.375   4.615  17.068  0.00  0.00    +0.000 C 
BRANCH  13  14
ATOM     14  N   UNL     1       6.777   5.496  18.089  0.00  0.00    +0.000 NA
ATOM     15  C   UNL     1       6.270   6.735  17.464  0.00  0.00    +0.000 C 
ATOM     16  C   UNL     1       7.482   7.644  17.366  0.00  0.00    +0.000 C 
ATOM     17  C   UNL     1       8.256   7.335  18.632  0.00  0.00    +0.000 C 
ATOM     18  C   UNL     1       7.738   5.976  19.098  0.00  0.00    +0.000 C 
ENDBRANCH  13  14
ENDBRANCH  12  13
ENDBRANCH  11  12
ENDBRANCH   9  11
ENDBRANCH   1   8
BRANCH   5  19
ATOM     19  C   UNL     1       2.305   6.107  20.902  0.00  0.00    +0.000 C 
BRANCH  19  20
ATOM     20  C   UNL     1       2.119   7.273  19.930  0.00  0.00    +0.000 A 
ATOM     21  N   UNL     1       2.656   7.137  18.752  0.00  0.00    +0.000 NA
ATOM     22  N   UNL     1       2.539   8.174  17.883  0.00  0.00    +0.000 N 
ATOM     23  C   UNL     1       1.925   9.368  18.136  0.00  0.00    +0.000 A 
ATOM     24  O   UNL     1       1.926  10.290  17.328  0.00  0.00    +0.000 OA
ATOM     25  C   UNL     1       1.240   9.475  19.448  0.00  0.00    +0.000 A 
ATOM     26  C   UNL     1       1.337   8.480  20.347  0.00  0.00    +0.000 A 
ATOM     27  C   UNL     1       0.676   8.553  21.696  0.00  0.00    +0.000 C 
ATOM     28  C   UNL     1       0.136   9.945  22.040  0.00  0.00    +0.000 C 
ATOM     29  C   UNL     1      -0.550  10.583  20.839  0.00  0.00    +0.000 C 
ATOM     30  C   UNL     1       0.430  10.724  19.673  0.00  0.00    +0.000 C 
ATOM     31  H   UNL     1       3.015   8.077  16.993  0.00  0.00    +0.000 HD
ENDBRANCH  19  20
ENDBRANCH   5  19
TORSDOF 7
ENDMDL
MODEL 3
REMARK VINA RESULT:      -8.3      1.493      2.158
REMARK  Name = 
REMARK  7 active torsions:
REMARK  status: ('A' for Active; 'I' for Inactive)
REMARK    1  A    between atoms: C_2  and  C_12
REMARK    2  A    between atoms: N_3  and  C_4
REMARK    3  A    between atoms: C_4  and  C_5
REMARK    4  A    between atoms: C_5  and  C_6
REMARK    5  A    between atoms: C_6  and  N_7
REMARK    6  A    between atoms: C_16  and  C_17
REMARK    7  A    between atoms: C_17  and  C_18
REMARK                            x       y       z     vdW  Elec       q    Type
REMARK                         _______ _______ _______ _____ _____    ______ ____
ROOT
ATOM      1  C   UNL     1       1.988   5.738  20.152  0.00  0.00    +0.000 A 
ATOM      2  C   UNL     1       0.990   4.873  20.617  0.00  0.00    +0.000 A 
ATOM      3  C   UNL     1       1.184   3.494  20.549  0.00  0.00    +0.000 A 
ATOM      4  C   UNL     1       2.374   2.982  20.028  0.00  0.00    +0.000 A 
ATOM      5  C   UNL     1       3.374   3.839  19.545  0.00  0.00    +0.000 A 
ATOM      6  C   UNL     1       3.164   5.224  19.595  0.00  0.00    +0.000 A 
ENDROOT
BRANCH   1   8
ATOM      7  O   UNL     1       2.121   7.925  19.298  0.00  0.00    +0.000 OA
ATOM      8  C   UNL     1       1.846   7.210  20.254  0.00  0.00    +0.000 C 
ATOM      9  N   UNL     1       1.448   7.682  21.486  0.00  0.00    +0.000 N 
ATOM     10  H   UNL     1       1.375   7.034  22.260  0.00  0.00    +0.000 HD
BRANCH   9  11
ATOM     11  C   UNL     1       1.289   9.098  21.755  0.00  0.00    +0.000 C 
BRANCH  11  12
ATOM     12  C   UNL     1      -0.170   9.554  21.673  0.00  0.00    +0.000 C 
BRANCH  12  13
ATOM     13  C   UNL     1      -0.319  10.822  20.822  0.00  0.00    +0.000 C 
BRANCH  13  14
ATOM     14  N   UNL     1       0.027  10.656  19.398  0.00  0.00    +0.000 NA
ATOM     15  C   UNL     1       0.540  11.925  18.842  0.00  0.00    +0.000 C 
ATOM     16  C   UNL     1      -0.703  12.714  18.466  0.00  0.00    +0.000 C 
ATOM     17  C   UNL     1      -1.658  11.646  17.967  0.00  0.00    +0.000 C 
ATOM     18  C   UNL     1      -1.126  10.334  18.539  0.00  0.00    +0.000 C 
ENDBRANCH  13  14
ENDBRANCH  12  13
ENDBRANCH  11  12
ENDBRANCH   9  11
ENDBRANCH   1   8
BRANCH   5  19
ATOM     19  C   UNL     1       4.696   3.281  19.066  0.00  0.00    +0.000 C 
BRANCH  19  20
ATOM     20  C   UNL     1       5.192   4.009  17.815  0.00  0.00    +0.000 A 
ATOM     21  N   UNL     1       4.635   3.670  16.688  0.00  0.00    +0.000 NA
ATOM     22  N   UNL     1       5.084   4.272  15.558  0.00  0.00    +0.000 N 
ATOM     23  C   UNL     1       6.090   5.194  15.484  0.00  0.00    +0.000 A 
ATOM     24  O   UNL     1       6.496   5.639  14.416  0.00  0.00    +0.000 OA
ATOM     25  C   UNL     1       6.653   5.638  16.783  0.00  0.00    +0.000 A 
ATOM     26  C   UNL     1       6.251   5.062  17.929  0.00  0.00    +0.000 A 
ATOM     27  C   UNL     1       6.807   5.466  19.267  0.00  0.00    +0.000 C 
ATOM     28  C   UNL     1       8.042   6.369  19.170  0.00  0.00    +0.000 C 
ATOM     29  C   UNL     1       7.870   7.424  18.086  0.00  0.00    +0.000 C 
ATOM     30  C   UNL     1       7.651   6.764  16.724  0.00  0.00    +0.000 C 
ATOM     31  H   UNL     1       4.684   3.953  14.682  0.00  0.00    +0.000 HD
ENDBRANCH  19  20
ENDBRANCH   5  19
TORSDOF 7
ENDMDL
MODEL 4
REMARK VINA RESULT:      -8.2      3.617      7.474
REMARK  Name = 
REMARK  7 active torsions:
REMARK  status: ('A' for Active; 'I' for Inactive)
REMARK    1  A    between atoms: C_2  and  C_12
REMARK    2  A    between atoms: N_3  and  C_4
REMARK    3  A    between atoms: C_4  and  C_5
REMARK    4  A    between atoms: C_5  and  C_6
REMARK    5  A    between atoms: C_6  and  N_7
REMARK    6  A    between atoms: C_16  and  C_17
REMARK    7  A    between atoms: C_17  and  C_18
REMARK                            x       y       z     vdW  Elec       q    Type
REMARK                         _______ _______ _______ _____ _____    ______ ____
ROOT
ATOM      1  C   UNL     1       6.791   5.359  17.126  0.00  0.00    +0.000 A 
ATOM      2  C   UNL     1       6.964   5.665  15.771  0.00  0.00    +0.000 A 
ATOM      3  C   UNL     1       6.166   5.038  14.815  0.00  0.00    +0.000 A 
ATOM      4  C   UNL     1       5.194   4.117  15.212  0.00  0.00    +0.000 A 
ATOM      5  C   UNL     1       5.023   3.792  16.566  0.00  0.00    +0.000 A 
ATOM      6  C   UNL     1       5.843   4.409  17.521  0.00  0.00    +0.000 A 
ENDROOT
BRANCH   1   8
ATOM      7  O   UNL     1       7.886   5.445  19.205  0.00  0.00    +0.000 OA
ATOM      8  C   UNL     1       7.580   6.041  18.180  0.00  0.00    +0.000 C 
ATOM      9  N   UNL     1       7.875   7.365  17.935  0.00  0.00    +0.000 N 
ATOM     10  H   UNL     1       7.465   7.818  17.128  0.00  0.00    +0.000 HD
BRANCH   9  11
ATOM     11  C   UNL     1       8.615   8.178  18.880  0.00  0.00    +0.000 C 
BRANCH  11  12
ATOM     12  C   UNL     1       8.679   9.651  18.468  0.00  0.00    +0.000 C 
BRANCH  12  13
ATOM     13  C   UNL     1       9.316  10.517  19.563  0.00  0.00    +0.000 C 
BRANCH  13  14
ATOM     14  N   UNL     1       9.673  11.884  19.142  0.00  0.00    +0.000 NA
ATOM     15  C   UNL     1      10.540  11.843  17.946  0.00  0.00    +0.000 C 
ATOM     16  C   UNL     1      11.942  11.627  18.490  0.00  0.00    +0.000 C 
ATOM     17  C   UNL     1      11.946  12.431  19.777  0.00  0.00    +0.000 C 
ATOM     18  C   UNL     1      10.474  12.624  20.134  0.00  0.00    +0.000 C 
ENDBRANCH  13  14
ENDBRANCH  12  13
ENDBRANCH  11  12
ENDBRANCH   9  11
ENDBRANCH   1   8
BRANCH   5  19
ATOM     19  C   UNL     1       3.910   2.863  16.997  0.00  0.00    +0.000 C 
BRANCH  19  20
ATOM     20  C   UNL     1       3.476   3.138  18.438  0.00  0.00    +0.000 A 
ATOM     21  N   UNL     1       3.664   2.174  19.294  0.00  0.00    +0.000 NA
ATOM     22  N   UNL     1       3.252   2.378  20.571  0.00  0.00    +0.000 N 
ATOM     23  C   UNL     1       2.633   3.499  21.047  0.00  0.00    +0.000 A 
ATOM     24  O   UNL     1       2.218   3.582  22.198  0.00  0.00    +0.000 OA
ATOM     25  C   UNL     1       2.507   4.622  20.085  0.00  0.00    +0.000 A 
ATOM     26  C   UNL     1       2.888   4.465  18.805  0.00  0.00    +0.000 A 
ATOM     27  C   UNL     1       2.761   5.569  17.791  0.00  0.00    +0.000 C 
ATOM     28  C   UNL     1       1.920   6.755  18.277  0.00  0.00    +0.000 C 
ATOM     29  C   UNL     1       2.246   7.106  19.722  0.00  0.00    +0.000 C 
ATOM     30  C   UNL     1       1.968   5.914  20.640  0.00  0.00    +0.000 C 
ATOM     31  H   UNL     1       3.350   1.597  21.210  0.00  0.00    +0.000 HD
ENDBRANCH  19  20
ENDBRANCH   5  19
TORSDOF 7
ENDMDL
MODEL 5
REMARK VINA RESULT:      -8.1      2.614      8.683
REMARK  Name = 
REMARK  7 active torsions:
REMARK  status: ('A' for Active; 'I' for Inactive)
REMARK    1  A    between atoms: C_2  and  C_12
REMARK    2  A    between atoms: N_3  and  C_4
REMARK    3  A    between atoms: C_4  and  C_5
REMARK    4  A    between atoms: C_5  and  C_6
REMARK    5  A    between atoms: C_6  and  N_7
REMARK    6  A    between atoms: C_16  and  C_17
REMARK    7  A    between atoms: C_17  and  C_18
REMARK                            x       y       z     vdW  Elec       q    Type
REMARK                         _______ _______ _______ _____ _____    ______ ____
ROOT
ATOM      1  C   UNL     1       2.503   7.084  19.444  0.00  0.00    +0.000 A 
ATOM      2  C   UNL     1       1.916   7.026  20.714  0.00  0.00    +0.000 A 
ATOM      3  C   UNL     1       1.090   8.065  21.140  0.00  0.00    +0.000 A 
ATOM      4  C   UNL     1       0.845   9.153  20.299  0.00  0.00    +0.000 A 
ATOM      5  C   UNL     1       1.441   9.229  19.032  0.00  0.00    +0.000 A 
ATOM      6  C   UNL     1       2.287   8.192  18.616  0.00  0.00    +0.000 A 
ENDROOT
BRANCH   1   8
ATOM      7  O   UNL     1       4.394   5.688  19.486  0.00  0.00    +0.000 OA
ATOM      8  C   UNL     1       3.343   5.977  18.928  0.00  0.00    +0.000 C 
ATOM      9  N   UNL     1       2.881   5.368  17.781  0.00  0.00    +0.000 N 
ATOM     10  H   UNL     1       2.077   5.760  17.307  0.00  0.00    +0.000 HD
BRANCH   9  11
ATOM     11  C   UNL     1       3.603   4.288  17.137  0.00  0.00    +0.000 C 
BRANCH  11  12
ATOM     12  C   UNL     1       2.963   2.920  17.388  0.00  0.00    +0.000 C 
BRANCH  12  13
ATOM     13  C   UNL     1       3.256   2.411  18.806  0.00  0.00    +0.000 C 
BRANCH  13  14
ATOM     14  N   UNL     1       2.097   1.826  19.506  0.00  0.00    +0.000 NA
ATOM     15  C   UNL     1       0.852   2.505  19.094  0.00  0.00    +0.000 C 
ATOM     16  C   UNL     1       0.777   3.744  19.971  0.00  0.00    +0.000 C 
ATOM     17  C   UNL     1       1.337   3.268  21.297  0.00  0.00    +0.000 C 
ATOM     18  C   UNL     1       2.132   2.006  20.968  0.00  0.00    +0.000 C 
ENDBRANCH  13  14
ENDBRANCH  12  13
ENDBRANCH  11  12
ENDBRANCH   9  11
ENDBRANCH   1   8
BRANCH   5  19
ATOM     19  C   UNL     1       1.100  10.363  18.091  0.00  0.00    +0.000 C 
BRANCH  19  20
ATOM     20  C   UNL     1       0.014  11.269  18.675  0.00  0.00    +0.000 A 
ATOM     21  N   UNL     1       0.420  12.239  19.444  0.00  0.00    +0.000 NA
ATOM     22  N   UNL     1      -0.526  13.033  20.006  0.00  0.00    +0.000 N 
ATOM     23  C   UNL     1      -1.878  12.899  19.861  0.00  0.00    +0.000 A 
ATOM     24  O   UNL     1      -2.676  13.608  20.464  0.00  0.00    +0.000 OA
ATOM     25  C   UNL     1      -2.322  11.847  18.913  0.00  0.00    +0.000 A 
ATOM     26  C   UNL     1      -1.425  11.027  18.341  0.00  0.00    +0.000 A 
ATOM     27  C   UNL     1      -1.831   9.935  17.389  0.00  0.00    +0.000 C 
ATOM     28  C   UNL     1      -3.341   9.678  17.359  0.00  0.00    +0.000 C 
ATOM     29  C   UNL     1      -4.124  10.985  17.370  0.00  0.00    +0.000 C 
ATOM     30  C   UNL     1      -3.799  11.793  18.628  0.00  0.00    +0.000 C 
ATOM     31  H   UNL     1      -0.198  13.746  20.650  0.00  0.00    +0.000 HD
ENDBRANCH  19  20
ENDBRANCH   5  19
TORSDOF 7
ENDMDL
MODEL 6
REMARK VINA RESULT:      -8.0      2.580      9.015
REMARK  Name = 
REMARK  7 active torsions:
REMARK  status: ('A' for Active; 'I' for Inactive)
REMARK    1  A    between atoms: C_2  and  C_12
REMARK    2  A    between atoms: N_3  and  C_4
REMARK    3  A    between atoms: C_4  and  C_5
REMARK    4  A    between atoms: C_5  and  C_6
REMARK    5  A    between atoms: C_6  and  N_7
REMARK    6  A    between atoms: C_16  and  C_17
REMARK    7  A    between atoms: C_17  and  C_18
REMARK                            x       y       z     vdW  Elec       q    Type
REMARK                         _______ _______ _______ _____ _____    ______ ____
ROOT
ATOM      1  C   UNL     1       2.231   7.926  18.911  0.00  0.00    +0.000 A 
ATOM      2  C   UNL     1       1.768   7.528  20.172  0.00  0.00    +0.000 A 
ATOM      3  C   UNL     1       1.002   8.408  20.935  0.00  0.00    +0.000 A 
ATOM      4  C   UNL     1       0.693   9.676  20.437  0.00  0.00    +0.000 A 
ATOM      5  C   UNL     1       1.164  10.090  19.183  0.00  0.00    +0.000 A 
ATOM      6  C   UNL     1       1.952   9.209  18.429  0.00  0.00    +0.000 A 
ENDROOT
BRANCH   1   8
ATOM      7  O   UNL     1       3.860   7.440  17.287  0.00  0.00    +0.000 OA
ATOM      8  C   UNL     1       3.002   7.004  18.044  0.00  0.00    +0.000 C 
ATOM      9  N   UNL     1       2.641   5.676  18.123  0.00  0.00    +0.000 N 
ATOM     10  H   UNL     1       1.829   5.419  18.670  0.00  0.00    +0.000 HD
BRANCH   9  11
ATOM     11  C   UNL     1       3.281   4.653  17.319  0.00  0.00    +0.000 C 
BRANCH  11  12
ATOM     12  C   UNL     1       4.210   3.754  18.138  0.00  0.00    +0.000 C 
BRANCH  12  13
ATOM     13  C   UNL     1       3.854   3.786  19.631  0.00  0.00    +0.000 C 
BRANCH  13  14
ATOM     14  N   UNL     1       3.259   2.542  20.153  0.00  0.00    +0.000 NA
ATOM     15  C   UNL     1       2.115   2.130  19.315  0.00  0.00    +0.000 C 
ATOM     16  C   UNL     1       0.938   2.933  19.842  0.00  0.00    +0.000 C 
ATOM     17  C   UNL     1       1.193   2.989  21.336  0.00  0.00    +0.000 C 
ATOM     18  C   UNL     1       2.679   2.678  21.501  0.00  0.00    +0.000 C 
ENDBRANCH  13  14
ENDBRANCH  12  13
ENDBRANCH  11  12
ENDBRANCH   9  11
ENDBRANCH   1   8
BRANCH   5  19
ATOM     19  C   UNL     1       0.751  11.428  18.612  0.00  0.00    +0.000 C 
BRANCH  19  20
ATOM     20  C   UNL     1      -0.641  11.839  19.098  0.00  0.00    +0.000 A 
ATOM     21  N   UNL     1      -0.683  12.636  20.127  0.00  0.00    +0.000 NA
ATOM     22  N   UNL     1      -1.906  12.985  20.602  0.00  0.00    +0.000 N 
ATOM     23  C   UNL     1      -3.110  12.558  20.115  0.00  0.00    +0.000 A 
ATOM     24  O   UNL     1      -4.175  12.854  20.646  0.00  0.00    +0.000 OA
ATOM     25  C   UNL     1      -3.048  11.724  18.889  0.00  0.00    +0.000 A 
ATOM     26  C   UNL     1      -1.861  11.341  18.388  0.00  0.00    +0.000 A 
ATOM     27  C   UNL     1      -1.751  10.481  17.159  0.00  0.00    +0.000 C 
ATOM     28  C   UNL     1      -3.085   9.869  16.717  0.00  0.00    +0.000 C 
ATOM     29  C   UNL     1      -4.217  10.884  16.816  0.00  0.00    +0.000 C 
ATOM     30  C   UNL     1      -4.369  11.378  18.256  0.00  0.00    +0.000 C 
ATOM     31  H   UNL     1      -1.922  13.556  21.440  0.00  0.00    +0.000 HD
ENDBRANCH  19  20
ENDBRANCH   5  19
TORSDOF 7
ENDMDL
MODEL 7
REMARK VINA RESULT:      -8.0      3.457      8.335
REMARK  Name = 
REMARK  7 active torsions:
REMARK  status: ('A' for Active; 'I' for Inactive)
REMARK    1  A    between atoms: C_2  and  C_12
REMARK    2  A    between atoms: N_3  and  C_4
REMARK    3  A    between atoms: C_4  and  C_5
REMARK    4  A    between atoms: C_5  and  C_6
REMARK    5  A    between atoms: C_6  and  N_7
REMARK    6  A    between atoms: C_16  and  C_17
REMARK    7  A    between atoms: C_17  and  C_18
REMARK                            x       y       z     vdW  Elec       q    Type
REMARK                         _______ _______ _______ _____ _____    ______ ____
ROOT
ATOM      1  C   UNL     1       4.725   6.471  17.395  0.00  0.00    +0.000 A 
ATOM      2  C   UNL     1       4.311   5.138  17.498  0.00  0.00    +0.000 A 
ATOM      3  C   UNL     1       2.982   4.850  17.805  0.00  0.00    +0.000 A 
ATOM      4  C   UNL     1       2.069   5.889  17.999  0.00  0.00    +0.000 A 
ATOM      5  C   UNL     1       2.477   7.228  17.914  0.00  0.00    +0.000 A 
ATOM      6  C   UNL     1       3.819   7.512  17.626  0.00  0.00    +0.000 A 
ENDROOT
BRANCH   1   8
ATOM      7  O   UNL     1       6.631   6.323  16.026  0.00  0.00    +0.000 OA
ATOM      8  C   UNL     1       6.115   6.823  17.017  0.00  0.00    +0.000 C 
ATOM      9  N   UNL     1       6.762   7.683  17.879  0.00  0.00    +0.000 N 
ATOM     10  H   UNL     1       6.311   7.939  18.748  0.00  0.00    +0.000 HD
BRANCH   9  11
ATOM     11  C   UNL     1       8.134   8.101  17.664  0.00  0.00    +0.000 C 
BRANCH  11  12
ATOM     12  C   UNL     1       8.326   9.609  17.849  0.00  0.00    +0.000 C 
BRANCH  12  13
ATOM     13  C   UNL     1       9.123   9.925  19.123  0.00  0.00    +0.000 C 
BRANCH  13  14
ATOM     14  N   UNL     1       9.389  11.358  19.347  0.00  0.00    +0.000 NA
ATOM     15  C   UNL     1       9.837  11.999  18.094  0.00  0.00    +0.000 C 
ATOM     16  C   UNL     1      11.328  11.716  18.025  0.00  0.00    +0.000 C 
ATOM     17  C   UNL     1      11.768  11.797  19.474  0.00  0.00    +0.000 C 
ATOM     18  C   UNL     1      10.490  11.619  20.291  0.00  0.00    +0.000 C 
ENDBRANCH  13  14
ENDBRANCH  12  13
ENDBRANCH  11  12
ENDBRANCH   9  11
ENDBRANCH   1   8
BRANCH   5  19
ATOM     19  C   UNL     1       1.466   8.347  18.035  0.00  0.00    +0.000 C 
BRANCH  19  20
ATOM     20  C   UNL     1       1.278   8.777  19.491  0.00  0.00    +0.000 A 
ATOM     21  N   UNL     1       1.895   8.065  20.390  0.00  0.00    +0.000 NA
ATOM     22  N   UNL     1       1.713   8.401  21.693  0.00  0.00    +0.000 N 
ATOM     23  C   UNL     1       0.920   9.412  22.159  0.00  0.00    +0.000 A 
ATOM     24  O   UNL     1       0.742   9.608  23.356  0.00  0.00    +0.000 OA
ATOM     25  C   UNL     1       0.296  10.270  21.121  0.00  0.00    +0.000 A 
ATOM     26  C   UNL     1       0.435   9.971  19.819  0.00  0.00    +0.000 A 
ATOM     27  C   UNL     1      -0.194  10.801  18.734  0.00  0.00    +0.000 C 
ATOM     28  C   UNL     1      -1.211  11.822  19.256  0.00  0.00    +0.000 C 
ATOM     29  C   UNL     1      -0.707  12.507  20.520  0.00  0.00    +0.000 C 
ATOM     30  C   UNL     1      -0.452  11.477  21.622  0.00  0.00    +0.000 C 
ATOM     31  H   UNL     1       2.150   7.800  22.383  0.00  0.00    +0.000 HD
ENDBRANCH  19  20
ENDBRANCH   5  19
TORSDOF 7
ENDMDL
MODEL 8
REMARK VINA RESULT:      -8.0      2.413      8.595
REMARK  Name = 
REMARK  7 active torsions:
REMARK  status: ('A' for Active; 'I' for Inactive)
REMARK    1  A    between atoms: C_2  and  C_12
REMARK    2  A    between atoms: N_3  and  C_4
REMARK    3  A    between atoms: C_4  and  C_5
REMARK    4  A    between atoms: C_5  and  C_6
REMARK    5  A    between atoms: C_6  and  N_7
REMARK    6  A    between atoms: C_16  and  C_17
REMARK    7  A    between atoms: C_17  and  C_18
REMARK                            x       y       z     vdW  Elec       q    Type
REMARK                         _______ _______ _______ _____ _____    ______ ____
ROOT
ATOM      1  C   UNL     1       2.702   7.127  19.065  0.00  0.00    +0.000 A 
ATOM      2  C   UNL     1       2.126   6.946  20.329  0.00  0.00    +0.000 A 
ATOM      3  C   UNL     1       1.258   7.912  20.835  0.00  0.00    +0.000 A 
ATOM      4  C   UNL     1       0.961   9.048  20.080  0.00  0.00    +0.000 A 
ATOM      5  C   UNL     1       1.544   9.247  18.821  0.00  0.00    +0.000 A 
ATOM      6  C   UNL     1       2.433   8.283  18.325  0.00  0.00    +0.000 A 
ENDROOT
BRANCH   1   8
ATOM      7  O   UNL     1       3.579   5.909  17.256  0.00  0.00    +0.000 OA
ATOM      8  C   UNL     1       3.588   6.100  18.465  0.00  0.00    +0.000 C 
ATOM      9  N   UNL     1       4.346   5.377  19.360  0.00  0.00    +0.000 N 
ATOM     10  H   UNL     1       4.191   5.504  20.352  0.00  0.00    +0.000 HD
BRANCH   9  11
ATOM     11  C   UNL     1       5.242   4.319  18.933  0.00  0.00    +0.000 C 
BRANCH  11  12
ATOM     12  C   UNL     1       4.722   2.925  19.295  0.00  0.00    +0.000 C 
BRANCH  12  13
ATOM     13  C   UNL     1       3.724   2.979  20.460  0.00  0.00    +0.000 C 
BRANCH  13  14
ATOM     14  N   UNL     1       2.498   2.183  20.263  0.00  0.00    +0.000 NA
ATOM     15  C   UNL     1       2.078   2.230  18.847  0.00  0.00    +0.000 C 
ATOM     16  C   UNL     1       1.283   3.518  18.720  0.00  0.00    +0.000 C 
ATOM     17  C   UNL     1       0.553   3.611  20.047  0.00  0.00    +0.000 C 
ATOM     18  C   UNL     1       1.328   2.700  20.996  0.00  0.00    +0.000 C 
ENDBRANCH  13  14
ENDBRANCH  12  13
ENDBRANCH  11  12
ENDBRANCH   9  11
ENDBRANCH   1   8
BRANCH   5  19
ATOM     19  C   UNL     1       1.148  10.433  17.970  0.00  0.00    +0.000 C 
BRANCH  19  20
ATOM     20  C   UNL     1       0.057  11.267  18.644  0.00  0.00    +0.000 A 
ATOM     21  N   UNL     1       0.459  12.172  19.490  0.00  0.00    +0.000 NA
ATOM     22  N   UNL     1      -0.491  12.900  20.131  0.00  0.00    +0.000 N 
ATOM     23  C   UNL     1      -1.843  12.757  19.992  0.00  0.00    +0.000 A 
ATOM     24  O   UNL     1      -2.643  13.398  20.664  0.00  0.00    +0.000 OA
ATOM     25  C   UNL     1      -2.285  11.786  18.960  0.00  0.00    +0.000 A 
ATOM     26  C   UNL     1      -1.383  11.033  18.307  0.00  0.00    +0.000 A 
ATOM     27  C   UNL     1      -1.786  10.022  17.269  0.00  0.00    +0.000 C 
ATOM     28  C   UNL     1      -3.293   9.745  17.234  0.00  0.00    +0.000 C 
ATOM     29  C   UNL     1      -4.094  11.034  17.369  0.00  0.00    +0.000 C 
ATOM     30  C   UNL     1      -3.764  11.734  18.689  0.00  0.00    +0.000 C 
ATOM     31  H   UNL     1      -0.165  13.558  20.831  0.00  0.00    +0.000 HD
ENDBRANCH  19  20
ENDBRANCH   5  19
TORSDOF 7
ENDMDL
MODEL 9
REMARK VINA RESULT:      -8.0      2.319      8.390
REMARK  Name = 
REMARK  7 active torsions:
REMARK  status: ('A' for Active; 'I' for Inactive)
REMARK    1  A    between atoms: C_2  and  C_12
REMARK    2  A    between atoms: N_3  and  C_4
REMARK    3  A    between atoms: C_4  and  C_5
REMARK    4  A    between atoms: C_5  and  C_6
REMARK    5  A    between atoms: C_6  and  N_7
REMARK    6  A    between atoms: C_16  and  C_17
REMARK    7  A    between atoms: C_17  and  C_18
REMARK                            x       y       z     vdW  Elec       q    Type
REMARK                         _______ _______ _______ _____ _____    ______ ____
ROOT
ATOM      1  C   UNL     1       2.389   6.103  18.893  0.00  0.00    +0.000 A 
ATOM      2  C   UNL     1       1.982   6.080  20.232  0.00  0.00    +0.000 A 
ATOM      3  C   UNL     1       1.509   7.248  20.829  0.00  0.00    +0.000 A 
ATOM      4  C   UNL     1       1.436   8.430  20.089  0.00  0.00    +0.000 A 
ATOM      5  C   UNL     1       1.856   8.467  18.752  0.00  0.00    +0.000 A 
ATOM      6  C   UNL     1       2.351   7.296  18.162  0.00  0.00    +0.000 A 
ENDROOT
BRANCH   1   8
ATOM      7  O   UNL     1       2.320   3.796  18.444  0.00  0.00    +0.000 OA
ATOM      8  C   UNL     1       2.848   4.873  18.202  0.00  0.00    +0.000 C 
ATOM      9  N   UNL     1       3.913   5.040  17.343  0.00  0.00    +0.000 N 
ATOM     10  H   UNL     1       4.379   5.938  17.306  0.00  0.00    +0.000 HD
BRANCH   9  11
ATOM     11  C   UNL     1       4.495   3.930  16.613  0.00  0.00    +0.000 C 
BRANCH  11  12
ATOM     12  C   UNL     1       5.697   4.350  15.762  0.00  0.00    +0.000 C 
BRANCH  12  13
ATOM     13  C   UNL     1       6.833   4.912  16.628  0.00  0.00    +0.000 C 
BRANCH  13  14
ATOM     14  N   UNL     1       6.393   5.760  17.752  0.00  0.00    +0.000 NA
ATOM     15  C   UNL     1       6.309   7.173  17.327  0.00  0.00    +0.000 C 
ATOM     16  C   UNL     1       7.727   7.703  17.460  0.00  0.00    +0.000 C 
ATOM     17  C   UNL     1       8.251   6.996  18.695  0.00  0.00    +0.000 C 
ATOM     18  C   UNL     1       7.338   5.786  18.883  0.00  0.00    +0.000 C 
ENDBRANCH  13  14
ENDBRANCH  12  13
ENDBRANCH  11  12
ENDBRANCH   9  11
ENDBRANCH   1   8
BRANCH   5  19
ATOM     19  C   UNL     1       1.689   9.726  17.930  0.00  0.00    +0.000 C 
BRANCH  19  20
ATOM     20  C   UNL     1       0.821  10.757  18.654  0.00  0.00    +0.000 A 
ATOM     21  N   UNL     1       1.445  11.600  19.427  0.00  0.00    +0.000 NA
ATOM     22  N   UNL     1       0.694  12.500  20.112  0.00  0.00    +0.000 N 
ATOM     23  C   UNL     1      -0.668  12.595  20.087  0.00  0.00    +0.000 A 
ATOM     24  O   UNL     1      -1.284  13.384  20.795  0.00  0.00    +0.000 OA
ATOM     25  C   UNL     1      -1.359  11.690  19.135  0.00  0.00    +0.000 A 
ATOM     26  C   UNL     1      -0.662  10.772  18.444  0.00  0.00    +0.000 A 
ATOM     27  C   UNL     1      -1.321   9.821  17.483  0.00  0.00    +0.000 C 
ATOM     28  C   UNL     1      -2.851   9.814  17.581  0.00  0.00    +0.000 C 
ATOM     29  C   UNL     1      -3.401  11.227  17.727  0.00  0.00    +0.000 C 
ATOM     30  C   UNL     1      -2.843  11.892  18.986  0.00  0.00    +0.000 C 
ATOM     31  H   UNL     1       1.189  13.108  20.756  0.00  0.00    +0.000 HD
ENDBRANCH  19  20
ENDBRANCH   5  19
TORSDOF 7
ENDMDL
