MODEL 1
REMARK VINA RESULT:      -6.2      0.000      0.000
REMARK  Name = 
REMARK  6 active torsions:
REMARK  status: ('A' for Active; 'I' for Inactive)
REMARK    1  A    between atoms: C_1  and  N_2
REMARK    2  A    between atoms: N_2  and  C_3
REMARK    3  A    between atoms: N_2  and  C_4
REMARK    4  A    between atoms: C_4  and  S_6
REMARK    5  A    between atoms: S_6  and  C_7
REMARK    6  A    between atoms: C_7  and  C_8
REMARK                            x       y       z     vdW  Elec       q    Type
REMARK                         _______ _______ _______ _____ _____    ______ ____
ROOT
ATOM      1  C   UNL     1       4.202   3.622  17.370  0.00  0.00    +0.000 A 
ATOM      2  N   UNL     1       2.937   3.999  17.460  0.00  0.00    +0.000 NA
ATOM      3  C   UNL     1       2.532   3.647  18.727  0.00  0.00    +0.000 A 
ATOM      4  C   UNL     1       1.285   3.802  19.346  0.00  0.00    +0.000 A 
ATOM      5  C   UNL     1       1.126   3.342  20.662  0.00  0.00    +0.000 A 
ATOM      6  C   UNL     1       2.189   2.746  21.345  0.00  0.00    +0.000 A 
ATOM      7  C   UNL     1       3.439   2.588  20.744  0.00  0.00    +0.000 A 
ATOM      8  C   UNL     1       3.570   3.049  19.431  0.00  0.00    +0.000 A 
ATOM      9  N   UNL     1       4.610   3.053  18.554  0.00  0.00    +0.000 N 
ATOM     10  H   UNL     1       5.546   2.695  18.725  0.00  0.00    +0.000 HD
ENDROOT
BRANCH   1  11
ATOM     11  C   UNL     1       5.102   3.771  16.173  0.00  0.00    +0.000 C 
BRANCH  11  12
ATOM     12  S   UNL     1       6.729   4.438  16.667  0.00  0.00    +0.000 S 
BRANCH  12  13
ATOM     13  C   UNL     1       6.415   6.139  17.013  0.00  0.00    +0.000 C 
ATOM     14  S   UNL     1       5.036   6.903  16.425  0.00  0.00    +0.000 S 
BRANCH  13  16
ATOM     15  C   UNL     1       7.820   8.102  17.659  0.00  0.00    +0.000 C 
ATOM     16  N   UNL     1       7.338   6.741  17.890  0.00  0.00    +0.000 N 
ATOM     17  C   UNL     1       7.892   6.057  19.059  0.00  0.00    +0.000 C 
ENDBRANCH  13  16
ENDBRANCH  12  13
ENDBRANCH  11  12
ENDBRANCH   1  11
TORSDOF 4
ENDMDL
MODEL 2
REMARK VINA RESULT:      -6.2      1.493      2.059
REMARK  Name = 
REMARK  6 active torsions:
REMARK  status: ('A' for Active; 'I' for Inactive)
REMARK    1  A    between atoms: C_1  and  N_2
REMARK    2  A    between atoms: N_2  and  C_3
REMARK    3  A    between atoms: N_2  and  C_4
REMARK    4  A    between atoms: C_4  and  S_6
REMARK    5  A    between atoms: S_6  and  C_7
REMARK    6  A    between atoms: C_7  and  C_8
REMARK                            x       y       z     vdW  Elec       q    Type
REMARK                         _______ _______ _______ _____ _____    ______ ____
ROOT
ATOM      1  C   UNL     1       3.406   6.101  18.355  0.00  0.00    +0.000 A 
ATOM      2  N   UNL     1       2.727   5.156  17.724  0.00  0.00    +0.000 NA
ATOM      3  C   UNL     1       2.175   4.371  18.709  0.00  0.00    +0.000 A 
ATOM      4  C   UNL     1       1.373   3.227  18.601  0.00  0.00    +0.000 A 
ATOM      5  C   UNL     1       0.942   2.595  19.776  0.00  0.00    +0.000 A 
ATOM      6  C   UNL     1       1.298   3.096  21.030  0.00  0.00    +0.000 A 
ATOM      7  C   UNL     1       2.093   4.238  21.155  0.00  0.00    +0.000 A 
ATOM      8  C   UNL     1       2.514   4.845  19.970  0.00  0.00    +0.000 A 
ATOM      9  N   UNL     1       3.283   5.938  19.716  0.00  0.00    +0.000 N 
ATOM     10  H   UNL     1       3.712   6.549  20.406  0.00  0.00    +0.000 HD
ENDROOT
BRANCH   1  11
ATOM     11  C   UNL     1       4.207   7.207  17.725  0.00  0.00    +0.000 C 
BRANCH  11  12
ATOM     12  S   UNL     1       5.009   6.629  16.188  0.00  0.00    +0.000 S 
BRANCH  12  13
ATOM     13  C   UNL     1       6.455   5.785  16.743  0.00  0.00    +0.000 C 
ATOM     14  S   UNL     1       6.943   4.341  16.032  0.00  0.00    +0.000 S 
BRANCH  13  16
ATOM     15  C   UNL     1       7.679   7.832  17.492  0.00  0.00    +0.000 C 
ATOM     16  N   UNL     1       7.196   6.471  17.725  0.00  0.00    +0.000 N 
ATOM     17  C   UNL     1       7.553   5.879  19.015  0.00  0.00    +0.000 C 
ENDBRANCH  13  16
ENDBRANCH  12  13
ENDBRANCH  11  12
ENDBRANCH   1  11
TORSDOF 4
ENDMDL
MODEL 3
REMARK VINA RESULT:      -6.1      2.639      5.280
REMARK  Name = 
REMARK  6 active torsions:
REMARK  status: ('A' for Active; 'I' for Inactive)
REMARK    1  A    between atoms: C_1  and  N_2
REMARK    2  A    between atoms: N_2  and  C_3
REMARK    3  A    between atoms: N_2  and  C_4
REMARK    4  A    between atoms: C_4  and  S_6
REMARK    5  A    between atoms: S_6  and  C_7
REMARK    6  A    between atoms: C_7  and  C_8
REMARK                            x       y       z     vdW  Elec       q    Type
REMARK                         _______ _______ _______ _____ _____    ______ ____
ROOT
ATOM      1  C   UNL     1       4.561   3.194  17.996  0.00  0.00    +0.000 A 
ATOM      2  N   UNL     1       4.802   3.899  16.903  0.00  0.00    +0.000 NA
ATOM      3  C   UNL     1       5.758   4.823  17.257  0.00  0.00    +0.000 A 
ATOM      4  C   UNL     1       6.365   5.826  16.490  0.00  0.00    +0.000 A 
ATOM      5  C   UNL     1       7.317   6.655  17.100  0.00  0.00    +0.000 A 
ATOM      6  C   UNL     1       7.659   6.483  18.443  0.00  0.00    +0.000 A 
ATOM      7  C   UNL     1       7.067   5.486  19.221  0.00  0.00    +0.000 A 
ATOM      8  C   UNL     1       6.118   4.678  18.591  0.00  0.00    +0.000 A 
ATOM      9  N   UNL     1       5.353   3.641  19.029  0.00  0.00    +0.000 N 
ATOM     10  H   UNL     1       5.349   3.246  19.965  0.00  0.00    +0.000 HD
ENDROOT
BRANCH   1  11
ATOM     11  C   UNL     1       3.579   2.063  18.139  0.00  0.00    +0.000 C 
BRANCH  11  12
ATOM     12  S   UNL     1       1.875   2.705  18.301  0.00  0.00    +0.000 S 
BRANCH  12  13
ATOM     13  C   UNL     1       1.910   3.662  19.783  0.00  0.00    +0.000 C 
ATOM     14  S   UNL     1       2.029   2.922  21.289  0.00  0.00    +0.000 S 
BRANCH  13  16
ATOM     15  C   UNL     1       1.741   5.981  20.696  0.00  0.00    +0.000 C 
ATOM     16  N   UNL     1       1.941   5.055  19.582  0.00  0.00    +0.000 N 
ATOM     17  C   UNL     1       2.144   5.669  18.269  0.00  0.00    +0.000 C 
ENDBRANCH  13  16
ENDBRANCH  12  13
ENDBRANCH  11  12
ENDBRANCH   1  11
TORSDOF 4
ENDMDL
MODEL 4
REMARK VINA RESULT:      -6.1      2.712      5.431
REMARK  Name = 
REMARK  6 active torsions:
REMARK  status: ('A' for Active; 'I' for Inactive)
REMARK    1  A    between atoms: C_1  and  N_2
REMARK    2  A    between atoms: N_2  and  C_3
REMARK    3  A    between atoms: N_2  and  C_4
REMARK    4  A    between atoms: C_4  and  S_6
REMARK    5  A    between atoms: S_6  and  C_7
REMARK    6  A    between atoms: C_7  and  C_8
REMARK                            x       y       z     vdW  Elec       q    Type
REMARK                         _______ _______ _______ _____ _____    ______ ____
ROOT
ATOM      1  C   UNL     1       4.545   2.966  18.322  0.00  0.00    +0.000 A 
ATOM      2  N   UNL     1       5.186   3.615  19.281  0.00  0.00    +0.000 NA
ATOM      3  C   UNL     1       5.944   4.570  18.644  0.00  0.00    +0.000 A 
ATOM      4  C   UNL     1       6.822   5.522  19.178  0.00  0.00    +0.000 A 
ATOM      5  C   UNL     1       7.492   6.386  18.300  0.00  0.00    +0.000 A 
ATOM      6  C   UNL     1       7.285   6.305  16.921  0.00  0.00    +0.000 A 
ATOM      7  C   UNL     1       6.410   5.365  16.372  0.00  0.00    +0.000 A 
ATOM      8  C   UNL     1       5.760   4.512  17.269  0.00  0.00    +0.000 A 
ATOM      9  N   UNL     1       4.869   3.498  17.095  0.00  0.00    +0.000 N 
ATOM     10  H   UNL     1       4.494   3.168  16.211  0.00  0.00    +0.000 HD
ENDROOT
BRANCH   1  11
ATOM     11  C   UNL     1       3.594   1.813  18.496  0.00  0.00    +0.000 C 
BRANCH  11  12
ATOM     12  S   UNL     1       1.862   2.395  18.477  0.00  0.00    +0.000 S 
BRANCH  12  13
ATOM     13  C   UNL     1       1.741   3.447  19.889  0.00  0.00    +0.000 C 
ATOM     14  S   UNL     1       1.672   2.807  21.443  0.00  0.00    +0.000 S 
BRANCH  13  16
ATOM     15  C   UNL     1       2.030   5.301  18.238  0.00  0.00    +0.000 C 
ATOM     16  N   UNL     1       1.820   4.824  19.605  0.00  0.00    +0.000 N 
ATOM     17  C   UNL     1       1.727   5.859  20.636  0.00  0.00    +0.000 C 
ENDBRANCH  13  16
ENDBRANCH  12  13
ENDBRANCH  11  12
ENDBRANCH   1  11
TORSDOF 4
ENDMDL
MODEL 5
REMARK VINA RESULT:      -6.1      0.891      1.242
REMARK  Name = 
REMARK  6 active torsions:
REMARK  status: ('A' for Active; 'I' for Inactive)
REMARK    1  A    between atoms: C_1  and  N_2
REMARK    2  A    between atoms: N_2  and  C_3
REMARK    3  A    between atoms: N_2  and  C_4
REMARK    4  A    between atoms: C_4  and  S_6
REMARK    5  A    between atoms: S_6  and  C_7
REMARK    6  A    between atoms: C_7  and  C_8
REMARK                            x       y       z     vdW  Elec       q    Type
REMARK                         _______ _______ _______ _____ _____    ______ ____
ROOT
ATOM      1  C   UNL     1       4.494   3.578  17.208  0.00  0.00    +0.000 A 
ATOM      2  N   UNL     1       3.194   3.653  16.973  0.00  0.00    +0.000 NA
ATOM      3  C   UNL     1       2.581   3.342  18.165  0.00  0.00    +0.000 A 
ATOM      4  C   UNL     1       1.217   3.259  18.477  0.00  0.00    +0.000 A 
ATOM      5  C   UNL     1       0.848   2.908  19.784  0.00  0.00    +0.000 A 
ATOM      6  C   UNL     1       1.817   2.651  20.756  0.00  0.00    +0.000 A 
ATOM      7  C   UNL     1       3.179   2.734  20.462  0.00  0.00    +0.000 A 
ATOM      8  C   UNL     1       3.520   3.080  19.153  0.00  0.00    +0.000 A 
ATOM      9  N   UNL     1       4.716   3.242  18.524  0.00  0.00    +0.000 N 
ATOM     10  H   UNL     1       5.637   3.134  18.939  0.00  0.00    +0.000 HD
ENDROOT
BRANCH   1  11
ATOM     11  C   UNL     1       5.602   3.815  16.218  0.00  0.00    +0.000 C 
BRANCH  11  12
ATOM     12  S   UNL     1       5.569   5.539  15.612  0.00  0.00    +0.000 S 
BRANCH  12  13
ATOM     13  C   UNL     1       5.480   6.514  17.080  0.00  0.00    +0.000 C 
ATOM     14  S   UNL     1       4.002   7.068  17.664  0.00  0.00    +0.000 S 
BRANCH  13  16
ATOM     15  C   UNL     1       7.106   5.776  18.828  0.00  0.00    +0.000 C 
ATOM     16  N   UNL     1       6.707   6.681  17.751  0.00  0.00    +0.000 N 
ATOM     17  C   UNL     1       7.643   7.764  17.446  0.00  0.00    +0.000 C 
ENDBRANCH  13  16
ENDBRANCH  12  13
ENDBRANCH  11  12
ENDBRANCH   1  11
TORSDOF 4
ENDMDL
MODEL 6
REMARK VINA RESULT:      -6.1      1.733      2.177
REMARK  Name = 
REMARK  6 active torsions:
REMARK  status: ('A' for Active; 'I' for Inactive)
REMARK    1  A    between atoms: C_1  and  N_2
REMARK    2  A    between atoms: N_2  and  C_3
REMARK    3  A    between atoms: N_2  and  C_4
REMARK    4  A    between atoms: C_4  and  S_6
REMARK    5  A    between atoms: S_6  and  C_7
REMARK    6  A    between atoms: C_7  and  C_8
REMARK                            x       y       z     vdW  Elec       q    Type
REMARK                         _______ _______ _______ _____ _____    ______ ____
ROOT
ATOM      1  C   UNL     1       5.264   4.627  19.341  0.00  0.00    +0.000 A 
ATOM      2  N   UNL     1       4.113   5.204  19.646  0.00  0.00    +0.000 NA
ATOM      3  C   UNL     1       3.151   4.237  19.465  0.00  0.00    +0.000 A 
ATOM      4  C   UNL     1       1.762   4.311  19.633  0.00  0.00    +0.000 A 
ATOM      5  C   UNL     1       0.992   3.169  19.369  0.00  0.00    +0.000 A 
ATOM      6  C   UNL     1       1.595   1.980  18.953  0.00  0.00    +0.000 A 
ATOM      7  C   UNL     1       2.978   1.889  18.784  0.00  0.00    +0.000 A 
ATOM      8  C   UNL     1       3.722   3.042  19.048  0.00  0.00    +0.000 A 
ATOM      9  N   UNL     1       5.053   3.315  18.985  0.00  0.00    +0.000 N 
ATOM     10  H   UNL     1       5.791   2.669  18.717  0.00  0.00    +0.000 HD
ENDROOT
BRANCH   1  11
ATOM     11  C   UNL     1       6.625   5.268  19.363  0.00  0.00    +0.000 C 
BRANCH  11  12
ATOM     12  S   UNL     1       7.633   4.692  17.952  0.00  0.00    +0.000 S 
BRANCH  12  13
ATOM     13  C   UNL     1       6.884   5.449  16.545  0.00  0.00    +0.000 C 
ATOM     14  S   UNL     1       6.732   4.616  15.091  0.00  0.00    +0.000 S 
BRANCH  13  16
ATOM     15  C   UNL     1       7.184   7.820  17.275  0.00  0.00    +0.000 C 
ATOM     16  N   UNL     1       6.345   6.728  16.782  0.00  0.00    +0.000 N 
ATOM     17  C   UNL     1       4.931   7.049  16.584  0.00  0.00    +0.000 C 
ENDBRANCH  13  16
ENDBRANCH  12  13
ENDBRANCH  11  12
ENDBRANCH   1  11
TORSDOF 4
ENDMDL
MODEL 7
REMARK VINA RESULT:      -6.0      2.776      5.643
REMARK  Name = 
REMARK  6 active torsions:
REMARK  status: ('A' for Active; 'I' for Inactive)
REMARK    1  A    between atoms: C_1  and  N_2
REMARK    2  A    between atoms: N_2  and  C_3
REMARK    3  A    between atoms: N_2  and  C_4
REMARK    4  A    between atoms: C_4  and  S_6
REMARK    5  A    between atoms: S_6  and  C_7
REMARK    6  A    between atoms: C_7  and  C_8
REMARK                            x       y       z     vdW  Elec       q    Type
REMARK                         _______ _______ _______ _____ _____    ______ ____
ROOT
ATOM      1  C   UNL     1       3.740   5.466  18.932  0.00  0.00    +0.000 A 
ATOM      2  N   UNL     1       5.007   5.317  19.284  0.00  0.00    +0.000 NA
ATOM      3  C   UNL     1       5.694   5.088  18.114  0.00  0.00    +0.000 A 
ATOM      4  C   UNL     1       7.060   4.851  17.907  0.00  0.00    +0.000 A 
ATOM      5  C   UNL     1       7.513   4.632  16.598  0.00  0.00    +0.000 A 
ATOM      6  C   UNL     1       6.624   4.656  15.520  0.00  0.00    +0.000 A 
ATOM      7  C   UNL     1       5.262   4.895  15.709  0.00  0.00    +0.000 A 
ATOM      8  C   UNL     1       4.836   5.104  17.023  0.00  0.00    +0.000 A 
ATOM      9  N   UNL     1       3.613   5.351  17.567  0.00  0.00    +0.000 N 
ATOM     10  H   UNL     1       2.734   5.436  17.065  0.00  0.00    +0.000 HD
ENDROOT
BRANCH   1  11
ATOM     11  C   UNL     1       2.577   5.724  19.851  0.00  0.00    +0.000 C 
BRANCH  11  12
ATOM     12  S   UNL     1       2.240   4.262  20.893  0.00  0.00    +0.000 S 
BRANCH  12  13
ATOM     13  C   UNL     1       2.100   2.931  19.743  0.00  0.00    +0.000 C 
ATOM     14  S   UNL     1       0.659   2.639  18.926  0.00  0.00    +0.000 S 
BRANCH  13  16
ATOM     15  C   UNL     1       4.326   2.117  20.537  0.00  0.00    +0.000 C 
ATOM     16  N   UNL     1       3.300   2.234  19.501  0.00  0.00    +0.000 N 
ATOM     17  C   UNL     1       3.616   1.610  18.216  0.00  0.00    +0.000 C 
ENDBRANCH  13  16
ENDBRANCH  12  13
ENDBRANCH  11  12
ENDBRANCH   1  11
TORSDOF 4
ENDMDL
MODEL 8
REMARK VINA RESULT:      -6.0      1.512      2.267
REMARK  Name = 
REMARK  6 active torsions:
REMARK  status: ('A' for Active; 'I' for Inactive)
REMARK    1  A    between atoms: C_1  and  N_2
REMARK    2  A    between atoms: N_2  and  C_3
REMARK    3  A    between atoms: N_2  and  C_4
REMARK    4  A    between atoms: C_4  and  S_6
REMARK    5  A    between atoms: S_6  and  C_7
REMARK    6  A    between atoms: C_7  and  C_8
REMARK                            x       y       z     vdW  Elec       q    Type
REMARK                         _______ _______ _______ _____ _____    ______ ____
ROOT
ATOM      1  C   UNL     1       3.416   6.154  18.274  0.00  0.00    +0.000 A 
ATOM      2  N   UNL     1       2.969   6.099  19.519  0.00  0.00    +0.000 NA
ATOM      3  C   UNL     1       2.268   4.919  19.612  0.00  0.00    +0.000 A 
ATOM      4  C   UNL     1       1.577   4.369  20.700  0.00  0.00    +0.000 A 
ATOM      5  C   UNL     1       0.926   3.139  20.530  0.00  0.00    +0.000 A 
ATOM      6  C   UNL     1       0.967   2.471  19.303  0.00  0.00    +0.000 A 
ATOM      7  C   UNL     1       1.654   3.004  18.210  0.00  0.00    +0.000 A 
ATOM      8  C   UNL     1       2.290   4.232  18.405  0.00  0.00    +0.000 A 
ATOM      9  N   UNL     1       3.025   5.030  17.583  0.00  0.00    +0.000 N 
ATOM     10  H   UNL     1       3.257   4.847  16.611  0.00  0.00    +0.000 HD
ENDROOT
BRANCH   1  11
ATOM     11  C   UNL     1       4.231   7.259  17.660  0.00  0.00    +0.000 C 
BRANCH  11  12
ATOM     12  S   UNL     1       5.083   6.672  16.153  0.00  0.00    +0.000 S 
BRANCH  12  13
ATOM     13  C   UNL     1       6.501   5.817  16.761  0.00  0.00    +0.000 C 
ATOM     14  S   UNL     1       6.964   4.335  16.111  0.00  0.00    +0.000 S 
BRANCH  13  16
ATOM     15  C   UNL     1       7.685   7.894  17.486  0.00  0.00    +0.000 C 
ATOM     16  N   UNL     1       7.244   6.521  17.728  0.00  0.00    +0.000 N 
ATOM     17  C   UNL     1       7.644   5.938  19.009  0.00  0.00    +0.000 C 
ENDBRANCH  13  16
ENDBRANCH  12  13
ENDBRANCH  11  12
ENDBRANCH   1  11
TORSDOF 4
ENDMDL
MODEL 9
REMARK VINA RESULT:      -6.0      2.771      5.450
REMARK  Name = 
REMARK  6 active torsions:
REMARK  status: ('A' for Active; 'I' for Inactive)
REMARK    1  A    between atoms: C_1  and  N_2
REMARK    2  A    between atoms: N_2  and  C_3
REMARK    3  A    between atoms: N_2  and  C_4
REMARK    4  A    between atoms: C_4  and  S_6
REMARK    5  A    between atoms: S_6  and  C_7
REMARK    6  A    between atoms: C_7  and  C_8
REMARK                            x       y       z     vdW  Elec       q    Type
REMARK                         _______ _______ _______ _____ _____    ______ ____
ROOT
ATOM      1  C   UNL     1       3.657   5.500  18.856  0.00  0.00    +0.000 A 
ATOM      2  N   UNL     1       3.545   5.386  17.542  0.00  0.00    +0.000 NA
ATOM      3  C   UNL     1       4.817   5.142  17.078  0.00  0.00    +0.000 A 
ATOM      4  C   UNL     1       5.274   4.953  15.767  0.00  0.00    +0.000 A 
ATOM      5  C   UNL     1       6.642   4.727  15.558  0.00  0.00    +0.000 A 
ATOM      6  C   UNL     1       7.533   4.686  16.633  0.00  0.00    +0.000 A 
ATOM      7  C   UNL     1       7.093   4.868  17.946  0.00  0.00    +0.000 A 
ATOM      8  C   UNL     1       5.727   5.096  18.127  0.00  0.00    +0.000 A 
ATOM      9  N   UNL     1       4.968   5.318  19.234  0.00  0.00    +0.000 N 
ATOM     10  H   UNL     1       5.296   5.353  20.195  0.00  0.00    +0.000 HD
ENDROOT
BRANCH   1  11
ATOM     11  C   UNL     1       2.548   5.784  19.832  0.00  0.00    +0.000 C 
BRANCH  11  12
ATOM     12  S   UNL     1       2.242   4.335  20.902  0.00  0.00    +0.000 S 
BRANCH  12  13
ATOM     13  C   UNL     1       2.103   2.984  19.776  0.00  0.00    +0.000 C 
ATOM     14  S   UNL     1       0.663   2.681  18.961  0.00  0.00    +0.000 S 
BRANCH  13  16
ATOM     15  C   UNL     1       3.568   1.640  18.263  0.00  0.00    +0.000 C 
ATOM     16  N   UNL     1       3.302   2.281  19.550  0.00  0.00    +0.000 N 
ATOM     17  C   UNL     1       4.337   2.118  20.571  0.00  0.00    +0.000 C 
ENDBRANCH  13  16
ENDBRANCH  12  13
ENDBRANCH  11  12
ENDBRANCH   1  11
TORSDOF 4
ENDMDL
