MODEL 1
REMARK VINA RESULT:      -8.7      0.000      0.000
REMARK  Name = 
REMARK  9 active torsions:
REMARK  status: ('A' for Active; 'I' for Inactive)
REMARK    1  A    between atoms: C_2  and  C_3
REMARK    2  A    between atoms: C_3  and  C_4
REMARK    3  A    between atoms: N_6  and  C_7
REMARK    4  A    between atoms: C_7  and  C_8
REMARK    5  A    between atoms: N_10  and  C_11
REMARK    6  A    between atoms: C_15  and  C_16
REMARK    7  A    between atoms: C_18  and  N_19
REMARK    8  A    between atoms: N_19  and  C_20
REMARK    9  A    between atoms: C_23  and  N_24
REMARK                            x       y       z     vdW  Elec       q    Type
REMARK                         _______ _______ _______ _____ _____    ______ ____
ROOT
ATOM      1  C   UNL     1       2.088   7.419  19.504  0.00  0.00    +0.000 A 
ATOM      2  C   UNL     1       1.519   8.223  18.531  0.00  0.00    +0.000 A 
ATOM      3  C   UNL     1       0.784   9.316  18.939  0.00  0.00    +0.000 A 
ATOM      4  N   UNL     1       0.628   9.606  20.239  0.00  0.00    +0.000 NA
ATOM      5  C   UNL     1       1.249   8.799  21.111  0.00  0.00    +0.000 A 
ATOM      6  N   UNL     1       1.982   7.715  20.813  0.00  0.00    +0.000 NA
ENDROOT
BRANCH   1  11
ATOM      7  C   UNL     1       4.201   4.970  17.501  0.00  0.00    +0.000 A 
ATOM      8  C   UNL     1       4.121   3.839  18.318  0.00  0.00    +0.000 A 
ATOM      9  C   UNL     1       3.453   3.891  19.539  0.00  0.00    +0.000 A 
ATOM     10  C   UNL     1       2.830   5.067  19.941  0.00  0.00    +0.000 A 
ATOM     11  C   UNL     1       2.869   6.223  19.135  0.00  0.00    +0.000 A 
ATOM     12  C   UNL     1       3.614   6.166  17.936  0.00  0.00    +0.000 A 
BRANCH   7  15
ATOM     13  C   UNL     1       6.219   4.920  16.047  0.00  0.00    +0.000 C 
ATOM     14  O   UNL     1       7.069   4.745  16.919  0.00  0.00    +0.000 OA
ATOM     15  N   UNL     1       4.846   4.951  16.243  0.00  0.00    +0.000 N 
ATOM     16  H   UNL     1       4.266   4.771  15.425  0.00  0.00    +0.000 HD
BRANCH  13  17
ATOM     17  C   UNL     1       6.639   4.988  14.582  0.00  0.00    +0.000 C 
BRANCH  17  20
ATOM     18  C   UNL     1       6.384   3.676  12.520  0.00  0.00    +0.000 C 
ATOM     19  O   UNL     1       7.245   4.350  11.959  0.00  0.00    +0.000 OA
ATOM     20  N   UNL     1       6.001   3.928  13.819  0.00  0.00    +0.000 N 
ATOM     21  H   UNL     1       5.129   3.560  14.182  0.00  0.00    +0.000 HD
BRANCH  18  22
ATOM     22  C   UNL     1       5.670   2.527  11.847  0.00  0.00    +0.000 C 
BRANCH  22  24
ATOM     23  N   UNL     1       3.523   3.408  10.624  0.00  0.00    +0.000 NA
ATOM     24  C   UNL     1       4.453   3.004  11.185  0.00  0.00    +0.000 C 
ENDBRANCH  22  24
ENDBRANCH  18  22
ENDBRANCH  17  20
ENDBRANCH  13  17
ENDBRANCH   7  15
ENDBRANCH   1  11
BRANCH   3  25
ATOM     25  N   UNL     1       0.194  10.106  17.931  0.00  0.00    +0.000 N 
ATOM     26  H   UNL     1       0.852  10.769  17.539  0.00  0.00    +0.000 HD
BRANCH  25  27
ATOM     27  C   UNL     1      -1.150  10.481  17.801  0.00  0.00    +0.000 A 
ATOM     28  C   UNL     1      -2.022   9.702  17.040  0.00  0.00    +0.000 A 
ATOM     29  C   UNL     1      -3.386  10.015  16.968  0.00  0.00    +0.000 A 
ATOM     30  C   UNL     1      -3.933  11.102  17.661  0.00  0.00    +0.000 A 
ATOM     31  C   UNL     1      -3.039  11.886  18.402  0.00  0.00    +0.000 A 
ATOM     32  C   UNL     1      -1.674  11.587  18.468  0.00  0.00    +0.000 A 
BRANCH  30  33
ATOM     33  N   UNL     1      -5.281  11.382  17.637  0.00  0.00    +0.000 N 
ATOM     34  C   UNL     1      -5.839  12.609  17.054  0.00  0.00    +0.000 C 
ATOM     35  C   UNL     1      -6.626  13.380  18.123  0.00  0.00    +0.000 C 
ATOM     36  O   UNL     1      -7.641  12.556  18.722  0.00  0.00    +0.000 OA
ATOM     37  C   UNL     1      -7.042  11.405  19.346  0.00  0.00    +0.000 C 
ATOM     38  C   UNL     1      -6.266  10.543  18.333  0.00  0.00    +0.000 C 
ENDBRANCH  30  33
ENDBRANCH  25  27
ENDBRANCH   3  25
TORSDOF 9
ENDMDL
MODEL 2
REMARK VINA RESULT:      -8.7      3.212      4.475
REMARK  Name = 
REMARK  9 active torsions:
REMARK  status: ('A' for Active; 'I' for Inactive)
REMARK    1  A    between atoms: C_2  and  C_3
REMARK    2  A    between atoms: C_3  and  C_4
REMARK    3  A    between atoms: N_6  and  C_7
REMARK    4  A    between atoms: C_7  and  C_8
REMARK    5  A    between atoms: N_10  and  C_11
REMARK    6  A    between atoms: C_15  and  C_16
REMARK    7  A    between atoms: C_18  and  N_19
REMARK    8  A    between atoms: N_19  and  C_20
REMARK    9  A    between atoms: C_23  and  N_24
REMARK                            x       y       z     vdW  Elec       q    Type
REMARK                         _______ _______ _______ _____ _____    ______ ____
ROOT
ATOM      1  C   UNL     1       3.486   4.656  18.918  0.00  0.00    +0.000 A 
ATOM      2  C   UNL     1       3.090   5.662  19.782  0.00  0.00    +0.000 A 
ATOM      3  C   UNL     1       1.861   5.545  20.396  0.00  0.00    +0.000 A 
ATOM      4  N   UNL     1       1.070   4.485  20.177  0.00  0.00    +0.000 NA
ATOM      5  C   UNL     1       1.551   3.537  19.359  0.00  0.00    +0.000 A 
ATOM      6  N   UNL     1       2.729   3.561  18.717  0.00  0.00    +0.000 NA
ENDROOT
BRANCH   1  11
ATOM      7  C   UNL     1       6.155   4.287  16.231  0.00  0.00    +0.000 A 
ATOM      8  C   UNL     1       7.299   4.611  16.964  0.00  0.00    +0.000 A 
ATOM      9  C   UNL     1       7.200   5.015  18.293  0.00  0.00    +0.000 A 
ATOM     10  C   UNL     1       5.956   5.070  18.912  0.00  0.00    +0.000 A 
ATOM     11  C   UNL     1       4.781   4.730  18.213  0.00  0.00    +0.000 A 
ATOM     12  C   UNL     1       4.899   4.392  16.846  0.00  0.00    +0.000 A 
BRANCH   7  15
ATOM     13  C   UNL     1       6.878   4.497  13.860  0.00  0.00    +0.000 C 
ATOM     14  O   UNL     1       7.636   5.458  13.984  0.00  0.00    +0.000 OA
ATOM     15  N   UNL     1       6.215   3.845  14.889  0.00  0.00    +0.000 N 
ATOM     16  H   UNL     1       5.900   2.896  14.697  0.00  0.00    +0.000 HD
BRANCH  13  17
ATOM     17  C   UNL     1       6.708   3.838  12.495  0.00  0.00    +0.000 C 
BRANCH  17  20
ATOM     18  C   UNL     1       4.746   2.791  11.451  0.00  0.00    +0.000 C 
ATOM     19  O   UNL     1       5.394   1.778  11.197  0.00  0.00    +0.000 OA
ATOM     20  N   UNL     1       5.317   3.876  12.080  0.00  0.00    +0.000 N 
ATOM     21  H   UNL     1       4.870   4.786  12.048  0.00  0.00    +0.000 HD
BRANCH  18  22
ATOM     22  C   UNL     1       3.284   2.942  11.101  0.00  0.00    +0.000 C 
BRANCH  22  24
ATOM     23  N   UNL     1       3.061   4.317   8.877  0.00  0.00    +0.000 NA
ATOM     24  C   UNL     1       3.136   3.726   9.872  0.00  0.00    +0.000 C 
ENDBRANCH  22  24
ENDBRANCH  18  22
ENDBRANCH  17  20
ENDBRANCH  13  17
ENDBRANCH   7  15
ENDBRANCH   1  11
BRANCH   3  25
ATOM     25  N   UNL     1       1.468   6.594  21.252  0.00  0.00    +0.000 N 
ATOM     26  H   UNL     1       0.825   6.277  21.966  0.00  0.00    +0.000 HD
BRANCH  25  27
ATOM     27  C   UNL     1       1.375   7.962  20.958  0.00  0.00    +0.000 A 
ATOM     28  C   UNL     1       1.490   8.401  19.639  0.00  0.00    +0.000 A 
ATOM     29  C   UNL     1       1.317   9.754  19.316  0.00  0.00    +0.000 A 
ATOM     30  C   UNL     1       1.009  10.713  20.289  0.00  0.00    +0.000 A 
ATOM     31  C   UNL     1       0.919  10.257  21.611  0.00  0.00    +0.000 A 
ATOM     32  C   UNL     1       1.104   8.910  21.943  0.00  0.00    +0.000 A 
BRANCH  30  33
ATOM     33  N   UNL     1       0.785  12.033  19.971  0.00  0.00    +0.000 N 
ATOM     34  C   UNL     1       0.477  13.064  20.971  0.00  0.00    +0.000 C 
ATOM     35  C   UNL     1      -0.881  13.704  20.657  0.00  0.00    +0.000 C 
ATOM     36  O   UNL     1      -0.917  14.224  19.316  0.00  0.00    +0.000 OA
ATOM     37  C   UNL     1      -0.687  13.167  18.367  0.00  0.00    +0.000 C 
ATOM     38  C   UNL     1       0.681  12.494  18.579  0.00  0.00    +0.000 C 
ENDBRANCH  30  33
ENDBRANCH  25  27
ENDBRANCH   3  25
TORSDOF 9
ENDMDL
MODEL 3
REMARK VINA RESULT:      -8.5      4.095      6.768
REMARK  Name = 
REMARK  9 active torsions:
REMARK  status: ('A' for Active; 'I' for Inactive)
REMARK    1  A    between atoms: C_2  and  C_3
REMARK    2  A    between atoms: C_3  and  C_4
REMARK    3  A    between atoms: N_6  and  C_7
REMARK    4  A    between atoms: C_7  and  C_8
REMARK    5  A    between atoms: N_10  and  C_11
REMARK    6  A    between atoms: C_15  and  C_16
REMARK    7  A    between atoms: C_18  and  N_19
REMARK    8  A    between atoms: N_19  and  C_20
REMARK    9  A    between atoms: C_23  and  N_24
REMARK                            x       y       z     vdW  Elec       q    Type
REMARK                         _______ _______ _______ _____ _____    ______ ____
ROOT
ATOM      1  C   UNL     1       3.594   4.703  18.566  0.00  0.00    +0.000 A 
ATOM      2  C   UNL     1       3.203   5.647  19.501  0.00  0.00    +0.000 A 
ATOM      3  C   UNL     1       2.063   5.398  20.237  0.00  0.00    +0.000 A 
ATOM      4  N   UNL     1       1.353   4.274  20.065  0.00  0.00    +0.000 NA
ATOM      5  C   UNL     1       1.827   3.397  19.169  0.00  0.00    +0.000 A 
ATOM      6  N   UNL     1       2.922   3.548  18.408  0.00  0.00    +0.000 NA
ENDROOT
BRANCH   1  11
ATOM      7  C   UNL     1       6.533   6.399  16.845  0.00  0.00    +0.000 A 
ATOM      8  C   UNL     1       6.903   5.404  15.936  0.00  0.00    +0.000 A 
ATOM      9  C   UNL     1       6.255   4.171  15.931  0.00  0.00    +0.000 A 
ATOM     10  C   UNL     1       5.210   3.931  16.815  0.00  0.00    +0.000 A 
ATOM     11  C   UNL     1       4.792   4.917  17.732  0.00  0.00    +0.000 A 
ATOM     12  C   UNL     1       5.511   6.133  17.767  0.00  0.00    +0.000 A 
BRANCH   7  15
ATOM     13  C   UNL     1       7.972   8.150  17.871  0.00  0.00    +0.000 C 
ATOM     14  O   UNL     1       8.421   7.491  18.808  0.00  0.00    +0.000 OA
ATOM     15  N   UNL     1       7.146   7.674  16.864  0.00  0.00    +0.000 N 
ATOM     16  H   UNL     1       7.123   8.214  16.001  0.00  0.00    +0.000 HD
BRANCH  13  17
ATOM     17  C   UNL     1       8.429   9.592  17.670  0.00  0.00    +0.000 C 
BRANCH  17  20
ATOM     18  C   UNL     1      10.029  11.035  18.849  0.00  0.00    +0.000 C 
ATOM     19  O   UNL     1      10.513  11.407  17.782  0.00  0.00    +0.000 OA
ATOM     20  N   UNL     1       9.000  10.121  18.897  0.00  0.00    +0.000 N 
ATOM     21  H   UNL     1       8.788   9.624  19.755  0.00  0.00    +0.000 HD
BRANCH  18  22
ATOM     22  C   UNL     1      10.512  11.535  20.190  0.00  0.00    +0.000 C 
BRANCH  22  24
ATOM     23  N   UNL     1       8.540  11.568  21.921  0.00  0.00    +0.000 NA
ATOM     24  C   UNL     1       9.415  11.522  21.162  0.00  0.00    +0.000 C 
ENDBRANCH  22  24
ENDBRANCH  18  22
ENDBRANCH  17  20
ENDBRANCH  13  17
ENDBRANCH   7  15
ENDBRANCH   1  11
BRANCH   3  25
ATOM     25  N   UNL     1       1.671   6.385  21.165  0.00  0.00    +0.000 N 
ATOM     26  H   UNL     1       1.184   5.983  21.957  0.00  0.00    +0.000 HD
BRANCH  25  27
ATOM     27  C   UNL     1       1.365   7.730  20.920  0.00  0.00    +0.000 A 
ATOM     28  C   UNL     1       1.649   8.296  19.677  0.00  0.00    +0.000 A 
ATOM     29  C   UNL     1       1.275   9.615  19.387  0.00  0.00    +0.000 A 
ATOM     30  C   UNL     1       0.592  10.411  20.315  0.00  0.00    +0.000 A 
ATOM     31  C   UNL     1       0.335   9.834  21.566  0.00  0.00    +0.000 A 
ATOM     32  C   UNL     1       0.718   8.523  21.867  0.00  0.00    +0.000 A 
BRANCH  30  33
ATOM     33  N   UNL     1       0.174  11.688  20.016  0.00  0.00    +0.000 N 
ATOM     34  C   UNL     1      -1.193  12.011  19.588  0.00  0.00    +0.000 C 
ATOM     35  C   UNL     1      -1.160  12.677  18.206  0.00  0.00    +0.000 C 
ATOM     36  O   UNL     1      -0.306  13.834  18.202  0.00  0.00    +0.000 OA
ATOM     37  C   UNL     1       1.039  13.459  18.553  0.00  0.00    +0.000 C 
ATOM     38  C   UNL     1       1.109  12.821  19.952  0.00  0.00    +0.000 C 
ENDBRANCH  30  33
ENDBRANCH  25  27
ENDBRANCH   3  25
TORSDOF 9
ENDMDL
MODEL 4
REMARK VINA RESULT:      -8.5      2.452      3.395
REMARK  Name = 
REMARK  9 active torsions:
REMARK  status: ('A' for Active; 'I' for Inactive)
REMARK    1  A    between atoms: C_2  and  C_3
REMARK    2  A    between atoms: C_3  and  C_4
REMARK    3  A    between atoms: N_6  and  C_7
REMARK    4  A    between atoms: C_7  and  C_8
REMARK    5  A    between atoms: N_10  and  C_11
REMARK    6  A    between atoms: C_15  and  C_16
REMARK    7  A    between atoms: C_18  and  N_19
REMARK    8  A    between atoms: N_19  and  C_20
REMARK    9  A    between atoms: C_23  and  N_24
REMARK                            x       y       z     vdW  Elec       q    Type
REMARK                         _______ _______ _______ _____ _____    ______ ____
ROOT
ATOM      1  C   UNL     1       4.046   6.310  18.391  0.00  0.00    +0.000 A 
ATOM      2  C   UNL     1       3.451   7.422  17.819  0.00  0.00    +0.000 A 
ATOM      3  C   UNL     1       2.274   7.884  18.368  0.00  0.00    +0.000 A 
ATOM      4  N   UNL     1       1.718   7.285  19.431  0.00  0.00    +0.000 NA
ATOM      5  C   UNL     1       2.383   6.242  19.947  0.00  0.00    +0.000 A 
ATOM      6  N   UNL     1       3.530   5.720  19.486  0.00  0.00    +0.000 NA
ENDROOT
BRANCH   1  11
ATOM      7  C   UNL     1       6.502   4.586  16.051  0.00  0.00    +0.000 A 
ATOM      8  C   UNL     1       7.603   4.444  16.899  0.00  0.00    +0.000 A 
ATOM      9  C   UNL     1       7.577   4.966  18.191  0.00  0.00    +0.000 A 
ATOM     10  C   UNL     1       6.436   5.609  18.657  0.00  0.00    +0.000 A 
ATOM     11  C   UNL     1       5.297   5.753  17.840  0.00  0.00    +0.000 A 
ATOM     12  C   UNL     1       5.373   5.280  16.511  0.00  0.00    +0.000 A 
BRANCH   7  15
ATOM     13  C   UNL     1       7.116   4.593  13.640  0.00  0.00    +0.000 C 
ATOM     14  O   UNL     1       7.919   5.524  13.659  0.00  0.00    +0.000 OA
ATOM     15  N   UNL     1       6.477   4.047  14.744  0.00  0.00    +0.000 N 
ATOM     16  H   UNL     1       6.114   3.101  14.637  0.00  0.00    +0.000 HD
BRANCH  13  17
ATOM     17  C   UNL     1       6.853   3.845  12.337  0.00  0.00    +0.000 C 
BRANCH  17  20
ATOM     18  C   UNL     1       4.812   2.811  11.440  0.00  0.00    +0.000 C 
ATOM     19  O   UNL     1       5.420   1.770  11.199  0.00  0.00    +0.000 OA
ATOM     20  N   UNL     1       5.443   3.905  11.991  0.00  0.00    +0.000 N 
ATOM     21  H   UNL     1       5.020   4.825  11.942  0.00  0.00    +0.000 HD
BRANCH  18  22
ATOM     22  C   UNL     1       3.339   2.989  11.158  0.00  0.00    +0.000 C 
BRANCH  22  24
ATOM     23  N   UNL     1       3.054   4.309   8.908  0.00  0.00    +0.000 NA
ATOM     24  C   UNL     1       3.148   3.720   9.902  0.00  0.00    +0.000 C 
ENDBRANCH  22  24
ENDBRANCH  18  22
ENDBRANCH  17  20
ENDBRANCH  13  17
ENDBRANCH   7  15
ENDBRANCH   1  11
BRANCH   3  25
ATOM     25  N   UNL     1       1.675   9.002  17.753  0.00  0.00    +0.000 N 
ATOM     26  H   UNL     1       2.262   9.390  17.025  0.00  0.00    +0.000 HD
BRANCH  25  27
ATOM     27  C   UNL     1       0.767   9.913  18.311  0.00  0.00    +0.000 A 
ATOM     28  C   UNL     1       1.181  10.779  19.323  0.00  0.00    +0.000 A 
ATOM     29  C   UNL     1       0.312  11.752  19.834  0.00  0.00    +0.000 A 
ATOM     30  C   UNL     1      -0.992  11.909  19.347  0.00  0.00    +0.000 A 
ATOM     31  C   UNL     1      -1.398  11.016  18.346  0.00  0.00    +0.000 A 
ATOM     32  C   UNL     1      -0.539  10.033  17.840  0.00  0.00    +0.000 A 
BRANCH  30  33
ATOM     33  N   UNL     1      -1.831  12.898  19.807  0.00  0.00    +0.000 N 
ATOM     34  C   UNL     1      -1.375  14.252  20.144  0.00  0.00    +0.000 C 
ATOM     35  C   UNL     1      -1.697  14.559  21.612  0.00  0.00    +0.000 C 
ATOM     36  O   UNL     1      -3.096  14.375  21.891  0.00  0.00    +0.000 OA
ATOM     37  C   UNL     1      -3.483  13.016  21.619  0.00  0.00    +0.000 C 
ATOM     38  C   UNL     1      -3.236  12.633  20.149  0.00  0.00    +0.000 C 
ENDBRANCH  30  33
ENDBRANCH  25  27
ENDBRANCH   3  25
TORSDOF 9
ENDMDL
MODEL 5
REMARK VINA RESULT:      -8.5      5.334      9.900
REMARK  Name = 
REMARK  9 active torsions:
REMARK  status: ('A' for Active; 'I' for Inactive)
REMARK    1  A    between atoms: C_2  and  C_3
REMARK    2  A    between atoms: C_3  and  C_4
REMARK    3  A    between atoms: N_6  and  C_7
REMARK    4  A    between atoms: C_7  and  C_8
REMARK    5  A    between atoms: N_10  and  C_11
REMARK    6  A    between atoms: C_15  and  C_16
REMARK    7  A    between atoms: C_18  and  N_19
REMARK    8  A    between atoms: N_19  and  C_20
REMARK    9  A    between atoms: C_23  and  N_24
REMARK                            x       y       z     vdW  Elec       q    Type
REMARK                         _______ _______ _______ _____ _____    ______ ____
ROOT
ATOM      1  C   UNL     1       0.578  12.400  18.872  0.00  0.00    +0.000 A 
ATOM      2  C   UNL     1       1.224  11.365  19.528  0.00  0.00    +0.000 A 
ATOM      3  C   UNL     1       0.516  10.206  19.766  0.00  0.00    +0.000 A 
ATOM      4  N   UNL     1      -0.757  10.072  19.370  0.00  0.00    +0.000 NA
ATOM      5  C   UNL     1      -1.290  11.107  18.706  0.00  0.00    +0.000 A 
ATOM      6  N   UNL     1      -0.685  12.272  18.426  0.00  0.00    +0.000 NA
ENDROOT
BRANCH   1  11
ATOM      7  C   UNL     1       3.307  14.907  18.006  0.00  0.00    +0.000 A 
ATOM      8  C   UNL     1       2.674  16.102  18.361  0.00  0.00    +0.000 A 
ATOM      9  C   UNL     1       1.355  16.102  18.807  0.00  0.00    +0.000 A 
ATOM     10  C   UNL     1       0.663  14.903  18.930  0.00  0.00    +0.000 A 
ATOM     11  C   UNL     1       1.272  13.675  18.604  0.00  0.00    +0.000 A 
ATOM     12  C   UNL     1       2.587  13.707  18.086  0.00  0.00    +0.000 A 
BRANCH   7  15
ATOM     13  C   UNL     1       5.761  15.025  18.396  0.00  0.00    +0.000 C 
ATOM     14  O   UNL     1       5.749  15.075  19.625  0.00  0.00    +0.000 OA
ATOM     15  N   UNL     1       4.653  14.861  17.577  0.00  0.00    +0.000 N 
ATOM     16  H   UNL     1       4.830  14.510  16.637  0.00  0.00    +0.000 HD
BRANCH  13  17
ATOM     17  C   UNL     1       7.092  15.008  17.651  0.00  0.00    +0.000 C 
BRANCH  17  20
ATOM     18  C   UNL     1       8.890  13.358  17.934  0.00  0.00    +0.000 C 
ATOM     19  O   UNL     1       9.653  14.228  18.346  0.00  0.00    +0.000 OA
ATOM     20  N   UNL     1       7.600  13.651  17.547  0.00  0.00    +0.000 N 
ATOM     21  H   UNL     1       7.073  13.004  16.971  0.00  0.00    +0.000 HD
BRANCH  18  22
ATOM     22  C   UNL     1       9.287  11.905  17.810  0.00  0.00    +0.000 C 
BRANCH  22  24
ATOM     23  N   UNL     1      11.870  11.686  18.215  0.00  0.00    +0.000 NA
ATOM     24  C   UNL     1      10.726  11.751  18.042  0.00  0.00    +0.000 C 
ENDBRANCH  22  24
ENDBRANCH  18  22
ENDBRANCH  17  20
ENDBRANCH  13  17
ENDBRANCH   7  15
ENDBRANCH   1  11
BRANCH   3  25
ATOM     25  N   UNL     1       1.187   9.175  20.457  0.00  0.00    +0.000 N 
ATOM     26  H   UNL     1       1.720   9.533  21.239  0.00  0.00    +0.000 HD
BRANCH  25  27
ATOM     27  C   UNL     1       1.654   7.955  19.949  0.00  0.00    +0.000 A 
ATOM     28  C   UNL     1       2.255   7.907  18.690  0.00  0.00    +0.000 A 
ATOM     29  C   UNL     1       2.801   6.712  18.202  0.00  0.00    +0.000 A 
ATOM     30  C   UNL     1       2.785   5.530  18.953  0.00  0.00    +0.000 A 
ATOM     31  C   UNL     1       2.158   5.592  20.205  0.00  0.00    +0.000 A 
ATOM     32  C   UNL     1       1.598   6.778  20.693  0.00  0.00    +0.000 A 
BRANCH  30  33
ATOM     33  N   UNL     1       3.368   4.368  18.501  0.00  0.00    +0.000 N 
ATOM     34  C   UNL     1       2.844   3.589  17.372  0.00  0.00    +0.000 C 
ATOM     35  C   UNL     1       2.509   2.165  17.835  0.00  0.00    +0.000 C 
ATOM     36  O   UNL     1       3.646   1.531  18.448  0.00  0.00    +0.000 OA
ATOM     37  C   UNL     1       4.078   2.288  19.593  0.00  0.00    +0.000 C 
ATOM     38  C   UNL     1       4.481   3.725  19.213  0.00  0.00    +0.000 C 
ENDBRANCH  30  33
ENDBRANCH  25  27
ENDBRANCH   3  25
TORSDOF 9
ENDMDL
MODEL 6
REMARK VINA RESULT:      -8.4      3.413      4.039
REMARK  Name = 
REMARK  9 active torsions:
REMARK  status: ('A' for Active; 'I' for Inactive)
REMARK    1  A    between atoms: C_2  and  C_3
REMARK    2  A    between atoms: C_3  and  C_4
REMARK    3  A    between atoms: N_6  and  C_7
REMARK    4  A    between atoms: C_7  and  C_8
REMARK    5  A    between atoms: N_10  and  C_11
REMARK    6  A    between atoms: C_15  and  C_16
REMARK    7  A    between atoms: C_18  and  N_19
REMARK    8  A    between atoms: N_19  and  C_20
REMARK    9  A    between atoms: C_23  and  N_24
REMARK                            x       y       z     vdW  Elec       q    Type
REMARK                         _______ _______ _______ _____ _____    ______ ____
ROOT
ATOM      1  C   UNL     1       2.459   7.249  18.853  0.00  0.00    +0.000 A 
ATOM      2  C   UNL     1       2.034   7.663  20.104  0.00  0.00    +0.000 A 
ATOM      3  C   UNL     1       1.395   8.881  20.203  0.00  0.00    +0.000 A 
ATOM      4  N   UNL     1       1.179   9.645  19.123  0.00  0.00    +0.000 NA
ATOM      5  C   UNL     1       1.585   9.148  17.946  0.00  0.00    +0.000 A 
ATOM      6  N   UNL     1       2.213   7.978  17.749  0.00  0.00    +0.000 NA
ENDROOT
BRANCH   1  11
ATOM      7  C   UNL     1       4.541   4.457  17.322  0.00  0.00    +0.000 A 
ATOM      8  C   UNL     1       4.282   3.423  18.226  0.00  0.00    +0.000 A 
ATOM      9  C   UNL     1       3.502   3.648  19.358  0.00  0.00    +0.000 A 
ATOM     10  C   UNL     1       2.947   4.903  19.581  0.00  0.00    +0.000 A 
ATOM     11  C   UNL     1       3.166   5.965  18.681  0.00  0.00    +0.000 A 
ATOM     12  C   UNL     1       4.020   5.733  17.580  0.00  0.00    +0.000 A 
BRANCH   7  15
ATOM     13  C   UNL     1       6.619   4.669  15.970  0.00  0.00    +0.000 C 
ATOM     14  O   UNL     1       7.363   5.109  16.846  0.00  0.00    +0.000 OA
ATOM     15  N   UNL     1       5.304   4.263  16.148  0.00  0.00    +0.000 N 
ATOM     16  H   UNL     1       4.926   3.629  15.446  0.00  0.00    +0.000 HD
BRANCH  13  17
ATOM     17  C   UNL     1       7.168   4.402  14.573  0.00  0.00    +0.000 C 
BRANCH  17  20
ATOM     18  C   UNL     1       6.338   3.584  12.410  0.00  0.00    +0.000 C 
ATOM     19  O   UNL     1       7.248   4.160  11.818  0.00  0.00    +0.000 OA
ATOM     20  N   UNL     1       6.204   3.659  13.779  0.00  0.00    +0.000 N 
ATOM     21  H   UNL     1       5.328   3.416  14.228  0.00  0.00    +0.000 HD
BRANCH  18  22
ATOM     22  C   UNL     1       5.292   2.754  11.704  0.00  0.00    +0.000 C 
BRANCH  22  24
ATOM     23  N   UNL     1       6.311   0.406  11.125  0.00  0.00    +0.000 NA
ATOM     24  C   UNL     1       5.832   1.432  11.372  0.00  0.00    +0.000 C 
ENDBRANCH  22  24
ENDBRANCH  18  22
ENDBRANCH  17  20
ENDBRANCH  13  17
ENDBRANCH   7  15
ENDBRANCH   1  11
BRANCH   3  25
ATOM     25  N   UNL     1       0.994   9.292  21.491  0.00  0.00    +0.000 N 
ATOM     26  H   UNL     1       0.897   8.508  22.123  0.00  0.00    +0.000 HD
BRANCH  25  27
ATOM     27  C   UNL     1       0.230  10.414  21.842  0.00  0.00    +0.000 A 
ATOM     28  C   UNL     1      -0.763  10.306  22.815  0.00  0.00    +0.000 A 
ATOM     29  C   UNL     1      -1.479  11.434  23.237  0.00  0.00    +0.000 A 
ATOM     30  C   UNL     1      -1.223  12.710  22.720  0.00  0.00    +0.000 A 
ATOM     31  C   UNL     1      -0.237  12.796  21.727  0.00  0.00    +0.000 A 
ATOM     32  C   UNL     1       0.472  11.672  21.291  0.00  0.00    +0.000 A 
BRANCH  30  33
ATOM     33  N   UNL     1      -1.885  13.829  23.170  0.00  0.00    +0.000 N 
ATOM     34  C   UNL     1      -1.356  14.715  24.215  0.00  0.00    +0.000 C 
ATOM     35  C   UNL     1      -2.340  14.776  25.391  0.00  0.00    +0.000 C 
ATOM     36  O   UNL     1      -3.651  15.177  24.956  0.00  0.00    +0.000 OA
ATOM     37  C   UNL     1      -4.162  14.240  23.990  0.00  0.00    +0.000 C 
ATOM     38  C   UNL     1      -3.257  14.147  22.748  0.00  0.00    +0.000 C 
ENDBRANCH  30  33
ENDBRANCH  25  27
ENDBRANCH   3  25
TORSDOF 9
ENDMDL
MODEL 7
REMARK VINA RESULT:      -8.4      2.672      3.345
REMARK  Name = 
REMARK  9 active torsions:
REMARK  status: ('A' for Active; 'I' for Inactive)
REMARK    1  A    between atoms: C_2  and  C_3
REMARK    2  A    between atoms: C_3  and  C_4
REMARK    3  A    between atoms: N_6  and  C_7
REMARK    4  A    between atoms: C_7  and  C_8
REMARK    5  A    between atoms: N_10  and  C_11
REMARK    6  A    between atoms: C_15  and  C_16
REMARK    7  A    between atoms: C_18  and  N_19
REMARK    8  A    between atoms: N_19  and  C_20
REMARK    9  A    between atoms: C_23  and  N_24
REMARK                            x       y       z     vdW  Elec       q    Type
REMARK                         _______ _______ _______ _____ _____    ______ ____
ROOT
ATOM      1  C   UNL     1       2.537   7.384  18.805  0.00  0.00    +0.000 A 
ATOM      2  C   UNL     1       1.896   7.713  19.987  0.00  0.00    +0.000 A 
ATOM      3  C   UNL     1       1.253   8.930  20.061  0.00  0.00    +0.000 A 
ATOM      4  N   UNL     1       1.236   9.774  19.019  0.00  0.00    +0.000 NA
ATOM      5  C   UNL     1       1.844   9.357  17.900  0.00  0.00    +0.000 A 
ATOM      6  N   UNL     1       2.495   8.195  17.731  0.00  0.00    +0.000 NA
ENDROOT
BRANCH   1  11
ATOM      7  C   UNL     1       4.635   4.567  17.339  0.00  0.00    +0.000 A 
ATOM      8  C   UNL     1       4.407   3.564  18.285  0.00  0.00    +0.000 A 
ATOM      9  C   UNL     1       3.643   3.819  19.421  0.00  0.00    +0.000 A 
ATOM     10  C   UNL     1       3.073   5.073  19.608  0.00  0.00    +0.000 A 
ATOM     11  C   UNL     1       3.261   6.105  18.667  0.00  0.00    +0.000 A 
ATOM     12  C   UNL     1       4.098   5.844  17.560  0.00  0.00    +0.000 A 
BRANCH   7  15
ATOM     13  C   UNL     1       6.677   4.779  15.935  0.00  0.00    +0.000 C 
ATOM     14  O   UNL     1       7.424   5.282  16.774  0.00  0.00    +0.000 OA
ATOM     15  N   UNL     1       5.380   4.342  16.159  0.00  0.00    +0.000 N 
ATOM     16  H   UNL     1       5.008   3.664  15.496  0.00  0.00    +0.000 HD
BRANCH  13  17
ATOM     17  C   UNL     1       7.207   4.463  14.540  0.00  0.00    +0.000 C 
BRANCH  17  20
ATOM     18  C   UNL     1       6.323   3.582  12.424  0.00  0.00    +0.000 C 
ATOM     19  O   UNL     1       7.181   4.189  11.787  0.00  0.00    +0.000 OA
ATOM     20  N   UNL     1       6.244   3.669  13.797  0.00  0.00    +0.000 N 
ATOM     21  H   UNL     1       5.399   3.394  14.285  0.00  0.00    +0.000 HD
BRANCH  18  22
ATOM     22  C   UNL     1       5.286   2.698  11.772  0.00  0.00    +0.000 C 
BRANCH  22  24
ATOM     23  N   UNL     1       6.341   0.431  10.977  0.00  0.00    +0.000 NA
ATOM     24  C   UNL     1       5.899   1.448  11.315  0.00  0.00    +0.000 C 
ENDBRANCH  22  24
ENDBRANCH  18  22
ENDBRANCH  17  20
ENDBRANCH  13  17
ENDBRANCH   7  15
ENDBRANCH   1  11
BRANCH   3  25
ATOM     25  N   UNL     1       0.629   9.254  21.283  0.00  0.00    +0.000 N 
ATOM     26  H   UNL     1       0.549   8.447  21.889  0.00  0.00    +0.000 HD
BRANCH  25  27
ATOM     27  C   UNL     1      -0.315  10.259  21.533  0.00  0.00    +0.000 A 
ATOM     28  C   UNL     1      -0.717  10.530  22.841  0.00  0.00    +0.000 A 
ATOM     29  C   UNL     1      -1.596  11.586  23.117  0.00  0.00    +0.000 A 
ATOM     30  C   UNL     1      -2.093  12.418  22.106  0.00  0.00    +0.000 A 
ATOM     31  C   UNL     1      -1.696  12.118  20.796  0.00  0.00    +0.000 A 
ATOM     32  C   UNL     1      -0.829  11.057  20.512  0.00  0.00    +0.000 A 
BRANCH  30  33
ATOM     33  N   UNL     1      -2.913  13.490  22.378  0.00  0.00    +0.000 N 
ATOM     34  C   UNL     1      -3.287  13.895  23.739  0.00  0.00    +0.000 C 
ATOM     35  C   UNL     1      -4.813  13.854  23.892  0.00  0.00    +0.000 C 
ATOM     36  O   UNL     1      -5.462  14.658  22.892  0.00  0.00    +0.000 OA
ATOM     37  C   UNL     1      -5.129  14.178  21.576  0.00  0.00    +0.000 C 
ATOM     38  C   UNL     1      -3.612  14.227  21.316  0.00  0.00    +0.000 C 
ENDBRANCH  30  33
ENDBRANCH  25  27
ENDBRANCH   3  25
TORSDOF 9
ENDMDL
MODEL 8
REMARK VINA RESULT:      -8.3      3.542      4.525
REMARK  Name = 
REMARK  9 active torsions:
REMARK  status: ('A' for Active; 'I' for Inactive)
REMARK    1  A    between atoms: C_2  and  C_3
REMARK    2  A    between atoms: C_3  and  C_4
REMARK    3  A    between atoms: N_6  and  C_7
REMARK    4  A    between atoms: C_7  and  C_8
REMARK    5  A    between atoms: N_10  and  C_11
REMARK    6  A    between atoms: C_15  and  C_16
REMARK    7  A    between atoms: C_18  and  N_19
REMARK    8  A    between atoms: N_19  and  C_20
REMARK    9  A    between atoms: C_23  and  N_24
REMARK                            x       y       z     vdW  Elec       q    Type
REMARK                         _______ _______ _______ _____ _____    ______ ____
ROOT
ATOM      1  C   UNL     1       2.279   7.090  19.476  0.00  0.00    +0.000 A 
ATOM      2  C   UNL     1       2.172   8.131  18.569  0.00  0.00    +0.000 A 
ATOM      3  C   UNL     1       1.502   9.270  18.964  0.00  0.00    +0.000 A 
ATOM      4  N   UNL     1       0.976   9.379  20.192  0.00  0.00    +0.000 NA
ATOM      5  C   UNL     1       1.164   8.341  21.019  0.00  0.00    +0.000 A 
ATOM      6  N   UNL     1       1.798   7.194  20.729  0.00  0.00    +0.000 NA
ENDROOT
BRANCH   1  11
ATOM      7  C   UNL     1       4.264   4.507  17.509  0.00  0.00    +0.000 A 
ATOM      8  C   UNL     1       4.034   3.367  18.284  0.00  0.00    +0.000 A 
ATOM      9  C   UNL     1       3.307   3.449  19.469  0.00  0.00    +0.000 A 
ATOM     10  C   UNL     1       2.775   4.667  19.875  0.00  0.00    +0.000 A 
ATOM     11  C   UNL     1       2.965   5.835  19.110  0.00  0.00    +0.000 A 
ATOM     12  C   UNL     1       3.767   5.742  17.950  0.00  0.00    +0.000 A 
BRANCH   7  15
ATOM     13  C   UNL     1       6.354   4.488  16.160  0.00  0.00    +0.000 C 
ATOM     14  O   UNL     1       7.165   4.395  17.080  0.00  0.00    +0.000 OA
ATOM     15  N   UNL     1       4.973   4.462  16.286  0.00  0.00    +0.000 N 
ATOM     16  H   UNL     1       4.444   4.217  15.450  0.00  0.00    +0.000 HD
BRANCH  13  17
ATOM     17  C   UNL     1       6.845   4.509  14.715  0.00  0.00    +0.000 C 
BRANCH  17  20
ATOM     18  C   UNL     1       6.217   3.610  12.517  0.00  0.00    +0.000 C 
ATOM     19  O   UNL     1       7.166   4.184  11.987  0.00  0.00    +0.000 OA
ATOM     20  N   UNL     1       5.965   3.725  13.866  0.00  0.00    +0.000 N 
ATOM     21  H   UNL     1       5.057   3.480  14.246  0.00  0.00    +0.000 HD
BRANCH  18  22
ATOM     22  C   UNL     1       5.250   2.740  11.750  0.00  0.00    +0.000 C 
BRANCH  22  24
ATOM     23  N   UNL     1       6.403   0.534  10.920  0.00  0.00    +0.000 NA
ATOM     24  C   UNL     1       5.912   1.508  11.313  0.00  0.00    +0.000 C 
ENDBRANCH  22  24
ENDBRANCH  18  22
ENDBRANCH  17  20
ENDBRANCH  13  17
ENDBRANCH   7  15
ENDBRANCH   1  11
BRANCH   3  25
ATOM     25  N   UNL     1       1.385  10.306  18.015  0.00  0.00    +0.000 N 
ATOM     26  H   UNL     1       1.842  10.071  17.143  0.00  0.00    +0.000 HD
BRANCH  25  27
ATOM     27  C   UNL     1       1.259  11.682  18.248  0.00  0.00    +0.000 A 
ATOM     28  C   UNL     1       0.036  12.211  18.662  0.00  0.00    +0.000 A 
ATOM     29  C   UNL     1      -0.087  13.570  18.979  0.00  0.00    +0.000 A 
ATOM     30  C   UNL     1       1.003  14.447  18.913  0.00  0.00    +0.000 A 
ATOM     31  C   UNL     1       2.218  13.903  18.474  0.00  0.00    +0.000 A 
ATOM     32  C   UNL     1       2.345  12.550  18.142  0.00  0.00    +0.000 A 
BRANCH  30  33
ATOM     33  N   UNL     1       0.901  15.771  19.275  0.00  0.00    +0.000 N 
ATOM     34  C   UNL     1       0.462  16.828  18.355  0.00  0.00    +0.000 C 
ATOM     35  C   UNL     1       1.560  17.892  18.225  0.00  0.00    +0.000 C 
ATOM     36  O   UNL     1       1.936  18.417  19.510  0.00  0.00    +0.000 OA
ATOM     37  C   UNL     1       2.430  17.360  20.352  0.00  0.00    +0.000 C 
ATOM     38  C   UNL     1       1.374  16.263  20.577  0.00  0.00    +0.000 C 
ENDBRANCH  30  33
ENDBRANCH  25  27
ENDBRANCH   3  25
TORSDOF 9
ENDMDL
MODEL 9
REMARK VINA RESULT:      -8.3      4.200      6.648
REMARK  Name = 
REMARK  9 active torsions:
REMARK  status: ('A' for Active; 'I' for Inactive)
REMARK    1  A    between atoms: C_2  and  C_3
REMARK    2  A    between atoms: C_3  and  C_4
REMARK    3  A    between atoms: N_6  and  C_7
REMARK    4  A    between atoms: C_7  and  C_8
REMARK    5  A    between atoms: N_10  and  C_11
REMARK    6  A    between atoms: C_15  and  C_16
REMARK    7  A    between atoms: C_18  and  N_19
REMARK    8  A    between atoms: N_19  and  C_20
REMARK    9  A    between atoms: C_23  and  N_24
REMARK                            x       y       z     vdW  Elec       q    Type
REMARK                         _______ _______ _______ _____ _____    ______ ____
ROOT
ATOM      1  C   UNL     1       3.459   4.972  18.788  0.00  0.00    +0.000 A 
ATOM      2  C   UNL     1       3.072   6.001  19.630  0.00  0.00    +0.000 A 
ATOM      3  C   UNL     1       1.940   5.821  20.398  0.00  0.00    +0.000 A 
ATOM      4  N   UNL     1       1.234   4.683  20.343  0.00  0.00    +0.000 NA
ATOM      5  C   UNL     1       1.704   3.724  19.533  0.00  0.00    +0.000 A 
ATOM      6  N   UNL     1       2.791   3.804  18.750  0.00  0.00    +0.000 NA
ENDROOT
BRANCH   1  11
ATOM      7  C   UNL     1       6.429   6.486  16.954  0.00  0.00    +0.000 A 
ATOM      8  C   UNL     1       6.742   5.445  16.076  0.00  0.00    +0.000 A 
ATOM      9  C   UNL     1       6.047   4.239  16.128  0.00  0.00    +0.000 A 
ATOM     10  C   UNL     1       5.010   4.073  17.039  0.00  0.00    +0.000 A 
ATOM     11  C   UNL     1       4.649   5.107  17.926  0.00  0.00    +0.000 A 
ATOM     12  C   UNL     1       5.415   6.294  17.903  0.00  0.00    +0.000 A 
BRANCH   7  15
ATOM     13  C   UNL     1       7.980   8.200  17.873  0.00  0.00    +0.000 C 
ATOM     14  O   UNL     1       8.445   7.546  18.805  0.00  0.00    +0.000 OA
ATOM     15  N   UNL     1       7.091   7.735  16.915  0.00  0.00    +0.000 N 
ATOM     16  H   UNL     1       7.050   8.257  16.041  0.00  0.00    +0.000 HD
BRANCH  13  17
ATOM     17  C   UNL     1       8.482   9.618  17.617  0.00  0.00    +0.000 C 
BRANCH  17  20
ATOM     18  C   UNL     1      10.084  11.092  18.756  0.00  0.00    +0.000 C 
ATOM     19  O   UNL     1      10.573  11.429  17.679  0.00  0.00    +0.000 OA
ATOM     20  N   UNL     1       9.051  10.183  18.828  0.00  0.00    +0.000 N 
ATOM     21  H   UNL     1       8.835   9.714  19.701  0.00  0.00    +0.000 HD
BRANCH  18  22
ATOM     22  C   UNL     1      10.564  11.632  20.082  0.00  0.00    +0.000 C 
BRANCH  22  24
ATOM     23  N   UNL     1       8.611  11.518  21.832  0.00  0.00    +0.000 NA
ATOM     24  C   UNL     1       9.493  11.553  21.080  0.00  0.00    +0.000 C 
ENDBRANCH  22  24
ENDBRANCH  18  22
ENDBRANCH  17  20
ENDBRANCH  13  17
ENDBRANCH   7  15
ENDBRANCH   1  11
BRANCH   3  25
ATOM     25  N   UNL     1       1.552   6.892  21.229  0.00  0.00    +0.000 N 
ATOM     26  H   UNL     1       1.249   6.570  22.139  0.00  0.00    +0.000 HD
BRANCH  25  27
ATOM     27  C   UNL     1       1.024   8.134  20.850  0.00  0.00    +0.000 A 
ATOM     28  C   UNL     1       0.174   8.824  21.714  0.00  0.00    +0.000 A 
ATOM     29  C   UNL     1      -0.296  10.103  21.387  0.00  0.00    +0.000 A 
ATOM     30  C   UNL     1       0.074  10.747  20.200  0.00  0.00    +0.000 A 
ATOM     31  C   UNL     1       0.910  10.030  19.334  0.00  0.00    +0.000 A 
ATOM     32  C   UNL     1       1.373   8.747  19.647  0.00  0.00    +0.000 A 
BRANCH  30  33
ATOM     33  N   UNL     1      -0.342  12.024  19.899  0.00  0.00    +0.000 N 
ATOM     34  C   UNL     1       0.279  12.850  18.856  0.00  0.00    +0.000 C 
ATOM     35  C   UNL     1       0.816  14.148  19.473  0.00  0.00    +0.000 C 
ATOM     36  O   UNL     1      -0.216  14.858  20.181  0.00  0.00    +0.000 OA
ATOM     37  C   UNL     1      -0.743  14.040  21.241  0.00  0.00    +0.000 C 
ATOM     38  C   UNL     1      -1.348  12.729  20.707  0.00  0.00    +0.000 C 
ENDBRANCH  30  33
ENDBRANCH  25  27
ENDBRANCH   3  25
TORSDOF 9
ENDMDL
