MODEL 1
REMARK VINA RESULT:      -6.7      0.000      0.000
REMARK  Name = 
REMARK  13 active torsions:
REMARK  status: ('A' for Active; 'I' for Inactive)
REMARK    1  A    between atoms: C_1  and  O_2
REMARK    2  A    between atoms: O_2  and  C_3
REMARK    3  A    between atoms: C_6  and  C_7
REMARK    4  A    between atoms: C_7  and  O_8
REMARK    5  A    between atoms: O_8  and  C_9
REMARK    6  A    between atoms: C_9  and  C_10
REMARK    7  A    between atoms: C_10  and  C_11
REMARK    8  A    between atoms: C_10  and  O_17
REMARK    9  A    between atoms: C_11  and  N_12
REMARK   10  A    between atoms: O_17  and  C_18
REMARK   11  A    between atoms: C_18  and  C_19
REMARK   12  A    between atoms: C_22  and  S_23
REMARK   13  A    between atoms: S_23  and  C_24
REMARK                            x       y       z     vdW  Elec       q    Type
REMARK                         _______ _______ _______ _____ _____    ______ ____
ROOT
ATOM      1  C   UNL     1       3.003   3.975  17.751  0.00  0.00    +0.000 C 
ENDROOT
BRANCH   1   2
ATOM      2  C   UNL     1       3.951   3.471  16.648  0.00  0.00    +0.000 C 
BRANCH   2   3
ATOM      3  O   UNL     1       5.316   3.463  17.056  0.00  0.00    +0.000 OA
BRANCH   3   4
ATOM      4  C   UNL     1       6.167   4.189  16.169  0.00  0.00    +0.000 C 
BRANCH   4   8
ATOM      5  C   UNL     1       8.089   7.344  18.387  0.00  0.00    +0.000 A 
ATOM      6  C   UNL     1       7.510   7.620  17.150  0.00  0.00    +0.000 A 
ATOM      7  C   UNL     1       6.894   6.606  16.417  0.00  0.00    +0.000 A 
ATOM      8  C   UNL     1       6.877   5.293  16.902  0.00  0.00    +0.000 A 
ATOM      9  C   UNL     1       7.472   5.020  18.141  0.00  0.00    +0.000 A 
ATOM     10  C   UNL     1       8.084   6.038  18.878  0.00  0.00    +0.000 A 
BRANCH   5  12
ATOM     11  C   UNL     1       8.581   9.650  18.307  0.00  0.00    +0.000 C 
ATOM     12  O   UNL     1       8.663   8.417  19.012  0.00  0.00    +0.000 OA
ENDBRANCH   5  12
ENDBRANCH   4   8
ENDBRANCH   3   4
ENDBRANCH   2   3
ENDBRANCH   1   2
BRANCH   1  13
ATOM     13  C   UNL     1       3.626   3.839  19.154  0.00  0.00    +0.000 C 
BRANCH  13  14
ATOM     14  N   UNL     1       2.721   3.326  20.164  0.00  0.00    +0.000 N 
ATOM     15  C   UNL     1       1.360   3.447  20.178  0.00  0.00    +0.000 A 
ATOM     16  C   UNL     1       0.965   2.841  21.348  0.00  0.00    +0.000 A 
ATOM     17  N   UNL     1       2.048   2.378  22.048  0.00  0.00    +0.000 NA
ATOM     18  C   UNL     1       3.093   2.691  21.314  0.00  0.00    +0.000 A 
ENDBRANCH  13  14
ENDBRANCH   1  13
BRANCH   1  19
ATOM     19  O   UNL     1       2.581   5.326  17.540  0.00  0.00    +0.000 OA
BRANCH  19  20
ATOM     20  C   UNL     1       3.402   6.294  18.198  0.00  0.00    +0.000 C 
BRANCH  20  21
ATOM     21  C   UNL     1       2.573   7.468  18.643  0.00  0.00    +0.000 A 
ATOM     22  C   UNL     1       2.249   8.502  17.759  0.00  0.00    +0.000 A 
ATOM     23  C   UNL     1       1.475   9.583  18.186  0.00  0.00    +0.000 A 
ATOM     24  C   UNL     1       0.986   9.641  19.496  0.00  0.00    +0.000 A 
ATOM     25  C   UNL     1       1.277   8.588  20.368  0.00  0.00    +0.000 A 
ATOM     26  C   UNL     1       2.056   7.506  19.944  0.00  0.00    +0.000 A 
BRANCH  24  27
ATOM     27  S   UNL     1       0.087  11.109  19.970  0.00  0.00    +0.000 S 
ATOM     28  C   UNL     1      -1.427  10.975  18.985  0.00  0.00    +0.000 C 
ENDBRANCH  24  27
ENDBRANCH  20  21
ENDBRANCH  19  20
ENDBRANCH   1  19
TORSDOF 11
ENDMDL
MODEL 2
REMARK VINA RESULT:      -6.7      0.645      1.254
REMARK  Name = 
REMARK  13 active torsions:
REMARK  status: ('A' for Active; 'I' for Inactive)
REMARK    1  A    between atoms: C_1  and  O_2
REMARK    2  A    between atoms: O_2  and  C_3
REMARK    3  A    between atoms: C_6  and  C_7
REMARK    4  A    between atoms: C_7  and  O_8
REMARK    5  A    between atoms: O_8  and  C_9
REMARK    6  A    between atoms: C_9  and  C_10
REMARK    7  A    between atoms: C_10  and  C_11
REMARK    8  A    between atoms: C_10  and  O_17
REMARK    9  A    between atoms: C_11  and  N_12
REMARK   10  A    between atoms: O_17  and  C_18
REMARK   11  A    between atoms: C_18  and  C_19
REMARK   12  A    between atoms: C_22  and  S_23
REMARK   13  A    between atoms: S_23  and  C_24
REMARK                            x       y       z     vdW  Elec       q    Type
REMARK                         _______ _______ _______ _____ _____    ______ ____
ROOT
ATOM      1  C   UNL     1       2.986   4.136  17.530  0.00  0.00    +0.000 C 
ENDROOT
BRANCH   1   2
ATOM      2  C   UNL     1       4.019   4.140  16.388  0.00  0.00    +0.000 C 
BRANCH   2   3
ATOM      3  O   UNL     1       5.234   3.486  16.743  0.00  0.00    +0.000 OA
BRANCH   3   4
ATOM      4  C   UNL     1       6.377   4.041  16.092  0.00  0.00    +0.000 C 
BRANCH   4   8
ATOM      5  C   UNL     1       8.077   7.362  18.248  0.00  0.00    +0.000 A 
ATOM      6  C   UNL     1       8.023   6.103  18.844  0.00  0.00    +0.000 A 
ATOM      7  C   UNL     1       7.465   5.022  18.162  0.00  0.00    +0.000 A 
ATOM      8  C   UNL     1       6.926   5.196  16.881  0.00  0.00    +0.000 A 
ATOM      9  C   UNL     1       6.973   6.467  16.293  0.00  0.00    +0.000 A 
ATOM     10  C   UNL     1       7.538   7.548  16.975  0.00  0.00    +0.000 A 
BRANCH   5  12
ATOM     11  C   UNL     1       8.625   9.647  18.447  0.00  0.00    +0.000 C 
ATOM     12  O   UNL     1       8.645   8.342  19.014  0.00  0.00    +0.000 OA
ENDBRANCH   5  12
ENDBRANCH   4   8
ENDBRANCH   3   4
ENDBRANCH   2   3
ENDBRANCH   1   2
BRANCH   1  13
ATOM     13  C   UNL     1       2.894   2.761  18.220  0.00  0.00    +0.000 C 
BRANCH  13  14
ATOM     14  N   UNL     1       2.423   2.809  19.590  0.00  0.00    +0.000 N 
ATOM     15  C   UNL     1       3.183   2.693  20.720  0.00  0.00    +0.000 A 
ATOM     16  C   UNL     1       2.283   2.759  21.758  0.00  0.00    +0.000 A 
ATOM     17  N   UNL     1       1.002   2.890  21.287  0.00  0.00    +0.000 NA
ATOM     18  C   UNL     1       1.117   2.910  19.977  0.00  0.00    +0.000 A 
ENDBRANCH  13  14
ENDBRANCH   1  13
BRANCH   1  19
ATOM     19  O   UNL     1       3.239   5.150  18.506  0.00  0.00    +0.000 OA
BRANCH  19  20
ATOM     20  C   UNL     1       3.552   6.426  17.942  0.00  0.00    +0.000 C 
BRANCH  20  21
ATOM     21  C   UNL     1       2.656   7.488  18.519  0.00  0.00    +0.000 A 
ATOM     22  C   UNL     1       2.191   8.548  17.733  0.00  0.00    +0.000 A 
ATOM     23  C   UNL     1       1.356   9.523  18.281  0.00  0.00    +0.000 A 
ATOM     24  C   UNL     1       0.947   9.447  19.618  0.00  0.00    +0.000 A 
ATOM     25  C   UNL     1       1.379   8.366  20.392  0.00  0.00    +0.000 A 
ATOM     26  C   UNL     1       2.219   7.390  19.845  0.00  0.00    +0.000 A 
BRANCH  24  27
ATOM     27  S   UNL     1      -0.043  10.793  20.249  0.00  0.00    +0.000 S 
ATOM     28  C   UNL     1      -0.674  11.557  18.734  0.00  0.00    +0.000 C 
ENDBRANCH  24  27
ENDBRANCH  20  21
ENDBRANCH  19  20
ENDBRANCH   1  19
TORSDOF 11
ENDMDL
MODEL 3
REMARK VINA RESULT:      -6.6      0.793      1.524
REMARK  Name = 
REMARK  13 active torsions:
REMARK  status: ('A' for Active; 'I' for Inactive)
REMARK    1  A    between atoms: C_1  and  O_2
REMARK    2  A    between atoms: O_2  and  C_3
REMARK    3  A    between atoms: C_6  and  C_7
REMARK    4  A    between atoms: C_7  and  O_8
REMARK    5  A    between atoms: O_8  and  C_9
REMARK    6  A    between atoms: C_9  and  C_10
REMARK    7  A    between atoms: C_10  and  C_11
REMARK    8  A    between atoms: C_10  and  O_17
REMARK    9  A    between atoms: C_11  and  N_12
REMARK   10  A    between atoms: O_17  and  C_18
REMARK   11  A    between atoms: C_18  and  C_19
REMARK   12  A    between atoms: C_22  and  S_23
REMARK   13  A    between atoms: S_23  and  C_24
REMARK                            x       y       z     vdW  Elec       q    Type
REMARK                         _______ _______ _______ _____ _____    ______ ____
ROOT
ATOM      1  C   UNL     1       2.538   4.048  17.426  0.00  0.00    +0.000 C 
ENDROOT
BRANCH   1   2
ATOM      2  C   UNL     1       4.070   4.117  17.575  0.00  0.00    +0.000 C 
BRANCH   2   3
ATOM      3  O   UNL     1       4.744   4.131  16.320  0.00  0.00    +0.000 OA
BRANCH   3   4
ATOM      4  C   UNL     1       6.156   3.962  16.445  0.00  0.00    +0.000 C 
BRANCH   4   8
ATOM      5  C   UNL     1       8.029   7.369  18.303  0.00  0.00    +0.000 A 
ATOM      6  C   UNL     1       8.148   6.109  18.887  0.00  0.00    +0.000 A 
ATOM      7  C   UNL     1       7.537   5.000  18.301  0.00  0.00    +0.000 A 
ATOM      8  C   UNL     1       6.773   5.145  17.137  0.00  0.00    +0.000 A 
ATOM      9  C   UNL     1       6.648   6.417  16.562  0.00  0.00    +0.000 A 
ATOM     10  C   UNL     1       7.265   7.526  17.146  0.00  0.00    +0.000 A 
BRANCH   5  12
ATOM     11  C   UNL     1       8.597   9.658  18.349  0.00  0.00    +0.000 C 
ATOM     12  O   UNL     1       8.669   8.379  18.967  0.00  0.00    +0.000 OA
ENDBRANCH   5  12
ENDBRANCH   4   8
ENDBRANCH   3   4
ENDBRANCH   2   3
ENDBRANCH   1   2
BRANCH   1  13
ATOM     13  C   UNL     1       1.947   2.804  18.117  0.00  0.00    +0.000 C 
BRANCH  13  14
ATOM     14  N   UNL     1       2.066   2.807  19.562  0.00  0.00    +0.000 N 
ATOM     15  C   UNL     1       1.066   3.045  20.463  0.00  0.00    +0.000 A 
ATOM     16  C   UNL     1       1.678   2.980  21.694  0.00  0.00    +0.000 A 
ATOM     17  N   UNL     1       3.019   2.730  21.559  0.00  0.00    +0.000 NA
ATOM     18  C   UNL     1       3.225   2.638  20.264  0.00  0.00    +0.000 A 
ENDBRANCH  13  14
ENDBRANCH   1  13
BRANCH   1  19
ATOM     19  O   UNL     1       1.884   5.225  17.909  0.00  0.00    +0.000 OA
BRANCH  19  20
ATOM     20  C   UNL     1       2.662   5.970  18.849  0.00  0.00    +0.000 C 
BRANCH  20  21
ATOM     21  C   UNL     1       2.123   7.368  18.982  0.00  0.00    +0.000 A 
ATOM     22  C   UNL     1       1.723   7.875  20.223  0.00  0.00    +0.000 A 
ATOM     23  C   UNL     1       1.229   9.177  20.332  0.00  0.00    +0.000 A 
ATOM     24  C   UNL     1       1.148  10.008  19.209  0.00  0.00    +0.000 A 
ATOM     25  C   UNL     1       1.585   9.515  17.975  0.00  0.00    +0.000 A 
ATOM     26  C   UNL     1       2.076   8.210  17.864  0.00  0.00    +0.000 A 
BRANCH  24  27
ATOM     27  S   UNL     1       0.415  11.620  19.435  0.00  0.00    +0.000 S 
ATOM     28  C   UNL     1      -0.879  11.293  20.658  0.00  0.00    +0.000 C 
ENDBRANCH  24  27
ENDBRANCH  20  21
ENDBRANCH  19  20
ENDBRANCH   1  19
TORSDOF 11
ENDMDL
MODEL 4
REMARK VINA RESULT:      -6.5      0.895      1.408
REMARK  Name = 
REMARK  13 active torsions:
REMARK  status: ('A' for Active; 'I' for Inactive)
REMARK    1  A    between atoms: C_1  and  O_2
REMARK    2  A    between atoms: O_2  and  C_3
REMARK    3  A    between atoms: C_6  and  C_7
REMARK    4  A    between atoms: C_7  and  O_8
REMARK    5  A    between atoms: O_8  and  C_9
REMARK    6  A    between atoms: C_9  and  C_10
REMARK    7  A    between atoms: C_10  and  C_11
REMARK    8  A    between atoms: C_10  and  O_17
REMARK    9  A    between atoms: C_11  and  N_12
REMARK   10  A    between atoms: O_17  and  C_18
REMARK   11  A    between atoms: C_18  and  C_19
REMARK   12  A    between atoms: C_22  and  S_23
REMARK   13  A    between atoms: S_23  and  C_24
REMARK                            x       y       z     vdW  Elec       q    Type
REMARK                         _______ _______ _______ _____ _____    ______ ____
ROOT
ATOM      1  C   UNL     1       2.723   4.598  17.941  0.00  0.00    +0.000 C 
ENDROOT
BRANCH   1   2
ATOM      2  C   UNL     1       3.355   3.778  16.801  0.00  0.00    +0.000 C 
BRANCH   2   3
ATOM      3  O   UNL     1       4.457   4.443  16.190  0.00  0.00    +0.000 OA
BRANCH   3   4
ATOM      4  C   UNL     1       5.721   3.986  16.671  0.00  0.00    +0.000 C 
BRANCH   4   8
ATOM      5  C   UNL     1       7.938   7.265  18.375  0.00  0.00    +0.000 A 
ATOM      6  C   UNL     1       7.128   7.480  17.261  0.00  0.00    +0.000 A 
ATOM      7  C   UNL     1       6.413   6.426  16.693  0.00  0.00    +0.000 A 
ATOM      8  C   UNL     1       6.526   5.132  17.218  0.00  0.00    +0.000 A 
ATOM      9  C   UNL     1       7.351   4.920  18.330  0.00  0.00    +0.000 A 
ATOM     10  C   UNL     1       8.062   5.978  18.902  0.00  0.00    +0.000 A 
BRANCH   5  12
ATOM     11  C   UNL     1       8.449   9.544  18.047  0.00  0.00    +0.000 C 
ATOM     12  O   UNL     1       8.589   8.373  18.842  0.00  0.00    +0.000 OA
ENDBRANCH   5  12
ENDBRANCH   4   8
ENDBRANCH   3   4
ENDBRANCH   2   3
ENDBRANCH   1   2
BRANCH   1  13
ATOM     13  C   UNL     1       3.491   4.431  19.267  0.00  0.00    +0.000 C 
BRANCH  13  14
ATOM     14  N   UNL     1       2.769   3.700  20.289  0.00  0.00    +0.000 N 
ATOM     15  C   UNL     1       3.257   2.688  21.067  0.00  0.00    +0.000 A 
ATOM     16  C   UNL     1       2.191   2.295  21.843  0.00  0.00    +0.000 A 
ATOM     17  N   UNL     1       1.071   3.026  21.540  0.00  0.00    +0.000 NA
ATOM     18  C   UNL     1       1.448   3.858  20.596  0.00  0.00    +0.000 A 
ENDBRANCH  13  14
ENDBRANCH   1  13
BRANCH   1  19
ATOM     19  O   UNL     1       2.609   5.989  17.621  0.00  0.00    +0.000 OA
BRANCH  19  20
ATOM     20  C   UNL     1       3.182   6.853  18.605  0.00  0.00    +0.000 C 
BRANCH  20  21
ATOM     21  C   UNL     1       2.224   7.961  18.949  0.00  0.00    +0.000 A 
ATOM     22  C   UNL     1       1.733   8.117  20.250  0.00  0.00    +0.000 A 
ATOM     23  C   UNL     1       0.849   9.153  20.554  0.00  0.00    +0.000 A 
ATOM     24  C   UNL     1       0.455  10.071  19.574  0.00  0.00    +0.000 A 
ATOM     25  C   UNL     1       0.976   9.939  18.283  0.00  0.00    +0.000 A 
ATOM     26  C   UNL     1       1.860   8.899  17.975  0.00  0.00    +0.000 A 
BRANCH  24  27
ATOM     27  S   UNL     1      -0.752  11.301  20.040  0.00  0.00    +0.000 S 
ATOM     28  C   UNL     1       0.194  12.376  21.148  0.00  0.00    +0.000 C 
ENDBRANCH  24  27
ENDBRANCH  20  21
ENDBRANCH  19  20
ENDBRANCH   1  19
TORSDOF 11
ENDMDL
MODEL 5
REMARK VINA RESULT:      -6.2      3.683      6.462
REMARK  Name = 
REMARK  13 active torsions:
REMARK  status: ('A' for Active; 'I' for Inactive)
REMARK    1  A    between atoms: C_1  and  O_2
REMARK    2  A    between atoms: O_2  and  C_3
REMARK    3  A    between atoms: C_6  and  C_7
REMARK    4  A    between atoms: C_7  and  O_8
REMARK    5  A    between atoms: O_8  and  C_9
REMARK    6  A    between atoms: C_9  and  C_10
REMARK    7  A    between atoms: C_10  and  C_11
REMARK    8  A    between atoms: C_10  and  O_17
REMARK    9  A    between atoms: C_11  and  N_12
REMARK   10  A    between atoms: O_17  and  C_18
REMARK   11  A    between atoms: C_18  and  C_19
REMARK   12  A    between atoms: C_22  and  S_23
REMARK   13  A    between atoms: S_23  and  C_24
REMARK                            x       y       z     vdW  Elec       q    Type
REMARK                         _______ _______ _______ _____ _____    ______ ____
ROOT
ATOM      1  C   UNL     1       0.583  10.238  18.961  0.00  0.00    +0.000 C 
ENDROOT
BRANCH   1   2
ATOM      2  C   UNL     1       1.755   9.780  18.074  0.00  0.00    +0.000 C 
BRANCH   2   3
ATOM      3  O   UNL     1       1.688   8.395  17.746  0.00  0.00    +0.000 OA
BRANCH   3   4
ATOM      4  C   UNL     1       2.412   7.571  18.659  0.00  0.00    +0.000 C 
BRANCH   4   8
ATOM      5  C   UNL     1       4.850   4.622  16.676  0.00  0.00    +0.000 A 
ATOM      6  C   UNL     1       5.238   5.961  16.669  0.00  0.00    +0.000 A 
ATOM      7  C   UNL     1       4.453   6.927  17.297  0.00  0.00    +0.000 A 
ATOM      8  C   UNL     1       3.250   6.567  17.917  0.00  0.00    +0.000 A 
ATOM      9  C   UNL     1       2.859   5.221  17.910  0.00  0.00    +0.000 A 
ATOM     10  C   UNL     1       3.650   4.253  17.286  0.00  0.00    +0.000 A 
BRANCH   5  12
ATOM     11  C   UNL     1       5.999   4.111  14.681  0.00  0.00    +0.000 C 
ATOM     12  O   UNL     1       5.699   3.768  16.028  0.00  0.00    +0.000 OA
ENDBRANCH   5  12
ENDBRANCH   4   8
ENDBRANCH   3   4
ENDBRANCH   2   3
ENDBRANCH   1   2
BRANCH   1  13
ATOM     13  C   UNL     1       1.064  11.050  20.180  0.00  0.00    +0.000 C 
BRANCH  13  14
ATOM     14  N   UNL     1       0.522  10.606  21.448  0.00  0.00    +0.000 N 
ATOM     15  C   UNL     1       0.827   9.447  22.106  0.00  0.00    +0.000 A 
ATOM     16  C   UNL     1       0.033   9.461  23.229  0.00  0.00    +0.000 A 
ATOM     17  N   UNL     1      -0.756  10.582  23.256  0.00  0.00    +0.000 NA
ATOM     18  C   UNL     1      -0.444  11.249  22.168  0.00  0.00    +0.000 A 
ENDBRANCH  13  14
ENDBRANCH   1  13
BRANCH   1  19
ATOM     19  O   UNL     1      -0.397  10.989  18.237  0.00  0.00    +0.000 OA
BRANCH  19  20
ATOM     20  C   UNL     1      -1.484  10.198  17.752  0.00  0.00    +0.000 C 
BRANCH  20  21
ATOM     21  C   UNL     1      -2.797  10.848  18.094  0.00  0.00    +0.000 A 
ATOM     22  C   UNL     1      -2.882  11.829  19.087  0.00  0.00    +0.000 A 
ATOM     23  C   UNL     1      -4.107  12.427  19.390  0.00  0.00    +0.000 A 
ATOM     24  C   UNL     1      -5.267  12.077  18.691  0.00  0.00    +0.000 A 
ATOM     25  C   UNL     1      -5.175  11.125  17.671  0.00  0.00    +0.000 A 
ATOM     26  C   UNL     1      -3.950  10.522  17.369  0.00  0.00    +0.000 A 
BRANCH  24  27
ATOM     27  S   UNL     1      -6.799  12.829  19.217  0.00  0.00    +0.000 S 
ATOM     28  C   UNL     1      -7.057  14.109  17.963  0.00  0.00    +0.000 C 
ENDBRANCH  24  27
ENDBRANCH  20  21
ENDBRANCH  19  20
ENDBRANCH   1  19
TORSDOF 11
ENDMDL
MODEL 6
REMARK VINA RESULT:      -6.2      4.483      7.569
REMARK  Name = 
REMARK  13 active torsions:
REMARK  status: ('A' for Active; 'I' for Inactive)
REMARK    1  A    between atoms: C_1  and  O_2
REMARK    2  A    between atoms: O_2  and  C_3
REMARK    3  A    between atoms: C_6  and  C_7
REMARK    4  A    between atoms: C_7  and  O_8
REMARK    5  A    between atoms: O_8  and  C_9
REMARK    6  A    between atoms: C_9  and  C_10
REMARK    7  A    between atoms: C_10  and  C_11
REMARK    8  A    between atoms: C_10  and  O_17
REMARK    9  A    between atoms: C_11  and  N_12
REMARK   10  A    between atoms: O_17  and  C_18
REMARK   11  A    between atoms: C_18  and  C_19
REMARK   12  A    between atoms: C_22  and  S_23
REMARK   13  A    between atoms: S_23  and  C_24
REMARK                            x       y       z     vdW  Elec       q    Type
REMARK                         _______ _______ _______ _____ _____    ______ ____
ROOT
ATOM      1  C   UNL     1       0.230  10.418  19.113  0.00  0.00    +0.000 C 
ENDROOT
BRANCH   1   2
ATOM      2  C   UNL     1       1.260   9.697  18.223  0.00  0.00    +0.000 C 
BRANCH   2   3
ATOM      3  O   UNL     1       2.078   8.787  18.953  0.00  0.00    +0.000 OA
BRANCH   3   4
ATOM      4  C   UNL     1       2.592   7.729  18.145  0.00  0.00    +0.000 C 
BRANCH   4   8
ATOM      5  C   UNL     1       1.493   3.901  19.791  0.00  0.00    +0.000 A 
ATOM      6  C   UNL     1       1.618   5.006  20.630  0.00  0.00    +0.000 A 
ATOM      7  C   UNL     1       1.984   6.249  20.113  0.00  0.00    +0.000 A 
ATOM      8  C   UNL     1       2.259   6.392  18.747  0.00  0.00    +0.000 A 
ATOM      9  C   UNL     1       2.143   5.275  17.910  0.00  0.00    +0.000 A 
ATOM     10  C   UNL     1       1.771   4.032  18.429  0.00  0.00    +0.000 A 
BRANCH   5  12
ATOM     11  C   UNL     1       1.652   2.557  21.722  0.00  0.00    +0.000 C 
ATOM     12  O   UNL     1       1.130   2.738  20.412  0.00  0.00    +0.000 OA
ENDBRANCH   5  12
ENDBRANCH   4   8
ENDBRANCH   3   4
ENDBRANCH   2   3
ENDBRANCH   1   2
BRANCH   1  13
ATOM     13  C   UNL     1       0.905  11.214  20.248  0.00  0.00    +0.000 C 
BRANCH  13  14
ATOM     14  N   UNL     1       0.041  11.496  21.377  0.00  0.00    +0.000 N 
ATOM     15  C   UNL     1      -0.445  12.719  21.747  0.00  0.00    +0.000 A 
ATOM     16  C   UNL     1      -1.172  12.477  22.890  0.00  0.00    +0.000 A 
ATOM     17  N   UNL     1      -1.120  11.151  23.231  0.00  0.00    +0.000 NA
ATOM     18  C   UNL     1      -0.377  10.586  22.305  0.00  0.00    +0.000 A 
ENDBRANCH  13  14
ENDBRANCH   1  13
BRANCH   1  19
ATOM     19  O   UNL     1      -0.636  11.279  18.368  0.00  0.00    +0.000 OA
BRANCH  19  20
ATOM     20  C   UNL     1      -1.596  10.580  17.573  0.00  0.00    +0.000 C 
BRANCH  20  21
ATOM     21  C   UNL     1      -2.977  11.118  17.827  0.00  0.00    +0.000 A 
ATOM     22  C   UNL     1      -3.307  11.718  19.048  0.00  0.00    +0.000 A 
ATOM     23  C   UNL     1      -4.592  12.217  19.268  0.00  0.00    +0.000 A 
ATOM     24  C   UNL     1      -5.568  12.151  18.266  0.00  0.00    +0.000 A 
ATOM     25  C   UNL     1      -5.227  11.587  17.033  0.00  0.00    +0.000 A 
ATOM     26  C   UNL     1      -3.941  11.083  16.812  0.00  0.00    +0.000 A 
BRANCH  24  27
ATOM     27  S   UNL     1      -7.206  12.730  18.679  0.00  0.00    +0.000 S 
ATOM     28  C   UNL     1      -7.310  12.376  20.452  0.00  0.00    +0.000 C 
ENDBRANCH  24  27
ENDBRANCH  20  21
ENDBRANCH  19  20
ENDBRANCH   1  19
TORSDOF 11
ENDMDL
MODEL 7
REMARK VINA RESULT:      -6.1      3.263      7.054
REMARK  Name = 
REMARK  13 active torsions:
REMARK  status: ('A' for Active; 'I' for Inactive)
REMARK    1  A    between atoms: C_1  and  O_2
REMARK    2  A    between atoms: O_2  and  C_3
REMARK    3  A    between atoms: C_6  and  C_7
REMARK    4  A    between atoms: C_7  and  O_8
REMARK    5  A    between atoms: O_8  and  C_9
REMARK    6  A    between atoms: C_9  and  C_10
REMARK    7  A    between atoms: C_10  and  C_11
REMARK    8  A    between atoms: C_10  and  O_17
REMARK    9  A    between atoms: C_11  and  N_12
REMARK   10  A    between atoms: O_17  and  C_18
REMARK   11  A    between atoms: C_18  and  C_19
REMARK   12  A    between atoms: C_22  and  S_23
REMARK   13  A    between atoms: S_23  and  C_24
REMARK                            x       y       z     vdW  Elec       q    Type
REMARK                         _______ _______ _______ _____ _____    ______ ____
ROOT
ATOM      1  C   UNL     1       4.226   4.815  18.922  0.00  0.00    +0.000 C 
ENDROOT
BRANCH   1   2
ATOM      2  C   UNL     1       4.082   6.222  18.313  0.00  0.00    +0.000 C 
BRANCH   2   3
ATOM      3  O   UNL     1       2.724   6.642  18.212  0.00  0.00    +0.000 OA
BRANCH   3   4
ATOM      4  C   UNL     1       2.590   8.044  17.983  0.00  0.00    +0.000 C 
BRANCH   4   8
ATOM      5  C   UNL     1       0.023   9.945  20.876  0.00  0.00    +0.000 A 
ATOM      6  C   UNL     1       0.767   8.824  21.240  0.00  0.00    +0.000 A 
ATOM      7  C   UNL     1       1.593   8.192  20.310  0.00  0.00    +0.000 A 
ATOM      8  C   UNL     1       1.662   8.660  18.992  0.00  0.00    +0.000 A 
ATOM      9  C   UNL     1       0.902   9.781  18.630  0.00  0.00    +0.000 A 
ATOM     10  C   UNL     1       0.080  10.416  19.563  0.00  0.00    +0.000 A 
BRANCH   5  12
ATOM     11  C   UNL     1      -0.496   9.973  23.176  0.00  0.00    +0.000 C 
ATOM     12  O   UNL     1      -0.750  10.477  21.871  0.00  0.00    +0.000 OA
ENDBRANCH   5  12
ENDBRANCH   4   8
ENDBRANCH   3   4
ENDBRANCH   2   3
ENDBRANCH   1   2
BRANCH   1  13
ATOM     13  C   UNL     1       2.915   4.010  18.832  0.00  0.00    +0.000 C 
BRANCH  13  14
ATOM     14  N   UNL     1       2.485   3.422  20.085  0.00  0.00    +0.000 N 
ATOM     15  C   UNL     1       1.234   3.489  20.632  0.00  0.00    +0.000 A 
ATOM     16  C   UNL     1       1.338   2.821  21.830  0.00  0.00    +0.000 A 
ATOM     17  N   UNL     1       2.618   2.373  22.030  0.00  0.00    +0.000 NA
ATOM     18  C   UNL     1       3.288   2.756  20.966  0.00  0.00    +0.000 A 
ENDBRANCH  13  14
ENDBRANCH   1  13
BRANCH   1  19
ATOM     19  O   UNL     1       5.293   4.066  18.333  0.00  0.00    +0.000 OA
BRANCH  19  20
ATOM     20  C   UNL     1       6.305   4.881  17.735  0.00  0.00    +0.000 C 
BRANCH  20  21
ATOM     21  C   UNL     1       6.392   4.608  16.259  0.00  0.00    +0.000 A 
ATOM     22  C   UNL     1       5.344   3.982  15.576  0.00  0.00    +0.000 A 
ATOM     23  C   UNL     1       5.436   3.739  14.204  0.00  0.00    +0.000 A 
ATOM     24  C   UNL     1       6.565   4.140  13.480  0.00  0.00    +0.000 A 
ATOM     25  C   UNL     1       7.596   4.801  14.155  0.00  0.00    +0.000 A 
ATOM     26  C   UNL     1       7.506   5.041  15.531  0.00  0.00    +0.000 A 
BRANCH  24  27
ATOM     27  S   UNL     1       6.628   3.700  11.751  0.00  0.00    +0.000 S 
ATOM     28  C   UNL     1       5.665   2.168  11.702  0.00  0.00    +0.000 C 
ENDBRANCH  24  27
ENDBRANCH  20  21
ENDBRANCH  19  20
ENDBRANCH   1  19
TORSDOF 11
ENDMDL
MODEL 8
REMARK VINA RESULT:      -6.1      1.619      3.213
REMARK  Name = 
REMARK  13 active torsions:
REMARK  status: ('A' for Active; 'I' for Inactive)
REMARK    1  A    between atoms: C_1  and  O_2
REMARK    2  A    between atoms: O_2  and  C_3
REMARK    3  A    between atoms: C_6  and  C_7
REMARK    4  A    between atoms: C_7  and  O_8
REMARK    5  A    between atoms: O_8  and  C_9
REMARK    6  A    between atoms: C_9  and  C_10
REMARK    7  A    between atoms: C_10  and  C_11
REMARK    8  A    between atoms: C_10  and  O_17
REMARK    9  A    between atoms: C_11  and  N_12
REMARK   10  A    between atoms: O_17  and  C_18
REMARK   11  A    between atoms: C_18  and  C_19
REMARK   12  A    between atoms: C_22  and  S_23
REMARK   13  A    between atoms: S_23  and  C_24
REMARK                            x       y       z     vdW  Elec       q    Type
REMARK                         _______ _______ _______ _____ _____    ______ ____
ROOT
ATOM      1  C   UNL     1       4.523   4.563  18.933  0.00  0.00    +0.000 C 
ENDROOT
BRANCH   1   2
ATOM      2  C   UNL     1       5.501   5.594  19.525  0.00  0.00    +0.000 C 
BRANCH   2   3
ATOM      3  O   UNL     1       6.863   5.291  19.233  0.00  0.00    +0.000 OA
BRANCH   3   4
ATOM      4  C   UNL     1       7.359   5.997  18.096  0.00  0.00    +0.000 C 
BRANCH   4   8
ATOM      5  C   UNL     1       5.749   4.471  14.402  0.00  0.00    +0.000 A 
ATOM      6  C   UNL     1       5.374   5.735  14.851  0.00  0.00    +0.000 A 
ATOM      7  C   UNL     1       5.879   6.237  16.051  0.00  0.00    +0.000 A 
ATOM      8  C   UNL     1       6.746   5.463  16.832  0.00  0.00    +0.000 A 
ATOM      9  C   UNL     1       7.109   4.187  16.380  0.00  0.00    +0.000 A 
ATOM     10  C   UNL     1       6.608   3.688  15.175  0.00  0.00    +0.000 A 
BRANCH   5  12
ATOM     11  C   UNL     1       6.043   3.351  12.347  0.00  0.00    +0.000 C 
ATOM     12  O   UNL     1       5.190   4.087  13.214  0.00  0.00    +0.000 OA
ENDBRANCH   5  12
ENDBRANCH   4   8
ENDBRANCH   3   4
ENDBRANCH   2   3
ENDBRANCH   1   2
BRANCH   1  13
ATOM     13  C   UNL     1       4.393   3.313  19.823  0.00  0.00    +0.000 C 
BRANCH  13  14
ATOM     14  N   UNL     1       3.030   2.973  20.184  0.00  0.00    +0.000 N 
ATOM     15  C   UNL     1       2.083   2.421  19.368  0.00  0.00    +0.000 A 
ATOM     16  C   UNL     1       0.955   2.330  20.151  0.00  0.00    +0.000 A 
ATOM     17  N   UNL     1       1.189   2.829  21.406  0.00  0.00    +0.000 NA
ATOM     18  C   UNL     1       2.445   3.216  21.394  0.00  0.00    +0.000 A 
ENDBRANCH  13  14
ENDBRANCH   1  13
BRANCH   1  19
ATOM     19  O   UNL     1       3.226   5.115  18.682  0.00  0.00    +0.000 OA
BRANCH  19  20
ATOM     20  C   UNL     1       3.256   6.346  17.955  0.00  0.00    +0.000 C 
BRANCH  20  21
ATOM     21  C   UNL     1       2.431   7.388  18.659  0.00  0.00    +0.000 A 
ATOM     22  C   UNL     1       2.144   7.285  20.024  0.00  0.00    +0.000 A 
ATOM     23  C   UNL     1       1.381   8.263  20.664  0.00  0.00    +0.000 A 
ATOM     24  C   UNL     1       0.910   9.378  19.961  0.00  0.00    +0.000 A 
ATOM     25  C   UNL     1       1.229   9.502  18.606  0.00  0.00    +0.000 A 
ATOM     26  C   UNL     1       1.991   8.520  17.962  0.00  0.00    +0.000 A 
BRANCH  24  27
ATOM     27  S   UNL     1      -0.136  10.523  20.847  0.00  0.00    +0.000 S 
ATOM     28  C   UNL     1      -0.856  11.509  19.510  0.00  0.00    +0.000 C 
ENDBRANCH  24  27
ENDBRANCH  20  21
ENDBRANCH  19  20
ENDBRANCH   1  19
TORSDOF 11
ENDMDL
MODEL 9
REMARK VINA RESULT:      -6.1      3.720      6.707
REMARK  Name = 
REMARK  13 active torsions:
REMARK  status: ('A' for Active; 'I' for Inactive)
REMARK    1  A    between atoms: C_1  and  O_2
REMARK    2  A    between atoms: O_2  and  C_3
REMARK    3  A    between atoms: C_6  and  C_7
REMARK    4  A    between atoms: C_7  and  O_8
REMARK    5  A    between atoms: O_8  and  C_9
REMARK    6  A    between atoms: C_9  and  C_10
REMARK    7  A    between atoms: C_10  and  C_11
REMARK    8  A    between atoms: C_10  and  O_17
REMARK    9  A    between atoms: C_11  and  N_12
REMARK   10  A    between atoms: O_17  and  C_18
REMARK   11  A    between atoms: C_18  and  C_19
REMARK   12  A    between atoms: C_22  and  S_23
REMARK   13  A    between atoms: S_23  and  C_24
REMARK                            x       y       z     vdW  Elec       q    Type
REMARK                         _______ _______ _______ _____ _____    ______ ____
ROOT
ATOM      1  C   UNL     1       0.787  10.115  19.365  0.00  0.00    +0.000 C 
ENDROOT
BRANCH   1   2
ATOM      2  C   UNL     1       1.697  10.412  18.159  0.00  0.00    +0.000 C 
BRANCH   2   3
ATOM      3  O   UNL     1       2.611   9.354  17.884  0.00  0.00    +0.000 OA
BRANCH   3   4
ATOM      4  C   UNL     1       1.970   8.087  17.743  0.00  0.00    +0.000 C 
BRANCH   4   8
ATOM      5  C   UNL     1       4.495   4.836  19.018  0.00  0.00    +0.000 A 
ATOM      6  C   UNL     1       3.350   5.152  19.748  0.00  0.00    +0.000 A 
ATOM      7  C   UNL     1       2.530   6.208  19.352  0.00  0.00    +0.000 A 
ATOM      8  C   UNL     1       2.864   6.983  18.235  0.00  0.00    +0.000 A 
ATOM      9  C   UNL     1       4.023   6.668  17.513  0.00  0.00    +0.000 A 
ATOM     10  C   UNL     1       4.841   5.605  17.906  0.00  0.00    +0.000 A 
BRANCH   5  12
ATOM     11  C   UNL     1       4.471   2.606  19.785  0.00  0.00    +0.000 C 
ATOM     12  O   UNL     1       5.219   3.782  19.502  0.00  0.00    +0.000 OA
ENDBRANCH   5  12
ENDBRANCH   4   8
ENDBRANCH   3   4
ENDBRANCH   2   3
ENDBRANCH   1   2
BRANCH   1  13
ATOM     13  C   UNL     1       0.970  11.148  20.494  0.00  0.00    +0.000 C 
BRANCH  13  14
ATOM     14  N   UNL     1       0.100  10.948  21.636  0.00  0.00    +0.000 N 
ATOM     15  C   UNL     1      -0.857  11.809  22.094  0.00  0.00    +0.000 A 
ATOM     16  C   UNL     1      -1.376  11.197  23.212  0.00  0.00    +0.000 A 
ATOM     17  N   UNL     1      -0.745  10.003  23.452  0.00  0.00    +0.000 NA
ATOM     18  C   UNL     1       0.143   9.884  22.491  0.00  0.00    +0.000 A 
ENDBRANCH  13  14
ENDBRANCH   1  13
BRANCH   1  19
ATOM     19  O   UNL     1      -0.595  10.032  19.006  0.00  0.00    +0.000 OA
BRANCH  19  20
ATOM     20  C   UNL     1      -1.072  11.174  18.289  0.00  0.00    +0.000 C 
BRANCH  20  21
ATOM     21  C   UNL     1      -2.553  11.341  18.498  0.00  0.00    +0.000 A 
ATOM     22  C   UNL     1      -3.053  12.277  19.410  0.00  0.00    +0.000 A 
ATOM     23  C   UNL     1      -4.430  12.425  19.590  0.00  0.00    +0.000 A 
ATOM     24  C   UNL     1      -5.336  11.660  18.845  0.00  0.00    +0.000 A 
ATOM     25  C   UNL     1      -4.836  10.753  17.906  0.00  0.00    +0.000 A 
ATOM     26  C   UNL     1      -3.457  10.601  17.727  0.00  0.00    +0.000 A 
BRANCH  24  27
ATOM     27  S   UNL     1      -7.071  11.855  19.217  0.00  0.00    +0.000 S 
ATOM     28  C   UNL     1      -7.396  10.455  20.318  0.00  0.00    +0.000 C 
ENDBRANCH  24  27
ENDBRANCH  20  21
ENDBRANCH  19  20
ENDBRANCH   1  19
TORSDOF 11
ENDMDL
