MODEL 1
REMARK VINA RESULT:      -8.7      0.000      0.000
REMARK  Name = 
REMARK  7 active torsions:
REMARK  status: ('A' for Active; 'I' for Inactive)
REMARK    1  A    between atoms: C_1  and  C_2
REMARK    2  A    between atoms: C_7  and  C_9
REMARK    3  A    between atoms: C_14  and  O_15
REMARK    4  A    between atoms: O_15  and  C_16
REMARK    5  A    between atoms: C_16  and  C_17
REMARK    6  A    between atoms: N_19  and  C_20
REMARK    7  A    between atoms: C_26  and  C_27
REMARK                            x       y       z     vdW  Elec       q    Type
REMARK                         _______ _______ _______ _____ _____    ______ ____
ROOT
ATOM      1  C   UNL     1       5.134   5.736  17.298  0.00  0.00    +0.000 A 
ATOM      2  C   UNL     1       4.837   4.499  16.691  0.00  0.00    +0.000 A 
ATOM      3  C   UNL     1       5.732   3.887  15.816  0.00  0.00    +0.000 A 
ATOM      4  C   UNL     1       6.947   4.491  15.549  0.00  0.00    +0.000 A 
ATOM      5  C   UNL     1       7.260   5.715  16.142  0.00  0.00    +0.000 A 
ATOM      6  C   UNL     1       6.348   6.373  16.994  0.00  0.00    +0.000 A 
ENDROOT
BRANCH   1  13
ATOM      7  C   UNL     1      -0.106  10.470  20.948  0.00  0.00    +0.000 C 
ATOM      8  C   UNL     1       0.734   9.643  20.031  0.00  0.00    +0.000 A 
ATOM      9  C   UNL     1       1.020  10.027  18.720  0.00  0.00    +0.000 A 
ATOM     10  C   UNL     1       1.847   9.224  17.925  0.00  0.00    +0.000 A 
ATOM     11  C   UNL     1       2.385   8.057  18.460  0.00  0.00    +0.000 A 
ATOM     12  N   UNL     1       3.295   7.313  17.686  0.00  0.00    +0.000 N 
ATOM     13  C   UNL     1       4.067   6.283  18.187  0.00  0.00    +0.000 C 
ATOM     14  O   UNL     1       4.011   5.816  19.321  0.00  0.00    +0.000 OA
ATOM     15  N   UNL     1       2.077   7.661  19.707  0.00  0.00    +0.000 NA
ATOM     16  C   UNL     1       1.273   8.444  20.461  0.00  0.00    +0.000 A 
ATOM     17  H   UNL     1       3.481   7.635  16.743  0.00  0.00    +0.000 HD
ENDBRANCH   1  13
BRANCH   6  18
ATOM     18  O   UNL     1       6.586   7.629  17.511  0.00  0.00    +0.000 OA
BRANCH  18  19
ATOM     19  C   UNL     1       7.959   7.899  17.798  0.00  0.00    +0.000 C 
BRANCH  19  20
ATOM     20  C   UNL     1       8.228   9.356  18.151  0.00  0.00    +0.000 C 
ATOM     21  O   UNL     1       7.570  10.248  17.623  0.00  0.00    +0.000 OA
ATOM     22  N   UNL     1       9.200   9.505  19.122  0.00  0.00    +0.000 N 
ATOM     23  H   UNL     1       9.774   8.688  19.294  0.00  0.00    +0.000 HD
BRANCH  22  24
ATOM     24  C   UNL     1       9.569  10.716  19.753  0.00  0.00    +0.000 A 
ATOM     25  C   UNL     1       9.105  11.024  21.042  0.00  0.00    +0.000 A 
ATOM     26  C   UNL     1       9.456  12.216  21.672  0.00  0.00    +0.000 A 
ATOM     27  C   UNL     1      10.287  13.113  21.019  0.00  0.00    +0.000 A 
ATOM     28  C   UNL     1      10.787  12.812  19.747  0.00  0.00    +0.000 A 
ATOM     29 CL   UNL     1      11.844  13.986  19.038  0.00  0.00    +0.000 Cl
ATOM     30  C   UNL     1      10.434  11.615  19.086  0.00  0.00    +0.000 A 
ATOM     31  C   UNL     1      10.979  11.293  17.716  0.00  0.00    +0.000 C 
ENDBRANCH  22  24
ENDBRANCH  19  20
ENDBRANCH  18  19
ENDBRANCH   6  18
TORSDOF 5
ENDMDL
MODEL 2
REMARK VINA RESULT:      -8.6      2.663      7.314
REMARK  Name = 
REMARK  7 active torsions:
REMARK  status: ('A' for Active; 'I' for Inactive)
REMARK    1  A    between atoms: C_1  and  C_2
REMARK    2  A    between atoms: C_7  and  C_9
REMARK    3  A    between atoms: C_14  and  O_15
REMARK    4  A    between atoms: O_15  and  C_16
REMARK    5  A    between atoms: C_16  and  C_17
REMARK    6  A    between atoms: N_19  and  C_20
REMARK    7  A    between atoms: C_26  and  C_27
REMARK                            x       y       z     vdW  Elec       q    Type
REMARK                         _______ _______ _______ _____ _____    ______ ____
ROOT
ATOM      1  C   UNL     1       6.736   6.042  17.184  0.00  0.00    +0.000 A 
ATOM      2  C   UNL     1       7.313   5.680  15.950  0.00  0.00    +0.000 A 
ATOM      3  C   UNL     1       6.731   4.714  15.132  0.00  0.00    +0.000 A 
ATOM      4  C   UNL     1       5.550   4.109  15.525  0.00  0.00    +0.000 A 
ATOM      5  C   UNL     1       4.964   4.455  16.742  0.00  0.00    +0.000 A 
ATOM      6  C   UNL     1       5.563   5.397  17.605  0.00  0.00    +0.000 A 
ENDROOT
BRANCH   1  13
ATOM      7  C   UNL     1      10.808  12.497  19.410  0.00  0.00    +0.000 C 
ATOM      8  C   UNL     1       9.842  11.467  18.923  0.00  0.00    +0.000 A 
ATOM      9  C   UNL     1       8.984  11.687  17.845  0.00  0.00    +0.000 A 
ATOM     10  C   UNL     1       8.130  10.664  17.414  0.00  0.00    +0.000 A 
ATOM     11  C   UNL     1       8.157   9.433  18.063  0.00  0.00    +0.000 A 
ATOM     12  N   UNL     1       7.369   8.383  17.558  0.00  0.00    +0.000 N 
ATOM     13  C   UNL     1       7.490   7.068  17.964  0.00  0.00    +0.000 C 
ATOM     14  O   UNL     1       8.214   6.647  18.861  0.00  0.00    +0.000 OA
ATOM     15  N   UNL     1       8.950   9.230  19.130  0.00  0.00    +0.000 NA
ATOM     16  C   UNL     1       9.766  10.229  19.536  0.00  0.00    +0.000 A 
ATOM     17  H   UNL     1       6.770   8.585  16.766  0.00  0.00    +0.000 HD
ENDBRANCH   1  13
BRANCH   6  18
ATOM     18  O   UNL     1       5.061   5.682  18.858  0.00  0.00    +0.000 OA
BRANCH  18  19
ATOM     19  C   UNL     1       3.998   4.826  19.278  0.00  0.00    +0.000 C 
BRANCH  19  20
ATOM     20  C   UNL     1       2.683   5.560  19.504  0.00  0.00    +0.000 C 
ATOM     21  O   UNL     1       1.631   4.932  19.573  0.00  0.00    +0.000 OA
ATOM     22  N   UNL     1       2.849   6.923  19.672  0.00  0.00    +0.000 N 
ATOM     23  H   UNL     1       3.748   7.292  19.384  0.00  0.00    +0.000 HD
BRANCH  22  24
ATOM     24  C   UNL     1       1.841   7.847  20.033  0.00  0.00    +0.000 A 
ATOM     25  C   UNL     1       1.227   7.783  21.294  0.00  0.00    +0.000 A 
ATOM     26  C   UNL     1       0.229   8.683  21.660  0.00  0.00    +0.000 A 
ATOM     27  C   UNL     1      -0.161   9.668  20.767  0.00  0.00    +0.000 A 
ATOM     28  C   UNL     1       0.459   9.770  19.516  0.00  0.00    +0.000 A 
ATOM     29 CL   UNL     1      -0.082  11.058  18.492  0.00  0.00    +0.000 Cl
ATOM     30  C   UNL     1       1.464   8.861  19.121  0.00  0.00    +0.000 A 
ATOM     31  C   UNL     1       2.133   8.977  17.773  0.00  0.00    +0.000 C 
ENDBRANCH  22  24
ENDBRANCH  19  20
ENDBRANCH  18  19
ENDBRANCH   6  18
TORSDOF 5
ENDMDL
MODEL 3
REMARK VINA RESULT:      -8.5      4.958      6.645
REMARK  Name = 
REMARK  7 active torsions:
REMARK  status: ('A' for Active; 'I' for Inactive)
REMARK    1  A    between atoms: C_1  and  C_2
REMARK    2  A    between atoms: C_7  and  C_9
REMARK    3  A    between atoms: C_14  and  O_15
REMARK    4  A    between atoms: O_15  and  C_16
REMARK    5  A    between atoms: C_16  and  C_17
REMARK    6  A    between atoms: N_19  and  C_20
REMARK    7  A    between atoms: C_26  and  C_27
REMARK                            x       y       z     vdW  Elec       q    Type
REMARK                         _______ _______ _______ _____ _____    ______ ____
ROOT
ATOM      1  C   UNL     1       3.269   5.364  19.176  0.00  0.00    +0.000 A 
ATOM      2  C   UNL     1       2.393   4.328  19.559  0.00  0.00    +0.000 A 
ATOM      3  C   UNL     1       2.818   3.003  19.617  0.00  0.00    +0.000 A 
ATOM      4  C   UNL     1       4.133   2.694  19.313  0.00  0.00    +0.000 A 
ATOM      5  C   UNL     1       5.014   3.706  18.934  0.00  0.00    +0.000 A 
ATOM      6  C   UNL     1       4.590   5.047  18.825  0.00  0.00    +0.000 A 
ENDROOT
BRANCH   1  13
ATOM      7  C   UNL     1      -1.179  11.812  20.534  0.00  0.00    +0.000 C 
ATOM      8  C   UNL     1      -0.262  10.632  20.546  0.00  0.00    +0.000 A 
ATOM      9  C   UNL     1      -0.091   9.821  21.667  0.00  0.00    +0.000 A 
ATOM     10  C   UNL     1       0.755   8.707  21.599  0.00  0.00    +0.000 A 
ATOM     11  C   UNL     1       1.405   8.417  20.403  0.00  0.00    +0.000 A 
ATOM     12  N   UNL     1       2.171   7.239  20.316  0.00  0.00    +0.000 N 
ATOM     13  C   UNL     1       2.662   6.727  19.131  0.00  0.00    +0.000 C 
ATOM     14  O   UNL     1       2.584   7.252  18.024  0.00  0.00    +0.000 OA
ATOM     15  N   UNL     1       1.278   9.220  19.332  0.00  0.00    +0.000 NA
ATOM     16  C   UNL     1       0.461  10.294  19.416  0.00  0.00    +0.000 A 
ATOM     17  H   UNL     1       2.258   6.674  21.153  0.00  0.00    +0.000 HD
ENDBRANCH   1  13
BRANCH   6  18
ATOM     18  O   UNL     1       5.411   6.051  18.354  0.00  0.00    +0.000 OA
BRANCH  18  19
ATOM     19  C   UNL     1       6.804   5.736  18.380  0.00  0.00    +0.000 C 
BRANCH  19  20
ATOM     20  C   UNL     1       7.306   5.109  17.087  0.00  0.00    +0.000 C 
ATOM     21  O   UNL     1       8.105   4.177  17.124  0.00  0.00    +0.000 OA
ATOM     22  N   UNL     1       6.726   5.661  15.959  0.00  0.00    +0.000 N 
ATOM     23  H   UNL     1       6.251   6.545  16.101  0.00  0.00    +0.000 HD
BRANCH  22  24
ATOM     24  C   UNL     1       6.884   5.201  14.631  0.00  0.00    +0.000 A 
ATOM     25  C   UNL     1       7.897   5.718  13.808  0.00  0.00    +0.000 A 
ATOM     26  C   UNL     1       8.060   5.278  12.496  0.00  0.00    +0.000 A 
ATOM     27  C   UNL     1       7.211   4.304  11.994  0.00  0.00    +0.000 A 
ATOM     28  C   UNL     1       6.215   3.752  12.806  0.00  0.00    +0.000 A 
ATOM     29 CL   UNL     1       5.234   2.517  12.090  0.00  0.00    +0.000 Cl
ATOM     30  C   UNL     1       6.025   4.192  14.134  0.00  0.00    +0.000 A 
ATOM     31  C   UNL     1       4.952   3.590  15.009  0.00  0.00    +0.000 C 
ENDBRANCH  22  24
ENDBRANCH  19  20
ENDBRANCH  18  19
ENDBRANCH   6  18
TORSDOF 5
ENDMDL
MODEL 4
REMARK VINA RESULT:      -8.4      5.411      8.152
REMARK  Name = 
REMARK  7 active torsions:
REMARK  status: ('A' for Active; 'I' for Inactive)
REMARK    1  A    between atoms: C_1  and  C_2
REMARK    2  A    between atoms: C_7  and  C_9
REMARK    3  A    between atoms: C_14  and  O_15
REMARK    4  A    between atoms: O_15  and  C_16
REMARK    5  A    between atoms: C_16  and  C_17
REMARK    6  A    between atoms: N_19  and  C_20
REMARK    7  A    between atoms: C_26  and  C_27
REMARK                            x       y       z     vdW  Elec       q    Type
REMARK                         _______ _______ _______ _____ _____    ______ ____
ROOT
ATOM      1  C   UNL     1       3.075   3.648  19.023  0.00  0.00    +0.000 A 
ATOM      2  C   UNL     1       3.468   2.620  19.904  0.00  0.00    +0.000 A 
ATOM      3  C   UNL     1       2.974   2.553  21.205  0.00  0.00    +0.000 A 
ATOM      4  C   UNL     1       2.064   3.500  21.640  0.00  0.00    +0.000 A 
ATOM      5  C   UNL     1       1.663   4.523  20.781  0.00  0.00    +0.000 A 
ATOM      6  C   UNL     1       2.187   4.635  19.476  0.00  0.00    +0.000 A 
ENDROOT
BRANCH   1  13
ATOM      7  C   UNL     1       7.638   5.047  12.665  0.00  0.00    +0.000 C 
ATOM      8  C   UNL     1       7.023   4.728  13.988  0.00  0.00    +0.000 A 
ATOM      9  C   UNL     1       7.635   5.049  15.200  0.00  0.00    +0.000 A 
ATOM     10  C   UNL     1       6.986   4.756  16.406  0.00  0.00    +0.000 A 
ATOM     11  C   UNL     1       5.729   4.160  16.378  0.00  0.00    +0.000 A 
ATOM     12  N   UNL     1       5.043   3.964  17.592  0.00  0.00    +0.000 N 
ATOM     13  C   UNL     1       3.711   3.607  17.673  0.00  0.00    +0.000 C 
ATOM     14  O   UNL     1       2.974   3.326  16.732  0.00  0.00    +0.000 OA
ATOM     15  N   UNL     1       5.154   3.809  15.214  0.00  0.00    +0.000 NA
ATOM     16  C   UNL     1       5.796   4.094  14.058  0.00  0.00    +0.000 A 
ATOM     17  H   UNL     1       5.522   4.222  18.447  0.00  0.00    +0.000 HD
ENDBRANCH   1  13
BRANCH   6  18
ATOM     18  O   UNL     1       1.888   5.693  18.643  0.00  0.00    +0.000 OA
BRANCH  18  19
ATOM     19  C   UNL     1       2.873   6.727  18.623  0.00  0.00    +0.000 C 
BRANCH  19  20
ATOM     20  C   UNL     1       2.279   8.128  18.594  0.00  0.00    +0.000 C 
ATOM     21  O   UNL     1       2.513   8.877  17.649  0.00  0.00    +0.000 OA
ATOM     22  N   UNL     1       1.450   8.385  19.671  0.00  0.00    +0.000 N 
ATOM     23  H   UNL     1       1.533   7.739  20.448  0.00  0.00    +0.000 HD
BRANCH  22  24
ATOM     24  C   UNL     1       0.650   9.537  19.852  0.00  0.00    +0.000 A 
ATOM     25  C   UNL     1       0.150  10.243  18.746  0.00  0.00    +0.000 A 
ATOM     26  C   UNL     1      -0.635  11.383  18.909  0.00  0.00    +0.000 A 
ATOM     27  C   UNL     1      -0.935  11.826  20.188  0.00  0.00    +0.000 A 
ATOM     28  C   UNL     1      -0.472  11.120  21.304  0.00  0.00    +0.000 A 
ATOM     29 CL   UNL     1      -0.935  11.741  22.853  0.00  0.00    +0.000 Cl
ATOM     30  C   UNL     1       0.334   9.970  21.160  0.00  0.00    +0.000 A 
ATOM     31  C   UNL     1       0.827   9.208  22.367  0.00  0.00    +0.000 C 
ENDBRANCH  22  24
ENDBRANCH  19  20
ENDBRANCH  18  19
ENDBRANCH   6  18
TORSDOF 5
ENDMDL
MODEL 5
REMARK VINA RESULT:      -8.3      5.269      8.247
REMARK  Name = 
REMARK  7 active torsions:
REMARK  status: ('A' for Active; 'I' for Inactive)
REMARK    1  A    between atoms: C_1  and  C_2
REMARK    2  A    between atoms: C_7  and  C_9
REMARK    3  A    between atoms: C_14  and  O_15
REMARK    4  A    between atoms: O_15  and  C_16
REMARK    5  A    between atoms: C_16  and  C_17
REMARK    6  A    between atoms: N_19  and  C_20
REMARK    7  A    between atoms: C_26  and  C_27
REMARK                            x       y       z     vdW  Elec       q    Type
REMARK                         _______ _______ _______ _____ _____    ______ ____
ROOT
ATOM      1  C   UNL     1       2.971   3.838  19.010  0.00  0.00    +0.000 A 
ATOM      2  C   UNL     1       2.960   2.649  19.769  0.00  0.00    +0.000 A 
ATOM      3  C   UNL     1       2.387   2.605  21.038  0.00  0.00    +0.000 A 
ATOM      4  C   UNL     1       1.797   3.742  21.561  0.00  0.00    +0.000 A 
ATOM      5  C   UNL     1       1.797   4.926  20.824  0.00  0.00    +0.000 A 
ATOM      6  C   UNL     1       2.413   5.004  19.557  0.00  0.00    +0.000 A 
ENDROOT
BRANCH   1  13
ATOM      7  C   UNL     1       7.651   5.038  12.697  0.00  0.00    +0.000 C 
ATOM      8  C   UNL     1       7.013   4.777  14.022  0.00  0.00    +0.000 A 
ATOM      9  C   UNL     1       7.573   5.202  15.226  0.00  0.00    +0.000 A 
ATOM     10  C   UNL     1       6.903   4.957  16.431  0.00  0.00    +0.000 A 
ATOM     11  C   UNL     1       5.676   4.302  16.409  0.00  0.00    +0.000 A 
ATOM     12  N   UNL     1       4.964   4.153  17.614  0.00  0.00    +0.000 N 
ATOM     13  C   UNL     1       3.648   3.740  17.683  0.00  0.00    +0.000 C 
ATOM     14  O   UNL     1       2.952   3.365  16.743  0.00  0.00    +0.000 OA
ATOM     15  N   UNL     1       5.152   3.852  15.255  0.00  0.00    +0.000 NA
ATOM     16  C   UNL     1       5.813   4.091  14.100  0.00  0.00    +0.000 A 
ATOM     17  H   UNL     1       5.405   4.487  18.462  0.00  0.00    +0.000 HD
ENDBRANCH   1  13
BRANCH   6  18
ATOM     18  O   UNL     1       2.519   6.184  18.852  0.00  0.00    +0.000 OA
BRANCH  18  19
ATOM     19  C   UNL     1       2.353   7.362  19.643  0.00  0.00    +0.000 C 
BRANCH  19  20
ATOM     20  C   UNL     1       1.793   8.542  18.861  0.00  0.00    +0.000 C 
ATOM     21  O   UNL     1       2.223   8.797  17.740  0.00  0.00    +0.000 OA
ATOM     22  N   UNL     1       0.766   9.189  19.524  0.00  0.00    +0.000 N 
ATOM     23  H   UNL     1       0.681   8.976  20.511  0.00  0.00    +0.000 HD
BRANCH  22  24
ATOM     24  C   UNL     1      -0.041  10.226  19.000  0.00  0.00    +0.000 A 
ATOM     25  C   UNL     1      -1.073   9.942  18.091  0.00  0.00    +0.000 A 
ATOM     26  C   UNL     1      -1.871  10.955  17.562  0.00  0.00    +0.000 A 
ATOM     27  C   UNL     1      -1.650  12.268  17.948  0.00  0.00    +0.000 A 
ATOM     28  C   UNL     1      -0.647  12.570  18.876  0.00  0.00    +0.000 A 
ATOM     29 CL   UNL     1      -0.479  14.237  19.312  0.00  0.00    +0.000 Cl
ATOM     30  C   UNL     1       0.180  11.560  19.414  0.00  0.00    +0.000 A 
ATOM     31  C   UNL     1       1.258  11.890  20.419  0.00  0.00    +0.000 C 
ENDBRANCH  22  24
ENDBRANCH  19  20
ENDBRANCH  18  19
ENDBRANCH   6  18
TORSDOF 5
ENDMDL
MODEL 6
REMARK VINA RESULT:      -8.2      1.243      1.373
REMARK  Name = 
REMARK  7 active torsions:
REMARK  status: ('A' for Active; 'I' for Inactive)
REMARK    1  A    between atoms: C_1  and  C_2
REMARK    2  A    between atoms: C_7  and  C_9
REMARK    3  A    between atoms: C_14  and  O_15
REMARK    4  A    between atoms: O_15  and  C_16
REMARK    5  A    between atoms: C_16  and  C_17
REMARK    6  A    between atoms: N_19  and  C_20
REMARK    7  A    between atoms: C_26  and  C_27
REMARK                            x       y       z     vdW  Elec       q    Type
REMARK                         _______ _______ _______ _____ _____    ______ ____
ROOT
ATOM      1  C   UNL     1       4.930   5.565  17.470  0.00  0.00    +0.000 A 
ATOM      2  C   UNL     1       4.567   4.355  16.844  0.00  0.00    +0.000 A 
ATOM      3  C   UNL     1       5.406   3.736  15.921  0.00  0.00    +0.000 A 
ATOM      4  C   UNL     1       6.632   4.304  15.624  0.00  0.00    +0.000 A 
ATOM      5  C   UNL     1       7.010   5.500  16.236  0.00  0.00    +0.000 A 
ATOM      6  C   UNL     1       6.154   6.167  17.137  0.00  0.00    +0.000 A 
ENDROOT
BRANCH   1  13
ATOM      7  C   UNL     1      -0.084  10.357  21.356  0.00  0.00    +0.000 C 
ATOM      8  C   UNL     1       0.701   9.518  20.402  0.00  0.00    +0.000 A 
ATOM      9  C   UNL     1       0.914   9.885  19.073  0.00  0.00    +0.000 A 
ATOM     10  C   UNL     1       1.693   9.071  18.241  0.00  0.00    +0.000 A 
ATOM     11  C   UNL     1       2.257   7.908  18.758  0.00  0.00    +0.000 A 
ATOM     12  N   UNL     1       3.120   7.152  17.943  0.00  0.00    +0.000 N 
ATOM     13  C   UNL     1       3.916   6.125  18.411  0.00  0.00    +0.000 C 
ATOM     14  O   UNL     1       3.922   5.672  19.552  0.00  0.00    +0.000 OA
ATOM     15  N   UNL     1       2.019   7.527  20.026  0.00  0.00    +0.000 NA
ATOM     16  C   UNL     1       1.261   8.322  20.815  0.00  0.00    +0.000 A 
ATOM     17  H   UNL     1       3.254   7.463  16.988  0.00  0.00    +0.000 HD
ENDBRANCH   1  13
BRANCH   6  18
ATOM     18  O   UNL     1       6.456   7.400  17.676  0.00  0.00    +0.000 OA
BRANCH  18  19
ATOM     19  C   UNL     1       7.646   7.996  17.158  0.00  0.00    +0.000 C 
BRANCH  19  20
ATOM     20  C   UNL     1       8.377   8.867  18.171  0.00  0.00    +0.000 C 
ATOM     21  O   UNL     1       8.883   8.359  19.168  0.00  0.00    +0.000 OA
ATOM     22  N   UNL     1       8.434  10.197  17.796  0.00  0.00    +0.000 N 
ATOM     23  H   UNL     1       7.796  10.470  17.058  0.00  0.00    +0.000 HD
BRANCH  22  24
ATOM     24  C   UNL     1       9.159  11.217  18.455  0.00  0.00    +0.000 A 
ATOM     25  C   UNL     1      10.194  10.900  19.349  0.00  0.00    +0.000 A 
ATOM     26  C   UNL     1      10.912  11.895  20.009  0.00  0.00    +0.000 A 
ATOM     27  C   UNL     1      10.605  13.226  19.773  0.00  0.00    +0.000 A 
ATOM     28  C   UNL     1       9.598  13.566  18.863  0.00  0.00    +0.000 A 
ATOM     29 CL   UNL     1       9.321  15.258  18.618  0.00  0.00    +0.000 Cl
ATOM     30  C   UNL     1       8.851  12.573  18.192  0.00  0.00    +0.000 A 
ATOM     31  C   UNL     1       7.769  12.944  17.208  0.00  0.00    +0.000 C 
ENDBRANCH  22  24
ENDBRANCH  19  20
ENDBRANCH  18  19
ENDBRANCH   6  18
TORSDOF 5
ENDMDL
MODEL 7
REMARK VINA RESULT:      -8.2      5.289      7.902
REMARK  Name = 
REMARK  7 active torsions:
REMARK  status: ('A' for Active; 'I' for Inactive)
REMARK    1  A    between atoms: C_1  and  C_2
REMARK    2  A    between atoms: C_7  and  C_9
REMARK    3  A    between atoms: C_14  and  O_15
REMARK    4  A    between atoms: O_15  and  C_16
REMARK    5  A    between atoms: C_16  and  C_17
REMARK    6  A    between atoms: N_19  and  C_20
REMARK    7  A    between atoms: C_26  and  C_27
REMARK                            x       y       z     vdW  Elec       q    Type
REMARK                         _______ _______ _______ _____ _____    ______ ____
ROOT
ATOM      1  C   UNL     1       2.674   3.763  18.716  0.00  0.00    +0.000 A 
ATOM      2  C   UNL     1       2.134   2.535  19.151  0.00  0.00    +0.000 A 
ATOM      3  C   UNL     1       1.447   2.433  20.358  0.00  0.00    +0.000 A 
ATOM      4  C   UNL     1       1.268   3.560  21.140  0.00  0.00    +0.000 A 
ATOM      5  C   UNL     1       1.793   4.783  20.725  0.00  0.00    +0.000 A 
ATOM      6  C   UNL     1       2.533   4.899  19.529  0.00  0.00    +0.000 A 
ENDROOT
BRANCH   1  13
ATOM      7  C   UNL     1       7.726   5.091  12.724  0.00  0.00    +0.000 C 
ATOM      8  C   UNL     1       7.008   4.783  13.997  0.00  0.00    +0.000 A 
ATOM      9  C   UNL     1       7.530   5.096  15.252  0.00  0.00    +0.000 A 
ATOM     10  C   UNL     1       6.787   4.814  16.405  0.00  0.00    +0.000 A 
ATOM     11  C   UNL     1       5.528   4.235  16.281  0.00  0.00    +0.000 A 
ATOM     12  N   UNL     1       4.749   4.050  17.439  0.00  0.00    +0.000 N 
ATOM     13  C   UNL     1       3.410   3.711  17.418  0.00  0.00    +0.000 C 
ATOM     14  O   UNL     1       2.743   3.439  16.424  0.00  0.00    +0.000 OA
ATOM     15  N   UNL     1       5.039   3.891  15.076  0.00  0.00    +0.000 NA
ATOM     16  C   UNL     1       5.770   4.165  13.973  0.00  0.00    +0.000 A 
ATOM     17  H   UNL     1       5.164   4.303  18.328  0.00  0.00    +0.000 HD
ENDBRANCH   1  13
BRANCH   6  18
ATOM     18  O   UNL     1       3.150   6.071  19.146  0.00  0.00    +0.000 OA
BRANCH  18  19
ATOM     19  C   UNL     1       2.363   6.901  18.290  0.00  0.00    +0.000 C 
BRANCH  19  20
ATOM     20  C   UNL     1       1.960   8.221  18.932  0.00  0.00    +0.000 C 
ATOM     21  O   UNL     1       1.971   8.340  20.154  0.00  0.00    +0.000 OA
ATOM     22  N   UNL     1       1.668   9.204  18.004  0.00  0.00    +0.000 N 
ATOM     23  H   UNL     1       1.513   8.878  17.057  0.00  0.00    +0.000 HD
BRANCH  22  24
ATOM     24  C   UNL     1       1.399  10.564  18.288  0.00  0.00    +0.000 A 
ATOM     25  C   UNL     1       2.401  11.537  18.150  0.00  0.00    +0.000 A 
ATOM     26  C   UNL     1       2.151  12.879  18.432  0.00  0.00    +0.000 A 
ATOM     27  C   UNL     1       0.886  13.263  18.847  0.00  0.00    +0.000 A 
ATOM     28  C   UNL     1      -0.136  12.315  18.961  0.00  0.00    +0.000 A 
ATOM     29 CL   UNL     1      -1.687  12.909  19.454  0.00  0.00    +0.000 Cl
ATOM     30  C   UNL     1       0.099  10.949  18.692  0.00  0.00    +0.000 A 
ATOM     31  C   UNL     1      -1.008   9.929  18.811  0.00  0.00    +0.000 C 
ENDBRANCH  22  24
ENDBRANCH  19  20
ENDBRANCH  18  19
ENDBRANCH   6  18
TORSDOF 5
ENDMDL
MODEL 8
REMARK VINA RESULT:      -8.1      5.643      8.346
REMARK  Name = 
REMARK  7 active torsions:
REMARK  status: ('A' for Active; 'I' for Inactive)
REMARK    1  A    between atoms: C_1  and  C_2
REMARK    2  A    between atoms: C_7  and  C_9
REMARK    3  A    between atoms: C_14  and  O_15
REMARK    4  A    between atoms: O_15  and  C_16
REMARK    5  A    between atoms: C_16  and  C_17
REMARK    6  A    between atoms: N_19  and  C_20
REMARK    7  A    between atoms: C_26  and  C_27
REMARK                            x       y       z     vdW  Elec       q    Type
REMARK                         _______ _______ _______ _____ _____    ______ ____
ROOT
ATOM      1  C   UNL     1       3.061   3.678  19.118  0.00  0.00    +0.000 A 
ATOM      2  C   UNL     1       3.341   2.555  19.923  0.00  0.00    +0.000 A 
ATOM      3  C   UNL     1       2.854   2.456  21.225  0.00  0.00    +0.000 A 
ATOM      4  C   UNL     1       2.061   3.468  21.735  0.00  0.00    +0.000 A 
ATOM      5  C   UNL     1       1.772   4.586  20.953  0.00  0.00    +0.000 A 
ATOM      6  C   UNL     1       2.294   4.726  19.649  0.00  0.00    +0.000 A 
ENDROOT
BRANCH   1  13
ATOM      7  C   UNL     1       7.598   5.097  12.746  0.00  0.00    +0.000 C 
ATOM      8  C   UNL     1       6.987   4.759  14.067  0.00  0.00    +0.000 A 
ATOM      9  C   UNL     1       7.628   5.008  15.280  0.00  0.00    +0.000 A 
ATOM     10  C   UNL     1       6.983   4.702  16.485  0.00  0.00    +0.000 A 
ATOM     11  C   UNL     1       5.700   4.164  16.454  0.00  0.00    +0.000 A 
ATOM     12  N   UNL     1       5.022   3.956  17.670  0.00  0.00    +0.000 N 
ATOM     13  C   UNL     1       3.677   3.656  17.758  0.00  0.00    +0.000 C 
ATOM     14  O   UNL     1       2.915   3.442  16.819  0.00  0.00    +0.000 OA
ATOM     15  N   UNL     1       5.095   3.882  15.286  0.00  0.00    +0.000 NA
ATOM     16  C   UNL     1       5.733   4.178  14.132  0.00  0.00    +0.000 A 
ATOM     17  H   UNL     1       5.523   4.161  18.526  0.00  0.00    +0.000 HD
ENDBRANCH   1  13
BRANCH   6  18
ATOM     18  O   UNL     1       2.110   5.864  18.893  0.00  0.00    +0.000 OA
BRANCH  18  19
ATOM     19  C   UNL     1       2.660   7.051  19.466  0.00  0.00    +0.000 C 
BRANCH  19  20
ATOM     20  C   UNL     1       1.610   7.975  20.067  0.00  0.00    +0.000 C 
ATOM     21  O   UNL     1       1.133   7.729  21.172  0.00  0.00    +0.000 OA
ATOM     22  N   UNL     1       1.345   9.077  19.275  0.00  0.00    +0.000 N 
ATOM     23  H   UNL     1       1.671   9.015  18.318  0.00  0.00    +0.000 HD
BRANCH  22  24
ATOM     24  C   UNL     1       0.526  10.177  19.624  0.00  0.00    +0.000 A 
ATOM     25  C   UNL     1       0.862  11.007  20.705  0.00  0.00    +0.000 A 
ATOM     26  C   UNL     1       0.062  12.090  21.063  0.00  0.00    +0.000 A 
ATOM     27  C   UNL     1      -1.085  12.359  20.333  0.00  0.00    +0.000 A 
ATOM     28  C   UNL     1      -1.423  11.564  19.233  0.00  0.00    +0.000 A 
ATOM     29 CL   UNL     1      -2.857  12.010  18.371  0.00  0.00    +0.000 Cl
ATOM     30  C   UNL     1      -0.632  10.455  18.861  0.00  0.00    +0.000 A 
ATOM     31  C   UNL     1      -0.997   9.602  17.670  0.00  0.00    +0.000 C 
ENDBRANCH  22  24
ENDBRANCH  19  20
ENDBRANCH  18  19
ENDBRANCH   6  18
TORSDOF 5
ENDMDL
MODEL 9
REMARK VINA RESULT:      -8.1      5.004      7.770
REMARK  Name = 
REMARK  7 active torsions:
REMARK  status: ('A' for Active; 'I' for Inactive)
REMARK    1  A    between atoms: C_1  and  C_2
REMARK    2  A    between atoms: C_7  and  C_9
REMARK    3  A    between atoms: C_14  and  O_15
REMARK    4  A    between atoms: O_15  and  C_16
REMARK    5  A    between atoms: C_16  and  C_17
REMARK    6  A    between atoms: N_19  and  C_20
REMARK    7  A    between atoms: C_26  and  C_27
REMARK                            x       y       z     vdW  Elec       q    Type
REMARK                         _______ _______ _______ _____ _____    ______ ____
ROOT
ATOM      1  C   UNL     1       2.845   3.709  19.024  0.00  0.00    +0.000 A 
ATOM      2  C   UNL     1       2.293   2.475  19.426  0.00  0.00    +0.000 A 
ATOM      3  C   UNL     1       1.653   2.334  20.655  0.00  0.00    +0.000 A 
ATOM      4  C   UNL     1       1.537   3.428  21.495  0.00  0.00    +0.000 A 
ATOM      5  C   UNL     1       2.076   4.656  21.113  0.00  0.00    +0.000 A 
ATOM      6  C   UNL     1       2.768   4.808  19.893  0.00  0.00    +0.000 A 
ENDROOT
BRANCH   1  13
ATOM      7  C   UNL     1       7.713   5.150  12.906  0.00  0.00    +0.000 C 
ATOM      8  C   UNL     1       7.032   4.801  14.189  0.00  0.00    +0.000 A 
ATOM      9  C   UNL     1       7.618   5.015  15.436  0.00  0.00    +0.000 A 
ATOM     10  C   UNL     1       6.909   4.701  16.602  0.00  0.00    +0.000 A 
ATOM     11  C   UNL     1       5.619   4.189  16.500  0.00  0.00    +0.000 A 
ATOM     12  N   UNL     1       4.879   3.973  17.678  0.00  0.00    +0.000 N 
ATOM     13  C   UNL     1       3.526   3.699  17.695  0.00  0.00    +0.000 C 
ATOM     14  O   UNL     1       2.807   3.517  16.716  0.00  0.00    +0.000 OA
ATOM     15  N   UNL     1       5.066   3.940  15.299  0.00  0.00    +0.000 NA
ATOM     16  C   UNL     1       5.765   4.245  14.183  0.00  0.00    +0.000 A 
ATOM     17  H   UNL     1       5.342   4.153  18.561  0.00  0.00    +0.000 HD
ENDBRANCH   1  13
BRANCH   6  18
ATOM     18  O   UNL     1       3.399   5.982  19.537  0.00  0.00    +0.000 OA
BRANCH  18  19
ATOM     19  C   UNL     1       2.616   6.847  18.713  0.00  0.00    +0.000 C 
BRANCH  19  20
ATOM     20  C   UNL     1       1.913   7.950  19.492  0.00  0.00    +0.000 C 
ATOM     21  O   UNL     1       1.960   7.964  20.719  0.00  0.00    +0.000 OA
ATOM     22  N   UNL     1       1.316   8.892  18.674  0.00  0.00    +0.000 N 
ATOM     23  H   UNL     1       1.201   8.618  17.705  0.00  0.00    +0.000 HD
BRANCH  22  24
ATOM     24  C   UNL     1       0.711  10.099  19.096  0.00  0.00    +0.000 A 
ATOM     25  C   UNL     1      -0.437  10.081  19.905  0.00  0.00    +0.000 A 
ATOM     26  C   UNL     1      -1.047  11.262  20.323  0.00  0.00    +0.000 A 
ATOM     27  C   UNL     1      -0.506  12.480  19.941  0.00  0.00    +0.000 A 
ATOM     28  C   UNL     1       0.654  12.521  19.161  0.00  0.00    +0.000 A 
ATOM     29 CL   UNL     1       1.264  14.095  18.770  0.00  0.00    +0.000 Cl
ATOM     30  C   UNL     1       1.281  11.336  18.717  0.00  0.00    +0.000 A 
ATOM     31  C   UNL     1       2.536  11.386  17.880  0.00  0.00    +0.000 C 
ENDBRANCH  22  24
ENDBRANCH  19  20
ENDBRANCH  18  19
ENDBRANCH   6  18
TORSDOF 5
ENDMDL
