MODEL 1
REMARK VINA RESULT:      -6.0      0.000      0.000
REMARK  Name = 
REMARK  4 active torsions:
REMARK  status: ('A' for Active; 'I' for Inactive)
REMARK    1  A    between atoms: C_1  and  N_2
REMARK    2  A    between atoms: N_6  and  C_7
REMARK    3  A    between atoms: N_11  and  C_12
REMARK    4  A    between atoms: N_16  and  C_17
REMARK                            x       y       z     vdW  Elec       q    Type
REMARK                         _______ _______ _______ _____ _____    ______ ____
ROOT
ATOM      1  C   UNL     1      -7.183  12.873  24.245  0.00  0.00    +0.000 C 
ATOM      2  N   UNL     1      -6.276  12.746  23.111  0.00  0.00    +0.000 NA
ATOM      3  C   UNL     1      -6.954  12.991  21.825  0.00  0.00    +0.000 C 
ATOM      4  C   UNL     1      -6.659  11.833  20.867  0.00  0.00    +0.000 C 
ATOM      5  C   UNL     1      -7.310  12.031  19.493  0.00  0.00    +0.000 C 
ATOM      6  N   UNL     1      -6.941  11.062  18.446  0.00  0.00    +0.000 NA
ATOM      7  C   UNL     1      -6.819   9.689  18.936  0.00  0.00    +0.000 C 
ATOM      8  C   UNL     1      -5.820  11.487  17.587  0.00  0.00    +0.000 C 
ATOM      9  C   UNL     1      -4.429  11.113  18.102  0.00  0.00    +0.000 C 
ATOM     10  C   UNL     1      -3.282  11.568  17.197  0.00  0.00    +0.000 C 
ATOM     11  N   UNL     1      -1.930  11.206  17.663  0.00  0.00    +0.000 NA
ATOM     12  C   UNL     1      -1.825   9.816  18.116  0.00  0.00    +0.000 C 
ATOM     13  C   UNL     1      -1.325  12.175  18.596  0.00  0.00    +0.000 C 
ATOM     14  C   UNL     1      -1.584  11.904  20.081  0.00  0.00    +0.000 C 
ATOM     15  C   UNL     1      -1.038  12.984  21.018  0.00  0.00    +0.000 C 
ATOM     16  N   UNL     1      -1.327  12.782  22.449  0.00  0.00    +0.000 NA
ATOM     17  C   UNL     1      -1.264  11.383  22.874  0.00  0.00    +0.000 C 
ATOM     18  C   UNL     1      -2.522  13.484  22.946  0.00  0.00    +0.000 C 
ATOM     19  C   UNL     1      -3.857  12.765  22.737  0.00  0.00    +0.000 C 
ATOM     20  C   UNL     1      -5.053  13.548  23.286  0.00  0.00    +0.000 C 
ENDROOT
TORSDOF 0
ENDMDL
MODEL 2
REMARK VINA RESULT:      -5.9      1.798      5.348
REMARK  Name = 
REMARK  4 active torsions:
REMARK  status: ('A' for Active; 'I' for Inactive)
REMARK    1  A    between atoms: C_1  and  N_2
REMARK    2  A    between atoms: N_6  and  C_7
REMARK    3  A    between atoms: N_11  and  C_12
REMARK    4  A    between atoms: N_16  and  C_17
REMARK                            x       y       z     vdW  Elec       q    Type
REMARK                         _______ _______ _______ _____ _____    ______ ____
ROOT
ATOM      1  C   UNL     1      -3.151  10.628  15.184  0.00  0.00    +0.000 C 
ATOM      2  N   UNL     1      -2.990  10.832  16.619  0.00  0.00    +0.000 NA
ATOM      3  C   UNL     1      -4.259  10.669  17.352  0.00  0.00    +0.000 C 
ATOM      4  C   UNL     1      -4.486  11.888  18.251  0.00  0.00    +0.000 C 
ATOM      5  C   UNL     1      -5.778  11.777  19.069  0.00  0.00    +0.000 C 
ATOM      6  N   UNL     1      -5.997  12.813  20.093  0.00  0.00    +0.000 NA
ATOM      7  C   UNL     1      -5.588  14.152  19.668  0.00  0.00    +0.000 C 
ATOM      8  C   UNL     1      -5.525  12.449  21.442  0.00  0.00    +0.000 C 
ATOM      9  C   UNL     1      -4.063  12.794  21.734  0.00  0.00    +0.000 C 
ATOM     10  C   UNL     1      -3.595  12.403  23.138  0.00  0.00    +0.000 C 
ATOM     11  N   UNL     1      -2.193  12.739  23.450  0.00  0.00    +0.000 NA
ATOM     12  C   UNL     1      -1.817  14.098  23.046  0.00  0.00    +0.000 C 
ATOM     13  C   UNL     1      -1.213  11.714  23.045  0.00  0.00    +0.000 C 
ATOM     14  C   UNL     1      -0.627  11.886  21.640  0.00  0.00    +0.000 C 
ATOM     15  C   UNL     1       0.301  10.750  21.205  0.00  0.00    +0.000 C 
ATOM     16  N   UNL     1       0.830  10.858  19.834  0.00  0.00    +0.000 NA
ATOM     17  C   UNL     1       1.155  12.226  19.431  0.00  0.00    +0.000 C 
ATOM     18  C   UNL     1       0.065  10.120  18.814  0.00  0.00    +0.000 C 
ATOM     19  C   UNL     1      -1.150  10.846  18.233  0.00  0.00    +0.000 C 
ATOM     20  C   UNL     1      -1.889  10.025  17.174  0.00  0.00    +0.000 C 
ENDROOT
TORSDOF 0
ENDMDL
MODEL 3
REMARK VINA RESULT:      -5.8      1.441      6.609
REMARK  Name = 
REMARK  4 active torsions:
REMARK  status: ('A' for Active; 'I' for Inactive)
REMARK    1  A    between atoms: C_1  and  N_2
REMARK    2  A    between atoms: N_6  and  C_7
REMARK    3  A    between atoms: N_11  and  C_12
REMARK    4  A    between atoms: N_16  and  C_17
REMARK                            x       y       z     vdW  Elec       q    Type
REMARK                         _______ _______ _______ _____ _____    ______ ____
ROOT
ATOM      1  C   UNL     1      -2.288   9.912  16.604  0.00  0.00    +0.000 C 
ATOM      2  N   UNL     1      -2.649  10.672  17.794  0.00  0.00    +0.000 NA
ATOM      3  C   UNL     1      -1.505  11.420  18.348  0.00  0.00    +0.000 C 
ATOM      4  C   UNL     1      -1.374  11.115  19.843  0.00  0.00    +0.000 C 
ATOM      5  C   UNL     1      -0.218  11.881  20.496  0.00  0.00    +0.000 C 
ATOM      6  N   UNL     1      -0.119  11.794  21.963  0.00  0.00    +0.000 NA
ATOM      7  C   UNL     1      -0.422  10.464  22.493  0.00  0.00    +0.000 C 
ATOM      8  C   UNL     1      -0.791  12.888  22.688  0.00  0.00    +0.000 C 
ATOM      9  C   UNL     1      -2.269  12.647  23.002  0.00  0.00    +0.000 C 
ATOM     10  C   UNL     1      -2.946  13.798  23.751  0.00  0.00    +0.000 C 
ATOM     11  N   UNL     1      -4.368  13.584  24.080  0.00  0.00    +0.000 NA
ATOM     12  C   UNL     1      -4.641  12.257  24.640  0.00  0.00    +0.000 C 
ATOM     13  C   UNL     1      -5.309  13.976  23.013  0.00  0.00    +0.000 C 
ATOM     14  C   UNL     1      -5.681  12.865  22.026  0.00  0.00    +0.000 C 
ATOM     15  C   UNL     1      -6.569  13.328  20.870  0.00  0.00    +0.000 C 
ATOM     16  N   UNL     1      -6.891  12.294  19.869  0.00  0.00    +0.000 NA
ATOM     17  C   UNL     1      -7.114  10.966  20.442  0.00  0.00    +0.000 C 
ATOM     18  C   UNL     1      -6.009  12.275  18.690  0.00  0.00    +0.000 C 
ATOM     19  C   UNL     1      -4.702  11.495  18.844  0.00  0.00    +0.000 C 
ATOM     20  C   UNL     1      -3.842  11.510  17.578  0.00  0.00    +0.000 C 
ENDROOT
TORSDOF 0
ENDMDL
MODEL 4
REMARK VINA RESULT:      -5.7      1.234      5.109
REMARK  Name = 
REMARK  4 active torsions:
REMARK  status: ('A' for Active; 'I' for Inactive)
REMARK    1  A    between atoms: C_1  and  N_2
REMARK    2  A    between atoms: N_6  and  C_7
REMARK    3  A    between atoms: N_11  and  C_12
REMARK    4  A    between atoms: N_16  and  C_17
REMARK                            x       y       z     vdW  Elec       q    Type
REMARK                         _______ _______ _______ _____ _____    ______ ____
ROOT
ATOM      1  C   UNL     1      -2.671  10.816  15.899  0.00  0.00    +0.000 C 
ATOM      2  N   UNL     1      -3.028  11.105  17.282  0.00  0.00    +0.000 NA
ATOM      3  C   UNL     1      -4.426  10.749  17.584  0.00  0.00    +0.000 C 
ATOM      4  C   UNL     1      -5.125  11.944  18.239  0.00  0.00    +0.000 C 
ATOM      5  C   UNL     1      -6.581  11.640  18.609  0.00  0.00    +0.000 C 
ATOM      6  N   UNL     1      -7.284  12.662  19.402  0.00  0.00    +0.000 NA
ATOM      7  C   UNL     1      -6.970  14.034  19.001  0.00  0.00    +0.000 C 
ATOM      8  C   UNL     1      -7.236  12.445  20.860  0.00  0.00    +0.000 C 
ATOM      9  C   UNL     1      -6.025  13.056  21.568  0.00  0.00    +0.000 C 
ATOM     10  C   UNL     1      -5.995  12.815  23.079  0.00  0.00    +0.000 C 
ATOM     11  N   UNL     1      -4.845  13.408  23.788  0.00  0.00    +0.000 NA
ATOM     12  C   UNL     1      -4.572  14.793  23.394  0.00  0.00    +0.000 C 
ATOM     13  C   UNL     1      -3.640  12.558  23.820  0.00  0.00    +0.000 C 
ATOM     14  C   UNL     1      -2.656  12.773  22.666  0.00  0.00    +0.000 C 
ATOM     15  C   UNL     1      -1.472  11.803  22.664  0.00  0.00    +0.000 C 
ATOM     16  N   UNL     1      -0.542  11.946  21.530  0.00  0.00    +0.000 NA
ATOM     17  C   UNL     1      -0.317  13.332  21.120  0.00  0.00    +0.000 C 
ATOM     18  C   UNL     1      -0.802  11.041  20.397  0.00  0.00    +0.000 C 
ATOM     19  C   UNL     1      -1.852  11.515  19.390  0.00  0.00    +0.000 C 
ATOM     20  C   UNL     1      -2.062  10.531  18.236  0.00  0.00    +0.000 C 
ENDROOT
TORSDOF 0
ENDMDL
MODEL 5
REMARK VINA RESULT:      -5.6      1.720      5.234
REMARK  Name = 
REMARK  4 active torsions:
REMARK  status: ('A' for Active; 'I' for Inactive)
REMARK    1  A    between atoms: C_1  and  N_2
REMARK    2  A    between atoms: N_6  and  C_7
REMARK    3  A    between atoms: N_11  and  C_12
REMARK    4  A    between atoms: N_16  and  C_17
REMARK                            x       y       z     vdW  Elec       q    Type
REMARK                         _______ _______ _______ _____ _____    ______ ____
ROOT
ATOM      1  C   UNL     1      -3.076  10.377  14.889  0.00  0.00    +0.000 C 
ATOM      2  N   UNL     1      -3.139  10.691  16.312  0.00  0.00    +0.000 NA
ATOM      3  C   UNL     1      -4.481  10.458  16.877  0.00  0.00    +0.000 C 
ATOM      4  C   UNL     1      -4.937  11.707  17.636  0.00  0.00    +0.000 C 
ATOM      5  C   UNL     1      -6.317  11.529  18.278  0.00  0.00    +0.000 C 
ATOM      6  N   UNL     1      -6.767  12.606  19.177  0.00  0.00    +0.000 NA
ATOM      7  C   UNL     1      -6.417  13.947  18.706  0.00  0.00    +0.000 C 
ATOM      8  C   UNL     1      -6.463  12.380  20.602  0.00  0.00    +0.000 C 
ATOM      9  C   UNL     1      -5.092  12.881  21.061  0.00  0.00    +0.000 C 
ATOM     10  C   UNL     1      -4.797  12.632  22.542  0.00  0.00    +0.000 C 
ATOM     11  N   UNL     1      -3.487  13.120  23.014  0.00  0.00    +0.000 NA
ATOM     12  C   UNL     1      -3.175  14.477  22.558  0.00  0.00    +0.000 C 
ATOM     13  C   UNL     1      -2.376  12.167  22.828  0.00  0.00    +0.000 C 
ATOM     14  C   UNL     1      -1.613  12.300  21.507  0.00  0.00    +0.000 C 
ATOM     15  C   UNL     1      -0.540  11.231  21.294  0.00  0.00    +0.000 C 
ATOM     16  N   UNL     1       0.168  11.296  20.003  0.00  0.00    +0.000 NA
ATOM     17  C   UNL     1       0.430  12.659  19.540  0.00  0.00    +0.000 C 
ATOM     18  C   UNL     1      -0.378  10.422  18.951  0.00  0.00    +0.000 C 
ATOM     19  C   UNL     1      -1.555  10.989  18.155  0.00  0.00    +0.000 C 
ATOM     20  C   UNL     1      -2.064  10.032  17.073  0.00  0.00    +0.000 C 
ENDROOT
TORSDOF 0
ENDMDL
MODEL 6
REMARK VINA RESULT:      -5.5      1.347      5.187
REMARK  Name = 
REMARK  4 active torsions:
REMARK  status: ('A' for Active; 'I' for Inactive)
REMARK    1  A    between atoms: C_1  and  N_2
REMARK    2  A    between atoms: N_6  and  C_7
REMARK    3  A    between atoms: N_11  and  C_12
REMARK    4  A    between atoms: N_16  and  C_17
REMARK                            x       y       z     vdW  Elec       q    Type
REMARK                         _______ _______ _______ _____ _____    ______ ____
ROOT
ATOM      1  C   UNL     1      -0.711  12.419  18.324  0.00  0.00    +0.000 C 
ATOM      2  N   UNL     1      -1.849  12.342  19.230  0.00  0.00    +0.000 NA
ATOM      3  C   UNL     1      -2.858  11.366  18.779  0.00  0.00    +0.000 C 
ATOM      4  C   UNL     1      -4.237  12.032  18.760  0.00  0.00    +0.000 C 
ATOM      5  C   UNL     1      -5.346  11.067  18.325  0.00  0.00    +0.000 C 
ATOM      6  N   UNL     1      -6.729  11.561  18.444  0.00  0.00    +0.000 NA
ATOM      7  C   UNL     1      -6.883  12.967  18.071  0.00  0.00    +0.000 C 
ATOM      8  C   UNL     1      -7.398  11.206  19.709  0.00  0.00    +0.000 C 
ATOM      9  C   UNL     1      -7.188  12.197  20.856  0.00  0.00    +0.000 C 
ATOM     10  C   UNL     1      -7.888  11.806  22.159  0.00  0.00    +0.000 C 
ATOM     11  N   UNL     1      -7.715  12.754  23.276  0.00  0.00    +0.000 NA
ATOM     12  C   UNL     1      -7.908  14.154  22.885  0.00  0.00    +0.000 C 
ATOM     13  C   UNL     1      -6.501  12.532  24.084  0.00  0.00    +0.000 C 
ATOM     14  C   UNL     1      -5.260  13.307  23.629  0.00  0.00    +0.000 C 
ATOM     15  C   UNL     1      -3.991  12.974  24.416  0.00  0.00    +0.000 C 
ATOM     16  N   UNL     1      -2.768  13.657  23.959  0.00  0.00    +0.000 NA
ATOM     17  C   UNL     1      -2.987  15.038  23.528  0.00  0.00    +0.000 C 
ATOM     18  C   UNL     1      -1.938  12.883  23.020  0.00  0.00    +0.000 C 
ATOM     19  C   UNL     1      -2.343  12.962  21.547  0.00  0.00    +0.000 C 
ATOM     20  C   UNL     1      -1.432  12.142  20.629  0.00  0.00    +0.000 C 
ENDROOT
TORSDOF 0
ENDMDL
MODEL 7
REMARK VINA RESULT:      -5.5      1.131      6.649
REMARK  Name = 
REMARK  4 active torsions:
REMARK  status: ('A' for Active; 'I' for Inactive)
REMARK    1  A    between atoms: C_1  and  N_2
REMARK    2  A    between atoms: N_6  and  C_7
REMARK    3  A    between atoms: N_11  and  C_12
REMARK    4  A    between atoms: N_16  and  C_17
REMARK                            x       y       z     vdW  Elec       q    Type
REMARK                         _______ _______ _______ _____ _____    ______ ____
ROOT
ATOM      1  C   UNL     1      -2.297  10.009  16.543  0.00  0.00    +0.000 C 
ATOM      2  N   UNL     1      -2.871  10.818  17.611  0.00  0.00    +0.000 NA
ATOM      3  C   UNL     1      -1.955  11.882  18.059  0.00  0.00    +0.000 C 
ATOM      4  C   UNL     1      -1.815  11.824  19.583  0.00  0.00    +0.000 C 
ATOM      5  C   UNL     1      -0.896  12.923  20.129  0.00  0.00    +0.000 C 
ATOM      6  N   UNL     1      -0.837  13.062  21.594  0.00  0.00    +0.000 NA
ATOM      7  C   UNL     1      -0.843  11.784  22.305  0.00  0.00    +0.000 C 
ATOM      8  C   UNL     1      -1.773  14.056  22.151  0.00  0.00    +0.000 C 
ATOM      9  C   UNL     1      -3.165  13.519  22.488  0.00  0.00    +0.000 C 
ATOM     10  C   UNL     1      -4.121  14.569  23.061  0.00  0.00    +0.000 C 
ATOM     11  N   UNL     1      -5.466  14.073  23.409  0.00  0.00    +0.000 NA
ATOM     12  C   UNL     1      -5.445  12.809  24.150  0.00  0.00    +0.000 C 
ATOM     13  C   UNL     1      -6.429  14.083  22.291  0.00  0.00    +0.000 C 
ATOM     14  C   UNL     1      -6.493  12.792  21.470  0.00  0.00    +0.000 C 
ATOM     15  C   UNL     1      -7.419  12.870  20.254  0.00  0.00    +0.000 C 
ATOM     16  N   UNL     1      -7.452  11.662  19.409  0.00  0.00    +0.000 NA
ATOM     17  C   UNL     1      -7.383  10.410  20.162  0.00  0.00    +0.000 C 
ATOM     18  C   UNL     1      -6.544  11.691  18.249  0.00  0.00    +0.000 C 
ATOM     19  C   UNL     1      -5.099  11.269  18.521  0.00  0.00    +0.000 C 
ATOM     20  C   UNL     1      -4.216  11.313  17.271  0.00  0.00    +0.000 C 
ENDROOT
TORSDOF 0
ENDMDL
MODEL 8
REMARK VINA RESULT:      -5.4      1.601      5.897
REMARK  Name = 
REMARK  4 active torsions:
REMARK  status: ('A' for Active; 'I' for Inactive)
REMARK    1  A    between atoms: C_1  and  N_2
REMARK    2  A    between atoms: N_6  and  C_7
REMARK    3  A    between atoms: N_11  and  C_12
REMARK    4  A    between atoms: N_16  and  C_17
REMARK                            x       y       z     vdW  Elec       q    Type
REMARK                         _______ _______ _______ _____ _____    ______ ____
ROOT
ATOM      1  C   UNL     1       1.075  12.831  20.443  0.00  0.00    +0.000 C 
ATOM      2  N   UNL     1      -0.365  12.794  20.217  0.00  0.00    +0.000 NA
ATOM      3  C   UNL     1      -1.071  13.870  20.936  0.00  0.00    +0.000 C 
ATOM      4  C   UNL     1      -2.225  13.269  21.743  0.00  0.00    +0.000 C 
ATOM      5  C   UNL     1      -3.026  14.335  22.499  0.00  0.00    +0.000 C 
ATOM      6  N   UNL     1      -4.261  13.881  23.162  0.00  0.00    +0.000 NA
ATOM      7  C   UNL     1      -4.138  12.566  23.792  0.00  0.00    +0.000 C 
ATOM      8  C   UNL     1      -5.483  14.039  22.352  0.00  0.00    +0.000 C 
ATOM      9  C   UNL     1      -5.812  12.858  21.436  0.00  0.00    +0.000 C 
ATOM     10  C   UNL     1      -7.082  13.046  20.603  0.00  0.00    +0.000 C 
ATOM     11  N   UNL     1      -7.431  11.915  19.723  0.00  0.00    +0.000 NA
ATOM     12  C   UNL     1      -7.333  10.611  20.386  0.00  0.00    +0.000 C 
ATOM     13  C   UNL     1      -6.784  11.949  18.397  0.00  0.00    +0.000 C 
ATOM     14  C   UNL     1      -5.441  11.217  18.304  0.00  0.00    +0.000 C 
ATOM     15  C   UNL     1      -4.742  11.363  16.951  0.00  0.00    +0.000 C 
ATOM     16  N   UNL     1      -3.418  10.722  16.853  0.00  0.00    +0.000 NA
ATOM     17  C   UNL     1      -3.325   9.445  17.560  0.00  0.00    +0.000 C 
ATOM     18  C   UNL     1      -2.277  11.614  17.115  0.00  0.00    +0.000 C 
ATOM     19  C   UNL     1      -1.900  11.804  18.586  0.00  0.00    +0.000 C 
ATOM     20  C   UNL     1      -0.700  12.734  18.783  0.00  0.00    +0.000 C 
ENDROOT
TORSDOF 0
ENDMDL
MODEL 9
REMARK VINA RESULT:      -5.4      1.291      4.940
REMARK  Name = 
REMARK  4 active torsions:
REMARK  status: ('A' for Active; 'I' for Inactive)
REMARK    1  A    between atoms: C_1  and  N_2
REMARK    2  A    between atoms: N_6  and  C_7
REMARK    3  A    between atoms: N_11  and  C_12
REMARK    4  A    between atoms: N_16  and  C_17
REMARK                            x       y       z     vdW  Elec       q    Type
REMARK                         _______ _______ _______ _____ _____    ______ ____
ROOT
ATOM      1  C   UNL     1      -1.249  14.607  24.222  0.00  0.00    +0.000 C 
ATOM      2  N   UNL     1      -1.972  13.857  23.203  0.00  0.00    +0.000 NA
ATOM      3  C   UNL     1      -1.143  12.804  22.589  0.00  0.00    +0.000 C 
ATOM      4  C   UNL     1      -1.203  12.934  21.065  0.00  0.00    +0.000 C 
ATOM      5  C   UNL     1      -0.383  11.851  20.353  0.00  0.00    +0.000 C 
ATOM      6  N   UNL     1      -0.520  11.781  18.888  0.00  0.00    +0.000 NA
ATOM      7  C   UNL     1      -0.596  13.092  18.243  0.00  0.00    +0.000 C 
ATOM      8  C   UNL     1      -1.539  10.827  18.414  0.00  0.00    +0.000 C 
ATOM      9  C   UNL     1      -2.953  11.396  18.289  0.00  0.00    +0.000 C 
ATOM     10  C   UNL     1      -3.995  10.386  17.799  0.00  0.00    +0.000 C 
ATOM     11  N   UNL     1      -5.364  10.914  17.655  0.00  0.00    +0.000 NA
ATOM     12  C   UNL     1      -5.418  12.212  16.976  0.00  0.00    +0.000 C 
ATOM     13  C   UNL     1      -6.173  10.863  18.888  0.00  0.00    +0.000 C 
ATOM     14  C   UNL     1      -6.105  12.114  19.769  0.00  0.00    +0.000 C 
ATOM     15  C   UNL     1      -6.864  11.990  21.092  0.00  0.00    +0.000 C 
ATOM     16  N   UNL     1      -6.764  13.156  21.988  0.00  0.00    +0.000 NA
ATOM     17  C   UNL     1      -6.772  14.441  21.290  0.00  0.00    +0.000 C 
ATOM     18  C   UNL     1      -5.713  13.060  23.015  0.00  0.00    +0.000 C 
ATOM     19  C   UNL     1      -4.308  13.477  22.575  0.00  0.00    +0.000 C 
ATOM     20  C   UNL     1      -3.270  13.363  23.695  0.00  0.00    +0.000 C 
ENDROOT
TORSDOF 0
ENDMDL
