MODEL 1
REMARK VINA RESULT:      -7.9      0.000      0.000
REMARK  Name = 
REMARK  10 active torsions:
REMARK  status: ('A' for Active; 'I' for Inactive)
REMARK    1  A    between atoms: C_1  and  O_2
REMARK    2  A    between atoms: O_2  and  C_3
REMARK    3  A    between atoms: C_6  and  C_7
REMARK    4  A    between atoms: C_7  and  N_8
REMARK    5  A    between atoms: N_8  and  C_9
REMARK    6  A    between atoms: C_9  and  C_10
REMARK    7  A    between atoms: C_13  and  N_14
REMARK    8  A    between atoms: C_21  and  C_22
REMARK    9  A    between atoms: C_26  and  O_27
REMARK   10  A    between atoms: O_27  and  C_28
REMARK                            x       y       z     vdW  Elec       q    Type
REMARK                         _______ _______ _______ _____ _____    ______ ____
ROOT
ATOM      1  C   UNL     1       1.568   3.793  19.025  0.00  0.00    +0.000 A 
ATOM      2  C   UNL     1       1.536   3.912  20.414  0.00  0.00    +0.000 A 
ATOM      3  C   UNL     1       1.667   5.159  21.021  0.00  0.00    +0.000 A 
ATOM      4  C   UNL     1       1.832   6.323  20.264  0.00  0.00    +0.000 A 
ATOM      5  C   UNL     1       1.875   6.217  18.859  0.00  0.00    +0.000 A 
ATOM      6  C   UNL     1       1.729   4.958  18.253  0.00  0.00    +0.000 A 
ENDROOT
BRANCH   4   7
ATOM      7  N   UNL     1       1.959   7.605  20.861  0.00  0.00    +0.000 N 
ATOM      8  C   UNL     1       0.921   8.393  21.317  0.00  0.00    +0.000 C 
ATOM      9  O   UNL     1      -0.267   8.076  21.308  0.00  0.00    +0.000 OA
ATOM     10  N   UNL     1       1.334   9.632  21.752  0.00  0.00    +0.000 N 
ATOM     11  C   UNL     1       0.374  10.586  22.134  0.00  0.00    +0.000 A 
ATOM     12  C   UNL     1      -0.702  10.289  22.972  0.00  0.00    +0.000 A 
ATOM     13  N   UNL     1      -1.659  11.197  23.308  0.00  0.00    +0.000 NA
ATOM     14  C   UNL     1      -1.517  12.413  22.728  0.00  0.00    +0.000 A 
ATOM     15  C   UNL     1      -0.450  12.709  21.891  0.00  0.00    +0.000 A 
ATOM     16  N   UNL     1       0.540  11.819  21.610  0.00  0.00    +0.000 NA
ATOM     17  H   UNL     1       2.903   7.970  20.885  0.00  0.00    +0.000 HD
ATOM     18  H   UNL     1       2.098  10.045  21.242  0.00  0.00    +0.000 HD
BRANCH  14  19
ATOM     19  C   UNL     1      -2.507  13.406  23.033  0.00  0.00    +0.000 C 
ATOM     20  N   UNL     1      -3.304  14.221  23.231  0.00  0.00    +0.000 NA
ENDBRANCH  14  19
ENDBRANCH   4   7
BRANCH   5  21
ATOM     21  O   UNL     1       2.014   7.398  18.162  0.00  0.00    +0.000 OA
ATOM     22  C   UNL     1       3.313   7.671  17.640  0.00  0.00    +0.000 C 
ENDBRANCH   5  21
BRANCH   1  23
ATOM     23  C   UNL     1       1.425   2.432  18.382  0.00  0.00    +0.000 C 
BRANCH  23  24
ATOM     24  N   UNL     1       2.454   2.216  17.372  0.00  0.00    +0.000 NA
ATOM     25  H   UNL     1       2.261   1.360  16.856  0.00  0.00    +0.000 HD
BRANCH  24  26
ATOM     26  C   UNL     1       3.782   2.117  17.972  0.00  0.00    +0.000 C 
BRANCH  26  30
ATOM     27  C   UNL     1       6.145   5.617  17.018  0.00  0.00    +0.000 A 
ATOM     28  C   UNL     1       5.512   4.894  16.006  0.00  0.00    +0.000 A 
ATOM     29  C   UNL     1       4.743   3.770  16.314  0.00  0.00    +0.000 A 
ATOM     30  C   UNL     1       4.610   3.338  17.641  0.00  0.00    +0.000 A 
ATOM     31  C   UNL     1       5.261   4.062  18.650  0.00  0.00    +0.000 A 
ATOM     32  C   UNL     1       6.023   5.194  18.341  0.00  0.00    +0.000 A 
BRANCH  27  34
ATOM     33  C   UNL     1       7.567   7.408  17.614  0.00  0.00    +0.000 C 
ATOM     34  O   UNL     1       6.887   6.685  16.596  0.00  0.00    +0.000 OA
ENDBRANCH  27  34
ENDBRANCH  26  30
ENDBRANCH  24  26
ENDBRANCH  23  24
ENDBRANCH   1  23
TORSDOF 8
ENDMDL
MODEL 2
REMARK VINA RESULT:      -7.6      0.843      1.214
REMARK  Name = 
REMARK  10 active torsions:
REMARK  status: ('A' for Active; 'I' for Inactive)
REMARK    1  A    between atoms: C_1  and  O_2
REMARK    2  A    between atoms: O_2  and  C_3
REMARK    3  A    between atoms: C_6  and  C_7
REMARK    4  A    between atoms: C_7  and  N_8
REMARK    5  A    between atoms: N_8  and  C_9
REMARK    6  A    between atoms: C_9  and  C_10
REMARK    7  A    between atoms: C_13  and  N_14
REMARK    8  A    between atoms: C_21  and  C_22
REMARK    9  A    between atoms: C_26  and  O_27
REMARK   10  A    between atoms: O_27  and  C_28
REMARK                            x       y       z     vdW  Elec       q    Type
REMARK                         _______ _______ _______ _____ _____    ______ ____
ROOT
ATOM      1  C   UNL     1       1.971   4.637  18.854  0.00  0.00    +0.000 A 
ATOM      2  C   UNL     1       1.588   4.660  20.195  0.00  0.00    +0.000 A 
ATOM      3  C   UNL     1       1.564   5.860  20.904  0.00  0.00    +0.000 A 
ATOM      4  C   UNL     1       1.918   7.069  20.298  0.00  0.00    +0.000 A 
ATOM      5  C   UNL     1       2.316   7.060  18.946  0.00  0.00    +0.000 A 
ATOM      6  C   UNL     1       2.325   5.848  18.234  0.00  0.00    +0.000 A 
ENDROOT
BRANCH   4   7
ATOM      7  N   UNL     1       1.892   8.304  20.998  0.00  0.00    +0.000 N 
ATOM      8  C   UNL     1       0.761   8.982  21.405  0.00  0.00    +0.000 C 
ATOM      9  O   UNL     1      -0.394   8.589  21.254  0.00  0.00    +0.000 OA
ATOM     10  N   UNL     1       1.038  10.207  21.970  0.00  0.00    +0.000 N 
ATOM     11  C   UNL     1      -0.021  11.061  22.324  0.00  0.00    +0.000 A 
ATOM     12  C   UNL     1      -1.147  10.627  23.026  0.00  0.00    +0.000 A 
ATOM     13  N   UNL     1      -2.197  11.439  23.330  0.00  0.00    +0.000 NA
ATOM     14  C   UNL     1      -2.090  12.705  22.859  0.00  0.00    +0.000 A 
ATOM     15  C   UNL     1      -0.973  13.138  22.158  0.00  0.00    +0.000 A 
ATOM     16  N   UNL     1       0.101  12.340  21.912  0.00  0.00    +0.000 NA
ATOM     17  H   UNL     1       2.801   8.729  21.144  0.00  0.00    +0.000 HD
ATOM     18  H   UNL     1       1.815  10.709  21.572  0.00  0.00    +0.000 HD
BRANCH  14  19
ATOM     19  C   UNL     1      -3.176  13.602  23.136  0.00  0.00    +0.000 C 
ATOM     20  N   UNL     1      -4.083  14.291  23.338  0.00  0.00    +0.000 NA
ENDBRANCH  14  19
ENDBRANCH   4   7
BRANCH   5  21
ATOM     21  O   UNL     1       2.629   8.282  18.394  0.00  0.00    +0.000 OA
ATOM     22  C   UNL     1       1.575   8.950  17.704  0.00  0.00    +0.000 C 
ENDBRANCH   5  21
BRANCH   1  23
ATOM     23  C   UNL     1       1.992   3.327  18.100  0.00  0.00    +0.000 C 
BRANCH  23  24
ATOM     24  N   UNL     1       3.191   2.558  18.414  0.00  0.00    +0.000 NA
ATOM     25  H   UNL     1       3.696   2.998  19.180  0.00  0.00    +0.000 HD
BRANCH  24  26
ATOM     26  C   UNL     1       4.079   2.455  17.259  0.00  0.00    +0.000 C 
BRANCH  26  30
ATOM     27  C   UNL     1       6.384   6.087  16.769  0.00  0.00    +0.000 A 
ATOM     28  C   UNL     1       6.328   5.447  18.008  0.00  0.00    +0.000 A 
ATOM     29  C   UNL     1       5.591   4.271  18.164  0.00  0.00    +0.000 A 
ATOM     30  C   UNL     1       4.880   3.725  17.086  0.00  0.00    +0.000 A 
ATOM     31  C   UNL     1       4.930   4.382  15.849  0.00  0.00    +0.000 A 
ATOM     32  C   UNL     1       5.677   5.555  15.691  0.00  0.00    +0.000 A 
BRANCH  27  34
ATOM     33  C   UNL     1       7.822   7.557  17.935  0.00  0.00    +0.000 C 
ATOM     34  O   UNL     1       7.117   7.240  16.740  0.00  0.00    +0.000 OA
ENDBRANCH  27  34
ENDBRANCH  26  30
ENDBRANCH  24  26
ENDBRANCH  23  24
ENDBRANCH   1  23
TORSDOF 8
ENDMDL
MODEL 3
REMARK VINA RESULT:      -7.4      1.299      1.563
REMARK  Name = 
REMARK  10 active torsions:
REMARK  status: ('A' for Active; 'I' for Inactive)
REMARK    1  A    between atoms: C_1  and  O_2
REMARK    2  A    between atoms: O_2  and  C_3
REMARK    3  A    between atoms: C_6  and  C_7
REMARK    4  A    between atoms: C_7  and  N_8
REMARK    5  A    between atoms: N_8  and  C_9
REMARK    6  A    between atoms: C_9  and  C_10
REMARK    7  A    between atoms: C_13  and  N_14
REMARK    8  A    between atoms: C_21  and  C_22
REMARK    9  A    between atoms: C_26  and  O_27
REMARK   10  A    between atoms: O_27  and  C_28
REMARK                            x       y       z     vdW  Elec       q    Type
REMARK                         _______ _______ _______ _____ _____    ______ ____
ROOT
ATOM      1  C   UNL     1       1.846   4.558  18.826  0.00  0.00    +0.000 A 
ATOM      2  C   UNL     1       1.475   4.552  20.171  0.00  0.00    +0.000 A 
ATOM      3  C   UNL     1       1.478   5.733  20.911  0.00  0.00    +0.000 A 
ATOM      4  C   UNL     1       1.847   6.951  20.335  0.00  0.00    +0.000 A 
ATOM      5  C   UNL     1       2.233   6.971  18.979  0.00  0.00    +0.000 A 
ATOM      6  C   UNL     1       2.216   5.779  18.235  0.00  0.00    +0.000 A 
ENDROOT
BRANCH   4   7
ATOM      7  N   UNL     1       1.849   8.168  21.067  0.00  0.00    +0.000 N 
ATOM      8  C   UNL     1       0.733   8.884  21.452  0.00  0.00    +0.000 C 
ATOM      9  O   UNL     1      -0.431   8.546  21.249  0.00  0.00    +0.000 OA
ATOM     10  N   UNL     1       1.042  10.080  22.060  0.00  0.00    +0.000 N 
ATOM     11  C   UNL     1       0.007  10.971  22.399  0.00  0.00    +0.000 A 
ATOM     12  C   UNL     1      -1.161  10.567  23.048  0.00  0.00    +0.000 A 
ATOM     13  N   UNL     1      -2.185  11.417  23.337  0.00  0.00    +0.000 NA
ATOM     14  C   UNL     1      -2.008  12.689  22.905  0.00  0.00    +0.000 A 
ATOM     15  C   UNL     1      -0.848  13.090  22.257  0.00  0.00    +0.000 A 
ATOM     16  N   UNL     1       0.199  12.253  22.027  0.00  0.00    +0.000 NA
ATOM     17  H   UNL     1       2.769   8.548  21.257  0.00  0.00    +0.000 HD
ATOM     18  H   UNL     1       1.853  10.558  21.703  0.00  0.00    +0.000 HD
BRANCH  14  19
ATOM     19  C   UNL     1      -3.063  13.624  23.168  0.00  0.00    +0.000 C 
ATOM     20  N   UNL     1      -3.883  14.417  23.367  0.00  0.00    +0.000 NA
ENDBRANCH  14  19
ENDBRANCH   4   7
BRANCH   5  21
ATOM     21  O   UNL     1       2.563   8.203  18.456  0.00  0.00    +0.000 OA
ATOM     22  C   UNL     1       1.575   8.823  17.636  0.00  0.00    +0.000 C 
ENDBRANCH   5  21
BRANCH   1  23
ATOM     23  C   UNL     1       1.839   3.268  18.038  0.00  0.00    +0.000 C 
BRANCH  23  24
ATOM     24  N   UNL     1       2.896   3.258  17.033  0.00  0.00    +0.000 NA
ATOM     25  H   UNL     1       2.811   2.431  16.446  0.00  0.00    +0.000 HD
BRANCH  24  26
ATOM     26  C   UNL     1       4.220   3.267  17.649  0.00  0.00    +0.000 C 
BRANCH  26  30
ATOM     27  C   UNL     1       7.125   5.052  14.982  0.00  0.00    +0.000 A 
ATOM     28  C   UNL     1       5.907   4.583  14.488  0.00  0.00    +0.000 A 
ATOM     29  C   UNL     1       4.966   4.015  15.350  0.00  0.00    +0.000 A 
ATOM     30  C   UNL     1       5.238   3.888  16.719  0.00  0.00    +0.000 A 
ATOM     31  C   UNL     1       6.469   4.349  17.204  0.00  0.00    +0.000 A 
ATOM     32  C   UNL     1       7.407   4.927  16.342  0.00  0.00    +0.000 A 
BRANCH  27  34
ATOM     33  C   UNL     1       7.763   5.132  12.707  0.00  0.00    +0.000 C 
ATOM     34  O   UNL     1       7.975   5.568  14.044  0.00  0.00    +0.000 OA
ENDBRANCH  27  34
ENDBRANCH  26  30
ENDBRANCH  24  26
ENDBRANCH  23  24
ENDBRANCH   1  23
TORSDOF 8
ENDMDL
MODEL 4
REMARK VINA RESULT:      -7.3      1.975      2.928
REMARK  Name = 
REMARK  10 active torsions:
REMARK  status: ('A' for Active; 'I' for Inactive)
REMARK    1  A    between atoms: C_1  and  O_2
REMARK    2  A    between atoms: O_2  and  C_3
REMARK    3  A    between atoms: C_6  and  C_7
REMARK    4  A    between atoms: C_7  and  N_8
REMARK    5  A    between atoms: N_8  and  C_9
REMARK    6  A    between atoms: C_9  and  C_10
REMARK    7  A    between atoms: C_13  and  N_14
REMARK    8  A    between atoms: C_21  and  C_22
REMARK    9  A    between atoms: C_26  and  O_27
REMARK   10  A    between atoms: O_27  and  C_28
REMARK                            x       y       z     vdW  Elec       q    Type
REMARK                         _______ _______ _______ _____ _____    ______ ____
ROOT
ATOM      1  C   UNL     1       3.452   4.595  17.808  0.00  0.00    +0.000 A 
ATOM      2  C   UNL     1       3.413   5.930  17.408  0.00  0.00    +0.000 A 
ATOM      3  C   UNL     1       2.931   6.913  18.269  0.00  0.00    +0.000 A 
ATOM      4  C   UNL     1       2.475   6.596  19.552  0.00  0.00    +0.000 A 
ATOM      5  C   UNL     1       2.499   5.249  19.967  0.00  0.00    +0.000 A 
ATOM      6  C   UNL     1       2.999   4.265  19.098  0.00  0.00    +0.000 A 
ENDROOT
BRANCH   4   7
ATOM      7  N   UNL     1       1.987   7.582  20.450  0.00  0.00    +0.000 N 
ATOM      8  C   UNL     1       1.299   8.727  20.100  0.00  0.00    +0.000 C 
ATOM      9  O   UNL     1       0.973   9.037  18.956  0.00  0.00    +0.000 OA
ATOM     10  N   UNL     1       1.042   9.552  21.172  0.00  0.00    +0.000 N 
ATOM     11  C   UNL     1       0.453  10.810  20.951  0.00  0.00    +0.000 A 
ATOM     12  C   UNL     1      -0.656  10.995  20.125  0.00  0.00    +0.000 A 
ATOM     13  N   UNL     1      -1.202  12.216  19.871  0.00  0.00    +0.000 NA
ATOM     14  C   UNL     1      -0.557  13.258  20.449  0.00  0.00    +0.000 A 
ATOM     15  C   UNL     1       0.549  13.076  21.268  0.00  0.00    +0.000 A 
ATOM     16  N   UNL     1       1.051  11.848  21.571  0.00  0.00    +0.000 NA
ATOM     17  H   UNL     1       2.234   7.432  21.421  0.00  0.00    +0.000 HD
ATOM     18  H   UNL     1       1.756   9.586  21.882  0.00  0.00    +0.000 HD
BRANCH  14  19
ATOM     19  C   UNL     1      -1.079  14.572  20.203  0.00  0.00    +0.000 C 
ATOM     20  N   UNL     1      -1.526  15.613  19.965  0.00  0.00    +0.000 NA
ENDBRANCH  14  19
ENDBRANCH   4   7
BRANCH   5  21
ATOM     21  O   UNL     1       2.062   4.997  21.249  0.00  0.00    +0.000 OA
ATOM     22  C   UNL     1       1.959   3.623  21.620  0.00  0.00    +0.000 C 
ENDBRANCH   5  21
BRANCH   1  23
ATOM     23  C   UNL     1       3.978   3.540  16.860  0.00  0.00    +0.000 C 
BRANCH  23  24
ATOM     24  N   UNL     1       5.409   3.330  17.048  0.00  0.00    +0.000 NA
ATOM     25  H   UNL     1       5.669   3.543  18.009  0.00  0.00    +0.000 HD
BRANCH  24  26
ATOM     26  C   UNL     1       6.196   4.169  16.149  0.00  0.00    +0.000 C 
BRANCH  26  30
ATOM     27  C   UNL     1       8.073   7.408  18.324  0.00  0.00    +0.000 A 
ATOM     28  C   UNL     1       7.543   7.625  17.051  0.00  0.00    +0.000 A 
ATOM     29  C   UNL     1       6.930   6.582  16.353  0.00  0.00    +0.000 A 
ATOM     30  C   UNL     1       6.855   5.297  16.909  0.00  0.00    +0.000 A 
ATOM     31  C   UNL     1       7.402   5.086  18.182  0.00  0.00    +0.000 A 
ATOM     32  C   UNL     1       8.007   6.133  18.885  0.00  0.00    +0.000 A 
BRANCH  27  34
ATOM     33  C   UNL     1       8.546   9.720  18.189  0.00  0.00    +0.000 C 
ATOM     34  O   UNL     1       8.666   8.495  18.902  0.00  0.00    +0.000 OA
ENDBRANCH  27  34
ENDBRANCH  26  30
ENDBRANCH  24  26
ENDBRANCH  23  24
ENDBRANCH   1  23
TORSDOF 8
ENDMDL
MODEL 5
REMARK VINA RESULT:      -6.9      4.860      8.236
REMARK  Name = 
REMARK  10 active torsions:
REMARK  status: ('A' for Active; 'I' for Inactive)
REMARK    1  A    between atoms: C_1  and  O_2
REMARK    2  A    between atoms: O_2  and  C_3
REMARK    3  A    between atoms: C_6  and  C_7
REMARK    4  A    between atoms: C_7  and  N_8
REMARK    5  A    between atoms: N_8  and  C_9
REMARK    6  A    between atoms: C_9  and  C_10
REMARK    7  A    between atoms: C_13  and  N_14
REMARK    8  A    between atoms: C_21  and  C_22
REMARK    9  A    between atoms: C_26  and  O_27
REMARK   10  A    between atoms: O_27  and  C_28
REMARK                            x       y       z     vdW  Elec       q    Type
REMARK                         _______ _______ _______ _____ _____    ______ ____
ROOT
ATOM      1  C   UNL     1       5.907   4.919  17.287  0.00  0.00    +0.000 A 
ATOM      2  C   UNL     1       6.279   6.005  16.495  0.00  0.00    +0.000 A 
ATOM      3  C   UNL     1       7.142   6.980  16.992  0.00  0.00    +0.000 A 
ATOM      4  C   UNL     1       7.659   6.902  18.288  0.00  0.00    +0.000 A 
ATOM      5  C   UNL     1       7.285   5.815  19.103  0.00  0.00    +0.000 A 
ATOM      6  C   UNL     1       6.425   4.828  18.591  0.00  0.00    +0.000 A 
ENDROOT
BRANCH   4   7
ATOM      7  N   UNL     1       8.546   7.880  18.812  0.00  0.00    +0.000 N 
ATOM      8  C   UNL     1       8.598   9.208  18.441  0.00  0.00    +0.000 C 
ATOM      9  O   UNL     1       7.850   9.747  17.628  0.00  0.00    +0.000 OA
ATOM     10  N   UNL     1       9.628   9.897  19.041  0.00  0.00    +0.000 N 
ATOM     11  C   UNL     1       9.878  11.230  18.669  0.00  0.00    +0.000 A 
ATOM     12  C   UNL     1       8.870  12.189  18.553  0.00  0.00    +0.000 A 
ATOM     13  N   UNL     1       9.100  13.468  18.148  0.00  0.00    +0.000 NA
ATOM     14  C   UNL     1      10.387  13.737  17.819  0.00  0.00    +0.000 A 
ATOM     15  C   UNL     1      11.390  12.784  17.930  0.00  0.00    +0.000 A 
ATOM     16  N   UNL     1      11.166  11.526  18.397  0.00  0.00    +0.000 NA
ATOM     17  H   UNL     1       9.228   7.524  19.472  0.00  0.00    +0.000 HD
ATOM     18  H   UNL     1      10.478   9.377  19.186  0.00  0.00    +0.000 HD
BRANCH  14  19
ATOM     19  C   UNL     1      10.685  15.067  17.370  0.00  0.00    +0.000 C 
ATOM     20  N   UNL     1      10.877  16.144  16.993  0.00  0.00    +0.000 NA
ENDBRANCH  14  19
ENDBRANCH   4   7
BRANCH   5  21
ATOM     21  O   UNL     1       7.843   5.774  20.362  0.00  0.00    +0.000 OA
ATOM     22  C   UNL     1       8.928   4.865  20.539  0.00  0.00    +0.000 C 
ENDBRANCH   5  21
BRANCH   1  23
ATOM     23  C   UNL     1       4.970   3.870  16.733  0.00  0.00    +0.000 C 
BRANCH  23  24
ATOM     24  N   UNL     1       4.014   3.431  17.743  0.00  0.00    +0.000 NA
ATOM     25  H   UNL     1       3.947   2.416  17.741  0.00  0.00    +0.000 HD
BRANCH  24  26
ATOM     26  C   UNL     1       2.687   3.993  17.504  0.00  0.00    +0.000 C 
BRANCH  26  30
ATOM     27  C   UNL     1       1.982   7.387  20.098  0.00  0.00    +0.000 A 
ATOM     28  C   UNL     1       1.709   6.091  20.539  0.00  0.00    +0.000 A 
ATOM     29  C   UNL     1       1.945   4.996  19.705  0.00  0.00    +0.000 A 
ATOM     30  C   UNL     1       2.439   5.180  18.406  0.00  0.00    +0.000 A 
ATOM     31  C   UNL     1       2.697   6.486  17.967  0.00  0.00    +0.000 A 
ATOM     32  C   UNL     1       2.470   7.582  18.806  0.00  0.00    +0.000 A 
BRANCH  27  34
ATOM     33  C   UNL     1       0.318   8.537  21.321  0.00  0.00    +0.000 C 
ATOM     34  O   UNL     1       1.693   8.380  20.990  0.00  0.00    +0.000 OA
ENDBRANCH  27  34
ENDBRANCH  26  30
ENDBRANCH  24  26
ENDBRANCH  23  24
ENDBRANCH   1  23
TORSDOF 8
ENDMDL
MODEL 6
REMARK VINA RESULT:      -6.6      3.236      4.352
REMARK  Name = 
REMARK  10 active torsions:
REMARK  status: ('A' for Active; 'I' for Inactive)
REMARK    1  A    between atoms: C_1  and  O_2
REMARK    2  A    between atoms: O_2  and  C_3
REMARK    3  A    between atoms: C_6  and  C_7
REMARK    4  A    between atoms: C_7  and  N_8
REMARK    5  A    between atoms: N_8  and  C_9
REMARK    6  A    between atoms: C_9  and  C_10
REMARK    7  A    between atoms: C_13  and  N_14
REMARK    8  A    between atoms: C_21  and  C_22
REMARK    9  A    between atoms: C_26  and  O_27
REMARK   10  A    between atoms: O_27  and  C_28
REMARK                            x       y       z     vdW  Elec       q    Type
REMARK                         _______ _______ _______ _____ _____    ______ ____
ROOT
ATOM      1  C   UNL     1       2.569   6.415  19.575  0.00  0.00    +0.000 A 
ATOM      2  C   UNL     1       2.700   6.830  18.250  0.00  0.00    +0.000 A 
ATOM      3  C   UNL     1       2.146   8.037  17.828  0.00  0.00    +0.000 A 
ATOM      4  C   UNL     1       1.447   8.865  18.712  0.00  0.00    +0.000 A 
ATOM      5  C   UNL     1       1.298   8.454  20.052  0.00  0.00    +0.000 A 
ATOM      6  C   UNL     1       1.871   7.242  20.474  0.00  0.00    +0.000 A 
ENDROOT
BRANCH   4   7
ATOM      7  N   UNL     1       0.881  10.102  18.306  0.00  0.00    +0.000 N 
ATOM      8  C   UNL     1       1.377  11.356  18.602  0.00  0.00    +0.000 C 
ATOM      9  O   UNL     1       2.411  11.580  19.228  0.00  0.00    +0.000 OA
ATOM     10  N   UNL     1       0.562  12.377  18.165  0.00  0.00    +0.000 N 
ATOM     11  C   UNL     1       0.879  13.705  18.498  0.00  0.00    +0.000 A 
ATOM     12  C   UNL     1       2.164  14.237  18.368  0.00  0.00    +0.000 A 
ATOM     13  N   UNL     1       2.486  15.508  18.733  0.00  0.00    +0.000 NA
ATOM     14  C   UNL     1       1.470  16.217  19.280  0.00  0.00    +0.000 A 
ATOM     15  C   UNL     1       0.193  15.690  19.413  0.00  0.00    +0.000 A 
ATOM     16  N   UNL     1      -0.140  14.441  18.989  0.00  0.00    +0.000 NA
ATOM     17  H   UNL     1       0.002  10.024  17.807  0.00  0.00    +0.000 HD
ATOM     18  H   UNL     1      -0.428  12.199  18.212  0.00  0.00    +0.000 HD
BRANCH  14  19
ATOM     19  C   UNL     1       1.756  17.560  19.698  0.00  0.00    +0.000 C 
ATOM     20  N   UNL     1       2.036  18.629  20.042  0.00  0.00    +0.000 NA
ENDBRANCH  14  19
ENDBRANCH   4   7
BRANCH   5  21
ATOM     21  O   UNL     1       0.623   9.319  20.885  0.00  0.00    +0.000 OA
ATOM     22  C   UNL     1      -0.511   8.782  21.564  0.00  0.00    +0.000 C 
ENDBRANCH   5  21
BRANCH   1  23
ATOM     23  C   UNL     1       3.176   5.103  20.016  0.00  0.00    +0.000 C 
BRANCH  23  24
ATOM     24  N   UNL     1       4.506   4.920  19.447  0.00  0.00    +0.000 NA
ATOM     25  H   UNL     1       4.838   5.796  19.050  0.00  0.00    +0.000 HD
BRANCH  24  26
ATOM     26  C   UNL     1       4.507   3.898  18.405  0.00  0.00    +0.000 C 
BRANCH  26  30
ATOM     27  C   UNL     1       7.009   5.106  15.084  0.00  0.00    +0.000 A 
ATOM     28  C   UNL     1       7.139   5.724  16.329  0.00  0.00    +0.000 A 
ATOM     29  C   UNL     1       6.338   5.328  17.402  0.00  0.00    +0.000 A 
ATOM     30  C   UNL     1       5.377   4.320  17.242  0.00  0.00    +0.000 A 
ATOM     31  C   UNL     1       5.244   3.715  15.985  0.00  0.00    +0.000 A 
ATOM     32  C   UNL     1       6.053   4.105  14.913  0.00  0.00    +0.000 A 
BRANCH  27  34
ATOM     33  C   UNL     1       7.631   5.046  12.805  0.00  0.00    +0.000 C 
ATOM     34  O   UNL     1       7.830   5.589  14.104  0.00  0.00    +0.000 OA
ENDBRANCH  27  34
ENDBRANCH  26  30
ENDBRANCH  24  26
ENDBRANCH  23  24
ENDBRANCH   1  23
TORSDOF 8
ENDMDL
MODEL 7
REMARK VINA RESULT:      -6.5      3.350     10.630
REMARK  Name = 
REMARK  10 active torsions:
REMARK  status: ('A' for Active; 'I' for Inactive)
REMARK    1  A    between atoms: C_1  and  O_2
REMARK    2  A    between atoms: O_2  and  C_3
REMARK    3  A    between atoms: C_6  and  C_7
REMARK    4  A    between atoms: C_7  and  N_8
REMARK    5  A    between atoms: N_8  and  C_9
REMARK    6  A    between atoms: C_9  and  C_10
REMARK    7  A    between atoms: C_13  and  N_14
REMARK    8  A    between atoms: C_21  and  C_22
REMARK    9  A    between atoms: C_26  and  O_27
REMARK   10  A    between atoms: O_27  and  C_28
REMARK                            x       y       z     vdW  Elec       q    Type
REMARK                         _______ _______ _______ _____ _____    ______ ____
ROOT
ATOM      1  C   UNL     1      -1.243  11.652  22.531  0.00  0.00    +0.000 A 
ATOM      2  C   UNL     1      -0.613  10.511  23.028  0.00  0.00    +0.000 A 
ATOM      3  C   UNL     1       0.163   9.711  22.191  0.00  0.00    +0.000 A 
ATOM      4  C   UNL     1       0.334  10.022  20.839  0.00  0.00    +0.000 A 
ATOM      5  C   UNL     1      -0.305  11.167  20.321  0.00  0.00    +0.000 A 
ATOM      6  C   UNL     1      -1.075  11.977  21.173  0.00  0.00    +0.000 A 
ENDROOT
BRANCH   4   7
ATOM      7  N   UNL     1       1.126   9.226  19.971  0.00  0.00    +0.000 N 
ATOM      8  C   UNL     1       1.463   7.902  20.168  0.00  0.00    +0.000 C 
ATOM      9  O   UNL     1       1.088   7.207  21.109  0.00  0.00    +0.000 OA
ATOM     10  N   UNL     1       2.329   7.417  19.213  0.00  0.00    +0.000 N 
ATOM     11  C   UNL     1       2.853   6.119  19.350  0.00  0.00    +0.000 A 
ATOM     12  C   UNL     1       2.065   5.011  19.668  0.00  0.00    +0.000 A 
ATOM     13  N   UNL     1       2.574   3.761  19.847  0.00  0.00    +0.000 NA
ATOM     14  C   UNL     1       3.922   3.675  19.738  0.00  0.00    +0.000 A 
ATOM     15  C   UNL     1       4.706   4.776  19.425  0.00  0.00    +0.000 A 
ATOM     16  N   UNL     1       4.187   6.010  19.183  0.00  0.00    +0.000 NA
ATOM     17  H   UNL     1       1.512   9.721  19.175  0.00  0.00    +0.000 HD
ATOM     18  H   UNL     1       3.015   8.069  18.870  0.00  0.00    +0.000 HD
BRANCH  14  19
ATOM     19  C   UNL     1       4.515   2.383  19.933  0.00  0.00    +0.000 C 
ATOM     20  N   UNL     1       5.016   1.345  20.045  0.00  0.00    +0.000 NA
ENDBRANCH  14  19
ENDBRANCH   4   7
BRANCH   5  21
ATOM     21  O   UNL     1      -0.082  11.441  18.990  0.00  0.00    +0.000 OA
ATOM     22  C   UNL     1      -0.583  12.688  18.511  0.00  0.00    +0.000 C 
ENDBRANCH   5  21
BRANCH   1  23
ATOM     23  C   UNL     1      -2.081  12.509  23.452  0.00  0.00    +0.000 C 
BRANCH  23  24
ATOM     24  N   UNL     1      -3.464  12.048  23.488  0.00  0.00    +0.000 NA
ATOM     25  H   UNL     1      -3.617  11.350  22.763  0.00  0.00    +0.000 HD
BRANCH  24  26
ATOM     26  C   UNL     1      -4.402  13.150  23.289  0.00  0.00    +0.000 C 
BRANCH  26  30
ATOM     27  C   UNL     1      -6.869  12.434  19.804  0.00  0.00    +0.000 A 
ATOM     28  C   UNL     1      -5.491  12.613  19.670  0.00  0.00    +0.000 A 
ATOM     29  C   UNL     1      -4.694  12.835  20.795  0.00  0.00    +0.000 A 
ATOM     30  C   UNL     1      -5.266  12.903  22.073  0.00  0.00    +0.000 A 
ATOM     31  C   UNL     1      -6.652  12.736  22.197  0.00  0.00    +0.000 A 
ATOM     32  C   UNL     1      -7.449  12.503  21.070  0.00  0.00    +0.000 A 
BRANCH  27  34
ATOM     33  C   UNL     1      -6.797  12.430  17.441  0.00  0.00    +0.000 C 
ATOM     34  O   UNL     1      -7.550  12.245  18.634  0.00  0.00    +0.000 OA
ENDBRANCH  27  34
ENDBRANCH  26  30
ENDBRANCH  24  26
ENDBRANCH  23  24
ENDBRANCH   1  23
TORSDOF 8
ENDMDL
MODEL 8
REMARK VINA RESULT:      -6.5      2.453      3.749
REMARK  Name = 
REMARK  10 active torsions:
REMARK  status: ('A' for Active; 'I' for Inactive)
REMARK    1  A    between atoms: C_1  and  O_2
REMARK    2  A    between atoms: O_2  and  C_3
REMARK    3  A    between atoms: C_6  and  C_7
REMARK    4  A    between atoms: C_7  and  N_8
REMARK    5  A    between atoms: N_8  and  C_9
REMARK    6  A    between atoms: C_9  and  C_10
REMARK    7  A    between atoms: C_13  and  N_14
REMARK    8  A    between atoms: C_21  and  C_22
REMARK    9  A    between atoms: C_26  and  O_27
REMARK   10  A    between atoms: O_27  and  C_28
REMARK                            x       y       z     vdW  Elec       q    Type
REMARK                         _______ _______ _______ _____ _____    ______ ____
ROOT
ATOM      1  C   UNL     1       1.999   7.720  19.438  0.00  0.00    +0.000 A 
ATOM      2  C   UNL     1       1.622   7.752  20.780  0.00  0.00    +0.000 A 
ATOM      3  C   UNL     1       0.727   8.715  21.241  0.00  0.00    +0.000 A 
ATOM      4  C   UNL     1       0.182   9.672  20.380  0.00  0.00    +0.000 A 
ATOM      5  C   UNL     1       0.561   9.658  19.023  0.00  0.00    +0.000 A 
ATOM      6  C   UNL     1       1.454   8.675  18.562  0.00  0.00    +0.000 A 
ENDROOT
BRANCH   4   7
ATOM      7  N   UNL     1      -0.738  10.659  20.826  0.00  0.00    +0.000 N 
ATOM      8  C   UNL     1      -0.427  11.779  21.570  0.00  0.00    +0.000 C 
ATOM      9  O   UNL     1       0.704  12.106  21.920  0.00  0.00    +0.000 OA
ATOM     10  N   UNL     1      -1.537  12.502  21.947  0.00  0.00    +0.000 N 
ATOM     11  C   UNL     1      -1.385  13.603  22.808  0.00  0.00    +0.000 A 
ATOM     12  C   UNL     1      -0.406  14.581  22.626  0.00  0.00    +0.000 A 
ATOM     13  N   UNL     1      -0.224  15.624  23.482  0.00  0.00    +0.000 NA
ATOM     14  C   UNL     1      -1.042  15.621  24.562  0.00  0.00    +0.000 A 
ATOM     15  C   UNL     1      -2.014  14.648  24.746  0.00  0.00    +0.000 A 
ATOM     16  N   UNL     1      -2.235  13.644  23.855  0.00  0.00    +0.000 NA
ATOM     17  H   UNL     1      -1.709  10.461  20.613  0.00  0.00    +0.000 HD
ATOM     18  H   UNL     1      -2.361  11.963  22.160  0.00  0.00    +0.000 HD
BRANCH  14  19
ATOM     19  C   UNL     1      -0.885  16.690  25.507  0.00  0.00    +0.000 C 
ATOM     20  N   UNL     1      -0.724  17.572  26.238  0.00  0.00    +0.000 NA
ENDBRANCH  14  19
ENDBRANCH   4   7
BRANCH   5  21
ATOM     21  O   UNL     1      -0.025  10.607  18.214  0.00  0.00    +0.000 OA
ATOM     22  C   UNL     1      -1.203  10.201  17.519  0.00  0.00    +0.000 C 
ENDBRANCH   5  21
BRANCH   1  23
ATOM     23  C   UNL     1       2.971   6.668  18.955  0.00  0.00    +0.000 C 
BRANCH  23  24
ATOM     24  N   UNL     1       3.391   5.796  20.046  0.00  0.00    +0.000 NA
ATOM     25  H   UNL     1       4.108   6.256  20.603  0.00  0.00    +0.000 HD
BRANCH  24  26
ATOM     26  C   UNL     1       3.919   4.530  19.548  0.00  0.00    +0.000 C 
BRANCH  26  30
ATOM     27  C   UNL     1       6.608   5.188  16.219  0.00  0.00    +0.000 A 
ATOM     28  C   UNL     1       7.040   5.400  17.529  0.00  0.00    +0.000 A 
ATOM     29  C   UNL     1       6.175   5.180  18.603  0.00  0.00    +0.000 A 
ATOM     30  C   UNL     1       4.855   4.762  18.383  0.00  0.00    +0.000 A 
ATOM     31  C   UNL     1       4.425   4.565  17.063  0.00  0.00    +0.000 A 
ATOM     32  C   UNL     1       5.295   4.777  15.988  0.00  0.00    +0.000 A 
BRANCH  27  34
ATOM     33  C   UNL     1       7.266   4.900  13.967  0.00  0.00    +0.000 C 
ATOM     34  O   UNL     1       7.532   5.456  15.249  0.00  0.00    +0.000 OA
ENDBRANCH  27  34
ENDBRANCH  26  30
ENDBRANCH  24  26
ENDBRANCH  23  24
ENDBRANCH   1  23
TORSDOF 8
ENDMDL
MODEL 9
REMARK VINA RESULT:      -6.4      3.688      9.566
REMARK  Name = 
REMARK  10 active torsions:
REMARK  status: ('A' for Active; 'I' for Inactive)
REMARK    1  A    between atoms: C_1  and  O_2
REMARK    2  A    between atoms: O_2  and  C_3
REMARK    3  A    between atoms: C_6  and  C_7
REMARK    4  A    between atoms: C_7  and  N_8
REMARK    5  A    between atoms: N_8  and  C_9
REMARK    6  A    between atoms: C_9  and  C_10
REMARK    7  A    between atoms: C_13  and  N_14
REMARK    8  A    between atoms: C_21  and  C_22
REMARK    9  A    between atoms: C_26  and  O_27
REMARK   10  A    between atoms: O_27  and  C_28
REMARK                            x       y       z     vdW  Elec       q    Type
REMARK                         _______ _______ _______ _____ _____    ______ ____
ROOT
ATOM      1  C   UNL     1      -0.762  11.525  19.792  0.00  0.00    +0.000 A 
ATOM      2  C   UNL     1      -0.303  11.074  18.554  0.00  0.00    +0.000 A 
ATOM      3  C   UNL     1       0.564   9.985  18.475  0.00  0.00    +0.000 A 
ATOM      4  C   UNL     1       0.996   9.315  19.623  0.00  0.00    +0.000 A 
ATOM      5  C   UNL     1       0.548   9.766  20.881  0.00  0.00    +0.000 A 
ATOM      6  C   UNL     1      -0.336  10.856  20.953  0.00  0.00    +0.000 A 
ENDROOT
BRANCH   4   7
ATOM      7  N   UNL     1       1.872   8.198  19.566  0.00  0.00    +0.000 N 
ATOM      8  C   UNL     1       2.624   7.814  18.474  0.00  0.00    +0.000 C 
ATOM      9  O   UNL     1       2.675   8.412  17.401  0.00  0.00    +0.000 OA
ATOM     10  N   UNL     1       3.301   6.632  18.674  0.00  0.00    +0.000 N 
ATOM     11  C   UNL     1       4.015   6.055  17.608  0.00  0.00    +0.000 A 
ATOM     12  C   UNL     1       4.872   6.786  16.783  0.00  0.00    +0.000 A 
ATOM     13  N   UNL     1       5.529   6.242  15.721  0.00  0.00    +0.000 NA
ATOM     14  C   UNL     1       5.254   4.935  15.491  0.00  0.00    +0.000 A 
ATOM     15  C   UNL     1       4.400   4.209  16.308  0.00  0.00    +0.000 A 
ATOM     16  N   UNL     1       3.795   4.739  17.406  0.00  0.00    +0.000 NA
ATOM     17  H   UNL     1       1.877   7.619  20.397  0.00  0.00    +0.000 HD
ATOM     18  H   UNL     1       2.825   5.941  19.230  0.00  0.00    +0.000 HD
BRANCH  14  19
ATOM     19  C   UNL     1       5.907   4.314  14.375  0.00  0.00    +0.000 C 
ATOM     20  N   UNL     1       6.455   3.780  13.506  0.00  0.00    +0.000 NA
ENDBRANCH  14  19
ENDBRANCH   4   7
BRANCH   5  21
ATOM     21  O   UNL     1       0.985   9.053  21.977  0.00  0.00    +0.000 OA
ATOM     22  C   UNL     1       0.360   9.365  23.220  0.00  0.00    +0.000 C 
ENDBRANCH   5  21
BRANCH   1  23
ATOM     23  C   UNL     1      -1.701  12.708  19.860  0.00  0.00    +0.000 C 
BRANCH  23  24
ATOM     24  N   UNL     1      -1.002  13.912  20.293  0.00  0.00    +0.000 NA
ATOM     25  H   UNL     1      -1.627  14.500  20.840  0.00  0.00    +0.000 HD
BRANCH  24  26
ATOM     26  C   UNL     1      -0.504  14.680  19.156  0.00  0.00    +0.000 C 
BRANCH  26  30
ATOM     27  C   UNL     1       3.810  15.014  19.297  0.00  0.00    +0.000 A 
ATOM     28  C   UNL     1       3.058  15.893  18.516  0.00  0.00    +0.000 A 
ATOM     29  C   UNL     1       1.666  15.791  18.477  0.00  0.00    +0.000 A 
ATOM     30  C   UNL     1       1.003  14.792  19.204  0.00  0.00    +0.000 A 
ATOM     31  C   UNL     1       1.767  13.905  19.975  0.00  0.00    +0.000 A 
ATOM     32  C   UNL     1       3.161  14.014  20.021  0.00  0.00    +0.000 A 
BRANCH  27  34
ATOM     33  C   UNL     1       5.796  14.781  18.036  0.00  0.00    +0.000 C 
ATOM     34  O   UNL     1       5.164  15.196  19.241  0.00  0.00    +0.000 OA
ENDBRANCH  27  34
ENDBRANCH  26  30
ENDBRANCH  24  26
ENDBRANCH  23  24
ENDBRANCH   1  23
TORSDOF 8
ENDMDL
