MODEL 1
REMARK VINA RESULT:      -7.5      0.000      0.000
REMARK  Name = 
REMARK  4 active torsions:
REMARK  status: ('A' for Active; 'I' for Inactive)
REMARK    1  A    between atoms: C_1  and  O_2
REMARK    2  A    between atoms: O_2  and  C_3
REMARK    3  A    between atoms: C_8  and  N_9
REMARK    4  A    between atoms: C_10  and  C_12
REMARK                            x       y       z     vdW  Elec       q    Type
REMARK                         _______ _______ _______ _____ _____    ______ ____
ROOT
ATOM      1  N   UNL     1       4.173   3.777  17.917  0.00  0.00    +0.000 N 
ATOM      2  C   UNL     1       5.210   4.668  17.700  0.00  0.00    +0.000 C 
ATOM      3  O   UNL     1       5.685   5.386  18.589  0.00  0.00    +0.000 OA
ATOM      4  H   UNL     1       4.049   2.991  17.283  0.00  0.00    +0.000 HD
ENDROOT
BRANCH   2   5
ATOM      5  C   UNL     1       5.854   4.840  16.299  0.00  0.00    +0.000 C 
ATOM      6  C   UNL     1       5.540   3.554  15.502  0.00  0.00    +0.000 C 
ATOM      7  C   UNL     1       6.246   3.921  14.257  0.00  0.00    +0.000 A 
ATOM      8  C   UNL     1       6.058   3.466  12.962  0.00  0.00    +0.000 A 
ATOM      9  C   UNL     1       6.808   4.058  11.950  0.00  0.00    +0.000 A 
ATOM     10  C   UNL     1       7.737   5.075  12.254  0.00  0.00    +0.000 A 
ATOM     11  C   UNL     1       7.942   5.495  13.579  0.00  0.00    +0.000 A 
ATOM     12  C   UNL     1       7.178   4.904  14.570  0.00  0.00    +0.000 A 
ATOM     13  O   UNL     1       7.176   5.233  15.923  0.00  0.00    +0.000 OA
ENDBRANCH   2   5
BRANCH   1  19
ATOM     14  C   UNL     1       2.437   4.660  19.478  0.00  0.00    +0.000 A 
ATOM     15  C   UNL     1       1.737   4.537  20.699  0.00  0.00    +0.000 A 
ATOM     16  C   UNL     1       1.992   3.491  21.584  0.00  0.00    +0.000 A 
ATOM     17  C   UNL     1       2.983   2.578  21.285  0.00  0.00    +0.000 A 
ATOM     18  C   UNL     1       3.713   2.712  20.103  0.00  0.00    +0.000 A 
ATOM     19  C   UNL     1       3.443   3.723  19.156  0.00  0.00    +0.000 A 
BRANCH  14  21
ATOM     20  C   UNL     1       2.534   6.981  19.002  0.00  0.00    +0.000 C 
ATOM     21  O   UNL     1       2.172   5.663  18.571  0.00  0.00    +0.000 OA
ENDBRANCH  14  21
ENDBRANCH   1  19
TORSDOF 3
ENDMDL
MODEL 2
REMARK VINA RESULT:      -7.4      1.082      2.139
REMARK  Name = 
REMARK  4 active torsions:
REMARK  status: ('A' for Active; 'I' for Inactive)
REMARK    1  A    between atoms: C_1  and  O_2
REMARK    2  A    between atoms: O_2  and  C_3
REMARK    3  A    between atoms: C_8  and  N_9
REMARK    4  A    between atoms: C_10  and  C_12
REMARK                            x       y       z     vdW  Elec       q    Type
REMARK                         _______ _______ _______ _____ _____    ______ ____
ROOT
ATOM      1  N   UNL     1       4.011   3.520  17.839  0.00  0.00    +0.000 N 
ATOM      2  C   UNL     1       4.752   4.660  17.578  0.00  0.00    +0.000 C 
ATOM      3  O   UNL     1       4.847   5.604  18.372  0.00  0.00    +0.000 OA
ATOM      4  H   UNL     1       4.227   2.660  17.341  0.00  0.00    +0.000 HD
ENDROOT
BRANCH   2   5
ATOM      5  C   UNL     1       5.518   4.843  16.241  0.00  0.00    +0.000 C 
ATOM      6  C   UNL     1       5.273   3.566  15.407  0.00  0.00    +0.000 C 
ATOM      7  C   UNL     1       6.089   3.942  14.234  0.00  0.00    +0.000 A 
ATOM      8  C   UNL     1       6.015   3.500  12.923  0.00  0.00    +0.000 A 
ATOM      9  C   UNL     1       6.854   4.099  11.987  0.00  0.00    +0.000 A 
ATOM     10  C   UNL     1       7.755   5.109  12.382  0.00  0.00    +0.000 A 
ATOM     11  C   UNL     1       7.842   5.517  13.724  0.00  0.00    +0.000 A 
ATOM     12  C   UNL     1       6.992   4.918  14.638  0.00  0.00    +0.000 A 
ATOM     13  O   UNL     1       6.870   5.235  15.988  0.00  0.00    +0.000 OA
ENDBRANCH   2   5
BRANCH   1  19
ATOM     14  C   UNL     1       3.572   2.757  20.174  0.00  0.00    +0.000 A 
ATOM     15  C   UNL     1       2.693   2.694  21.278  0.00  0.00    +0.000 A 
ATOM     16  C   UNL     1       1.429   3.281  21.239  0.00  0.00    +0.000 A 
ATOM     17  C   UNL     1       1.005   3.898  20.078  0.00  0.00    +0.000 A 
ATOM     18  C   UNL     1       1.846   3.930  18.965  0.00  0.00    +0.000 A 
ATOM     19  C   UNL     1       3.153   3.399  18.988  0.00  0.00    +0.000 A 
BRANCH  14  21
ATOM     20  C   UNL     1       5.065   1.260  21.248  0.00  0.00    +0.000 C 
ATOM     21  O   UNL     1       4.841   2.221  20.207  0.00  0.00    +0.000 OA
ENDBRANCH  14  21
ENDBRANCH   1  19
TORSDOF 3
ENDMDL
MODEL 3
REMARK VINA RESULT:      -7.4      5.572      7.167
REMARK  Name = 
REMARK  4 active torsions:
REMARK  status: ('A' for Active; 'I' for Inactive)
REMARK    1  A    between atoms: C_1  and  O_2
REMARK    2  A    between atoms: O_2  and  C_3
REMARK    3  A    between atoms: C_8  and  N_9
REMARK    4  A    between atoms: C_10  and  C_12
REMARK                            x       y       z     vdW  Elec       q    Type
REMARK                         _______ _______ _______ _____ _____    ______ ____
ROOT
ATOM      1  N   UNL     1       6.764   7.761  16.879  0.00  0.00    +0.000 N 
ATOM      2  C   UNL     1       7.781   8.016  17.783  0.00  0.00    +0.000 C 
ATOM      3  O   UNL     1       8.202   7.174  18.586  0.00  0.00    +0.000 OA
ATOM      4  H   UNL     1       6.686   8.332  16.041  0.00  0.00    +0.000 HD
ENDROOT
BRANCH   2   5
ATOM      5  C   UNL     1       8.469   9.405  17.862  0.00  0.00    +0.000 C 
ATOM      6  C   UNL     1       9.106   9.509  19.266  0.00  0.00    +0.000 C 
ATOM      7  C   UNL     1       9.659  10.871  19.126  0.00  0.00    +0.000 A 
ATOM      8  C   UNL     1      10.709  11.477  19.799  0.00  0.00    +0.000 A 
ATOM      9  C   UNL     1      11.086  12.755  19.397  0.00  0.00    +0.000 A 
ATOM     10  C   UNL     1      10.402  13.403  18.348  0.00  0.00    +0.000 A 
ATOM     11  C   UNL     1       9.316  12.788  17.704  0.00  0.00    +0.000 A 
ATOM     12  C   UNL     1       8.962  11.513  18.109  0.00  0.00    +0.000 A 
ATOM     13  O   UNL     1       7.973  10.708  17.548  0.00  0.00    +0.000 OA
ENDBRANCH   2   5
BRANCH   1  19
ATOM     14  C   UNL     1       6.313   5.437  16.086  0.00  0.00    +0.000 A 
ATOM     15  C   UNL     1       5.535   4.262  16.174  0.00  0.00    +0.000 A 
ATOM     16  C   UNL     1       4.474   4.154  17.072  0.00  0.00    +0.000 A 
ATOM     17  C   UNL     1       4.145   5.237  17.863  0.00  0.00    +0.000 A 
ATOM     18  C   UNL     1       4.878   6.420  17.756  0.00  0.00    +0.000 A 
ATOM     19  C   UNL     1       5.993   6.545  16.902  0.00  0.00    +0.000 A 
BRANCH  14  21
ATOM     20  C   UNL     1       7.264   4.833  13.999  0.00  0.00    +0.000 C 
ATOM     21  O   UNL     1       7.392   5.549  15.235  0.00  0.00    +0.000 OA
ENDBRANCH  14  21
ENDBRANCH   1  19
TORSDOF 3
ENDMDL
MODEL 4
REMARK VINA RESULT:      -7.2      1.304      2.246
REMARK  Name = 
REMARK  4 active torsions:
REMARK  status: ('A' for Active; 'I' for Inactive)
REMARK    1  A    between atoms: C_1  and  O_2
REMARK    2  A    between atoms: O_2  and  C_3
REMARK    3  A    between atoms: C_8  and  N_9
REMARK    4  A    between atoms: C_10  and  C_12
REMARK                            x       y       z     vdW  Elec       q    Type
REMARK                         _______ _______ _______ _____ _____    ______ ____
ROOT
ATOM      1  N   UNL     1       3.550   5.567  17.380  0.00  0.00    +0.000 N 
ATOM      2  C   UNL     1       4.923   5.698  17.256  0.00  0.00    +0.000 C 
ATOM      3  O   UNL     1       5.663   5.993  18.202  0.00  0.00    +0.000 OA
ATOM      4  H   UNL     1       3.038   5.009  16.700  0.00  0.00    +0.000 HD
ENDROOT
BRANCH   2   5
ATOM      5  C   UNL     1       5.640   5.491  15.895  0.00  0.00    +0.000 C 
ATOM      6  C   UNL     1       5.201   4.108  15.365  0.00  0.00    +0.000 C 
ATOM      7  C   UNL     1       5.998   4.117  14.121  0.00  0.00    +0.000 A 
ATOM      8  C   UNL     1       5.807   3.419  12.939  0.00  0.00    +0.000 A 
ATOM      9  C   UNL     1       6.666   3.692  11.878  0.00  0.00    +0.000 A 
ATOM     10  C   UNL     1       7.701   4.638  12.025  0.00  0.00    +0.000 A 
ATOM     11  C   UNL     1       7.902   5.307  13.243  0.00  0.00    +0.000 A 
ATOM     12  C   UNL     1       7.031   5.032  14.283  0.00  0.00    +0.000 A 
ATOM     13  O   UNL     1       7.014   5.642  15.535  0.00  0.00    +0.000 OA
ENDBRANCH   2   5
BRANCH   1  19
ATOM     14  C   UNL     1       2.432   4.955  19.526  0.00  0.00    +0.000 A 
ATOM     15  C   UNL     1       1.765   5.369  20.700  0.00  0.00    +0.000 A 
ATOM     16  C   UNL     1       1.528   6.716  20.968  0.00  0.00    +0.000 A 
ATOM     17  C   UNL     1       1.912   7.668  20.044  0.00  0.00    +0.000 A 
ATOM     18  C   UNL     1       2.533   7.270  18.859  0.00  0.00    +0.000 A 
ATOM     19  C   UNL     1       2.842   5.922  18.581  0.00  0.00    +0.000 A 
BRANCH  14  21
ATOM     20  C   UNL     1       1.568   2.813  18.987  0.00  0.00    +0.000 C 
ATOM     21  O   UNL     1       2.713   3.632  19.262  0.00  0.00    +0.000 OA
ENDBRANCH  14  21
ENDBRANCH   1  19
TORSDOF 3
ENDMDL
MODEL 5
REMARK VINA RESULT:      -7.2      1.434      1.942
REMARK  Name = 
REMARK  4 active torsions:
REMARK  status: ('A' for Active; 'I' for Inactive)
REMARK    1  A    between atoms: C_1  and  O_2
REMARK    2  A    between atoms: O_2  and  C_3
REMARK    3  A    between atoms: C_8  and  N_9
REMARK    4  A    between atoms: C_10  and  C_12
REMARK                            x       y       z     vdW  Elec       q    Type
REMARK                         _______ _______ _______ _____ _____    ______ ____
ROOT
ATOM      1  N   UNL     1       3.621   5.642  17.386  0.00  0.00    +0.000 N 
ATOM      2  C   UNL     1       4.990   5.772  17.229  0.00  0.00    +0.000 C 
ATOM      3  O   UNL     1       5.751   6.093  18.150  0.00  0.00    +0.000 OA
ATOM      4  H   UNL     1       3.096   5.066  16.732  0.00  0.00    +0.000 HD
ENDROOT
BRANCH   2   5
ATOM      5  C   UNL     1       5.677   5.533  15.858  0.00  0.00    +0.000 C 
ATOM      6  C   UNL     1       5.222   4.140  15.368  0.00  0.00    +0.000 C 
ATOM      7  C   UNL     1       5.992   4.119  14.107  0.00  0.00    +0.000 A 
ATOM      8  C   UNL     1       5.773   3.396  12.945  0.00  0.00    +0.000 A 
ATOM      9  C   UNL     1       6.611   3.641  11.861  0.00  0.00    +0.000 A 
ATOM     10  C   UNL     1       7.653   4.586  11.964  0.00  0.00    +0.000 A 
ATOM     11  C   UNL     1       7.882   5.281  13.163  0.00  0.00    +0.000 A 
ATOM     12  C   UNL     1       7.032   5.032  14.227  0.00  0.00    +0.000 A 
ATOM     13  O   UNL     1       7.045   5.670  15.465  0.00  0.00    +0.000 OA
ENDBRANCH   2   5
BRANCH   1  19
ATOM     14  C   UNL     1       2.540   7.358  18.841  0.00  0.00    +0.000 A 
ATOM     15  C   UNL     1       1.849   7.668  20.033  0.00  0.00    +0.000 A 
ATOM     16  C   UNL     1       1.520   6.682  20.962  0.00  0.00    +0.000 A 
ATOM     17  C   UNL     1       1.918   5.379  20.737  0.00  0.00    +0.000 A 
ATOM     18  C   UNL     1       2.639   5.066  19.584  0.00  0.00    +0.000 A 
ATOM     19  C   UNL     1       2.939   6.026  18.594  0.00  0.00    +0.000 A 
BRANCH  14  21
ATOM     20  C   UNL     1       1.963   9.446  17.876  0.00  0.00    +0.000 C 
ATOM     21  O   UNL     1       2.838   8.311  17.890  0.00  0.00    +0.000 OA
ENDBRANCH  14  21
ENDBRANCH   1  19
TORSDOF 3
ENDMDL
MODEL 6
REMARK VINA RESULT:      -7.2      1.065      2.013
REMARK  Name = 
REMARK  4 active torsions:
REMARK  status: ('A' for Active; 'I' for Inactive)
REMARK    1  A    between atoms: C_1  and  O_2
REMARK    2  A    between atoms: O_2  and  C_3
REMARK    3  A    between atoms: C_8  and  N_9
REMARK    4  A    between atoms: C_10  and  C_12
REMARK                            x       y       z     vdW  Elec       q    Type
REMARK                         _______ _______ _______ _____ _____    ______ ____
ROOT
ATOM      1  N   UNL     1       3.994   4.195  17.576  0.00  0.00    +0.000 N 
ATOM      2  C   UNL     1       5.197   4.852  17.387  0.00  0.00    +0.000 C 
ATOM      3  O   UNL     1       5.827   5.391  18.306  0.00  0.00    +0.000 OA
ATOM      4  H   UNL     1       3.694   3.497  16.899  0.00  0.00    +0.000 HD
ENDROOT
BRANCH   2   5
ATOM      5  C   UNL     1       5.846   4.972  15.982  0.00  0.00    +0.000 C 
ATOM      6  C   UNL     1       5.604   3.627  15.263  0.00  0.00    +0.000 C 
ATOM      7  C   UNL     1       6.304   3.954  14.003  0.00  0.00    +0.000 A 
ATOM      8  C   UNL     1       6.151   3.414  12.736  0.00  0.00    +0.000 A 
ATOM      9  C   UNL     1       6.882   3.981  11.696  0.00  0.00    +0.000 A 
ATOM     10  C   UNL     1       7.756   5.059  11.945  0.00  0.00    +0.000 A 
ATOM     11  C   UNL     1       7.926   5.568  13.243  0.00  0.00    +0.000 A 
ATOM     12  C   UNL     1       7.183   4.999  14.263  0.00  0.00    +0.000 A 
ATOM     13  O   UNL     1       7.151   5.408  15.593  0.00  0.00    +0.000 OA
ENDBRANCH   2   5
BRANCH   1  19
ATOM     14  C   UNL     1       3.424   3.194  19.791  0.00  0.00    +0.000 A 
ATOM     15  C   UNL     1       2.723   3.288  21.013  0.00  0.00    +0.000 A 
ATOM     16  C   UNL     1       1.919   4.387  21.310  0.00  0.00    +0.000 A 
ATOM     17  C   UNL     1       1.766   5.387  20.371  0.00  0.00    +0.000 A 
ATOM     18  C   UNL     1       2.418   5.287  19.141  0.00  0.00    +0.000 A 
ATOM     19  C   UNL     1       3.285   4.219  18.829  0.00  0.00    +0.000 A 
BRANCH  14  21
ATOM     20  C   UNL     1       3.698   1.155  18.610  0.00  0.00    +0.000 C 
ATOM     21  O   UNL     1       4.257   2.136  19.495  0.00  0.00    +0.000 OA
ENDBRANCH  14  21
ENDBRANCH   1  19
TORSDOF 3
ENDMDL
MODEL 7
REMARK VINA RESULT:      -7.0      2.688      7.569
REMARK  Name = 
REMARK  4 active torsions:
REMARK  status: ('A' for Active; 'I' for Inactive)
REMARK    1  A    between atoms: C_1  and  O_2
REMARK    2  A    between atoms: O_2  and  C_3
REMARK    3  A    between atoms: C_8  and  N_9
REMARK    4  A    between atoms: C_10  and  C_12
REMARK                            x       y       z     vdW  Elec       q    Type
REMARK                         _______ _______ _______ _____ _____    ______ ____
ROOT
ATOM      1  N   UNL     1       4.520   6.725  17.754  0.00  0.00    +0.000 N 
ATOM      2  C   UNL     1       3.251   6.308  18.120  0.00  0.00    +0.000 C 
ATOM      3  O   UNL     1       2.819   5.172  17.892  0.00  0.00    +0.000 OA
ATOM      4  H   UNL     1       4.948   7.509  18.243  0.00  0.00    +0.000 HD
ENDROOT
BRANCH   2   5
ATOM      5  C   UNL     1       2.261   7.258  18.844  0.00  0.00    +0.000 C 
ATOM      6  C   UNL     1       2.247   8.581  18.046  0.00  0.00    +0.000 C 
ATOM      7  C   UNL     1       1.291   9.313  18.903  0.00  0.00    +0.000 A 
ATOM      8  C   UNL     1       0.472  10.389  18.601  0.00  0.00    +0.000 A 
ATOM      9  C   UNL     1      -0.412  10.827  19.583  0.00  0.00    +0.000 A 
ATOM     10  C   UNL     1      -0.448  10.196  20.843  0.00  0.00    +0.000 A 
ATOM     11  C   UNL     1       0.417   9.130  21.143  0.00  0.00    +0.000 A 
ATOM     12  C   UNL     1       1.281   8.700  20.151  0.00  0.00    +0.000 A 
ATOM     13  O   UNL     1       2.156   7.619  20.223  0.00  0.00    +0.000 OA
ENDBRANCH   2   5
BRANCH   1  19
ATOM     14  C   UNL     1       6.403   5.110  17.481  0.00  0.00    +0.000 A 
ATOM     15  C   UNL     1       7.209   4.329  16.623  0.00  0.00    +0.000 A 
ATOM     16  C   UNL     1       7.009   4.321  15.243  0.00  0.00    +0.000 A 
ATOM     17  C   UNL     1       6.032   5.128  14.696  0.00  0.00    +0.000 A 
ATOM     18  C   UNL     1       5.257   5.937  15.528  0.00  0.00    +0.000 A 
ATOM     19  C   UNL     1       5.391   5.928  16.932  0.00  0.00    +0.000 A 
BRANCH  14  21
ATOM     20  C   UNL     1       7.748   5.738  19.331  0.00  0.00    +0.000 C 
ATOM     21  O   UNL     1       6.557   5.101  18.851  0.00  0.00    +0.000 OA
ENDBRANCH  14  21
ENDBRANCH   1  19
TORSDOF 3
ENDMDL
MODEL 8
REMARK VINA RESULT:      -6.9      5.582      6.860
REMARK  Name = 
REMARK  4 active torsions:
REMARK  status: ('A' for Active; 'I' for Inactive)
REMARK    1  A    between atoms: C_1  and  O_2
REMARK    2  A    between atoms: O_2  and  C_3
REMARK    3  A    between atoms: C_8  and  N_9
REMARK    4  A    between atoms: C_10  and  C_12
REMARK                            x       y       z     vdW  Elec       q    Type
REMARK                         _______ _______ _______ _____ _____    ______ ____
ROOT
ATOM      1  N   UNL     1       6.888   7.623  16.797  0.00  0.00    +0.000 N 
ATOM      2  C   UNL     1       7.814   7.942  17.775  0.00  0.00    +0.000 C 
ATOM      3  O   UNL     1       8.189   7.142  18.641  0.00  0.00    +0.000 OA
ATOM      4  H   UNL     1       6.866   8.164  15.935  0.00  0.00    +0.000 HD
ENDROOT
BRANCH   2   5
ATOM      5  C   UNL     1       8.450   9.355  17.864  0.00  0.00    +0.000 C 
ATOM      6  C   UNL     1       9.082   9.474  19.268  0.00  0.00    +0.000 C 
ATOM      7  C   UNL     1       9.585  10.857  19.137  0.00  0.00    +0.000 A 
ATOM      8  C   UNL     1      10.611  11.496  19.815  0.00  0.00    +0.000 A 
ATOM      9  C   UNL     1      10.941  12.790  19.421  0.00  0.00    +0.000 A 
ATOM     10  C   UNL     1      10.233  13.420  18.376  0.00  0.00    +0.000 A 
ATOM     11  C   UNL     1       9.171  12.768  17.727  0.00  0.00    +0.000 A 
ATOM     12  C   UNL     1       8.864  11.478  18.124  0.00  0.00    +0.000 A 
ATOM     13  O   UNL     1       7.906  10.642  17.558  0.00  0.00    +0.000 OA
ENDBRANCH   2   5
BRANCH   1  19
ATOM     14  C   UNL     1       4.811   6.306  17.221  0.00  0.00    +0.000 A 
ATOM     15  C   UNL     1       4.136   5.066  17.171  0.00  0.00    +0.000 A 
ATOM     16  C   UNL     1       4.757   3.918  16.680  0.00  0.00    +0.000 A 
ATOM     17  C   UNL     1       6.076   3.982  16.276  0.00  0.00    +0.000 A 
ATOM     18  C   UNL     1       6.767   5.191  16.361  0.00  0.00    +0.000 A 
ATOM     19  C   UNL     1       6.155   6.385  16.797  0.00  0.00    +0.000 A 
BRANCH  14  21
ATOM     20  C   UNL     1       2.864   7.293  18.149  0.00  0.00    +0.000 C 
ATOM     21  O   UNL     1       4.202   7.461  17.664  0.00  0.00    +0.000 OA
ENDBRANCH  14  21
ENDBRANCH   1  19
TORSDOF 3
ENDMDL
MODEL 9
REMARK VINA RESULT:      -6.9      3.879      8.286
REMARK  Name = 
REMARK  4 active torsions:
REMARK  status: ('A' for Active; 'I' for Inactive)
REMARK    1  A    between atoms: C_1  and  O_2
REMARK    2  A    between atoms: O_2  and  C_3
REMARK    3  A    between atoms: C_8  and  N_9
REMARK    4  A    between atoms: C_10  and  C_12
REMARK                            x       y       z     vdW  Elec       q    Type
REMARK                         _______ _______ _______ _____ _____    ______ ____
ROOT
ATOM      1  N   UNL     1       2.664   6.718  19.072  0.00  0.00    +0.000 N 
ATOM      2  C   UNL     1       1.922   6.940  20.219  0.00  0.00    +0.000 C 
ATOM      3  O   UNL     1       1.608   6.040  21.008  0.00  0.00    +0.000 OA
ATOM      4  H   UNL     1       3.178   7.489  18.652  0.00  0.00    +0.000 HD
ENDROOT
BRANCH   2   5
ATOM      5  C   UNL     1       1.414   8.357  20.597  0.00  0.00    +0.000 C 
ATOM      6  C   UNL     1       0.221   8.161  21.559  0.00  0.00    +0.000 C 
ATOM      7  C   UNL     1      -0.103   9.589  21.756  0.00  0.00    +0.000 A 
ATOM      8  C   UNL     1      -0.768  10.213  22.800  0.00  0.00    +0.000 A 
ATOM      9  C   UNL     1      -0.853  11.602  22.778  0.00  0.00    +0.000 A 
ATOM     10  C   UNL     1      -0.290  12.334  21.712  0.00  0.00    +0.000 A 
ATOM     11  C   UNL     1       0.348  11.681  20.644  0.00  0.00    +0.000 A 
ATOM     12  C   UNL     1       0.433  10.300  20.688  0.00  0.00    +0.000 A 
ATOM     13  O   UNL     1       1.087   9.479  19.774  0.00  0.00    +0.000 OA
ENDBRANCH   2   5
BRANCH   1  19
ATOM     14  C   UNL     1       4.223   4.774  18.929  0.00  0.00    +0.000 A 
ATOM     15  C   UNL     1       4.481   3.464  18.467  0.00  0.00    +0.000 A 
ATOM     16  C   UNL     1       3.538   2.755  17.723  0.00  0.00    +0.000 A 
ATOM     17  C   UNL     1       2.343   3.361  17.391  0.00  0.00    +0.000 A 
ATOM     18  C   UNL     1       2.093   4.670  17.805  0.00  0.00    +0.000 A 
ATOM     19  C   UNL     1       2.997   5.397  18.607  0.00  0.00    +0.000 A 
BRANCH  14  21
ATOM     20  C   UNL     1       6.469   5.484  19.204  0.00  0.00    +0.000 C 
ATOM     21  O   UNL     1       5.124   5.476  19.700  0.00  0.00    +0.000 OA
ENDBRANCH  14  21
ENDBRANCH   1  19
TORSDOF 3
ENDMDL
