MODEL 1
REMARK VINA RESULT:      -7.3      0.000      0.000
REMARK  Name = 
REMARK  6 active torsions:
REMARK  status: ('A' for Active; 'I' for Inactive)
REMARK    1  A    between atoms: C_1  and  C_2
REMARK    2  A    between atoms: C_2  and  N_3
REMARK    3  A    between atoms: C_2  and  C_22
REMARK    4  A    between atoms: C_4  and  C_6
REMARK    5  A    between atoms: C_6  and  N_7
REMARK    6  A    between atoms: C_8  and  C_9
REMARK                            x       y       z     vdW  Elec       q    Type
REMARK                         _______ _______ _______ _____ _____    ______ ____
ROOT
ATOM      1  C   UNL     1       3.834   6.420  19.411  0.00  0.00    +0.000 C 
ENDROOT
BRANCH   1   2
ATOM      2  N   UNL     1       4.078   5.371  18.413  0.00  0.00    +0.000 N 
ATOM      3  C   UNL     1       3.456   4.121  18.463  0.00  0.00    +0.000 A 
ATOM      4  C   UNL     1       3.851   3.433  17.329  0.00  0.00    +0.000 A 
ATOM      5  C   UNL     1       4.723   4.246  16.573  0.00  0.00    +0.000 A 
ATOM      6  C   UNL     1       5.403   4.046  15.352  0.00  0.00    +0.000 A 
ATOM      7  C   UNL     1       6.215   5.055  14.841  0.00  0.00    +0.000 A 
ATOM      8 CL   UNL     1       7.044   4.817  13.351  0.00  0.00    +0.000 Cl
ATOM      9  C   UNL     1       6.372   6.244  15.528  0.00  0.00    +0.000 A 
ATOM     10  C   UNL     1       5.725   6.451  16.749  0.00  0.00    +0.000 A 
ATOM     11  C   UNL     1       4.874   5.452  17.268  0.00  0.00    +0.000 A 
BRANCH   3  12
ATOM     12  C   UNL     1       2.554   3.627  19.488  0.00  0.00    +0.000 A 
ATOM     13  C   UNL     1       1.184   3.782  19.609  0.00  0.00    +0.000 A 
ATOM     14  C   UNL     1       0.650   3.170  20.785  0.00  0.00    +0.000 A 
ATOM     15  C   UNL     1       1.632   2.597  21.557  0.00  0.00    +0.000 A 
ATOM     16  S   UNL     1       3.174   2.756  20.844  0.00  0.00    +0.000 S 
ENDBRANCH   3  12
ENDBRANCH   1   2
BRANCH   1  18
ATOM     17  N   UNL     1       1.993   7.645  20.454  0.00  0.00    +0.000 N 
ATOM     18  C   UNL     1       2.572   7.231  19.274  0.00  0.00    +0.000 C 
ATOM     19  O   UNL     1       2.067   7.462  18.178  0.00  0.00    +0.000 OA
ATOM     20  H   UNL     1       2.566   7.718  21.284  0.00  0.00    +0.000 HD
BRANCH  17  22
ATOM     21  C   UNL     1      -0.227   7.822  21.436  0.00  0.00    +0.000 C 
ATOM     22  C   UNL     1       0.743   8.411  20.423  0.00  0.00    +0.000 C 
BRANCH  22  23
ATOM     23  C   UNL     1       1.074   9.896  20.708  0.00  0.00    +0.000 C 
ATOM     24  O   UNL     1       1.648  10.195  21.763  0.00  0.00    +0.000 OA
ATOM     25  N   UNL     1       0.702  10.860  19.778  0.00  0.00    +0.000 N 
ATOM     26  C   UNL     1       1.316  12.187  19.879  0.00  0.00    +0.000 C 
ATOM     27  C   UNL     1       0.286  13.292  19.685  0.00  0.00    +0.000 C 
ATOM     28  C   UNL     1      -0.482  13.106  18.380  0.00  0.00    +0.000 C 
ATOM     29  C   UNL     1      -1.074  11.701  18.287  0.00  0.00    +0.000 C 
ATOM     30  C   UNL     1      -0.021  10.617  18.529  0.00  0.00    +0.000 C 
ENDBRANCH  22  23
ENDBRANCH  17  22
ENDBRANCH   1  18
TORSDOF 5
ENDMDL
MODEL 2
REMARK VINA RESULT:      -7.2      4.223      7.192
REMARK  Name = 
REMARK  6 active torsions:
REMARK  status: ('A' for Active; 'I' for Inactive)
REMARK    1  A    between atoms: C_1  and  C_2
REMARK    2  A    between atoms: C_2  and  N_3
REMARK    3  A    between atoms: C_2  and  C_22
REMARK    4  A    between atoms: C_4  and  C_6
REMARK    5  A    between atoms: C_6  and  N_7
REMARK    6  A    between atoms: C_8  and  C_9
REMARK                            x       y       z     vdW  Elec       q    Type
REMARK                         _______ _______ _______ _____ _____    ______ ____
ROOT
ATOM      1  C   UNL     1       0.317  11.736  18.706  0.00  0.00    +0.000 C 
ENDROOT
BRANCH   1   2
ATOM      2  N   UNL     1       0.672  10.611  19.580  0.00  0.00    +0.000 N 
ATOM      3  C   UNL     1       0.352  10.580  20.939  0.00  0.00    +0.000 A 
ATOM      4  C   UNL     1       0.758   9.346  21.417  0.00  0.00    +0.000 A 
ATOM      5  C   UNL     1       1.337   8.608  20.362  0.00  0.00    +0.000 A 
ATOM      6  C   UNL     1       1.902   7.316  20.293  0.00  0.00    +0.000 A 
ATOM      7  C   UNL     1       2.409   6.848  19.084  0.00  0.00    +0.000 A 
ATOM      8 CL   UNL     1       3.096   5.272  18.994  0.00  0.00    +0.000 Cl
ATOM      9  C   UNL     1       2.375   7.644  17.955  0.00  0.00    +0.000 A 
ATOM     10  C   UNL     1       1.841   8.934  18.009  0.00  0.00    +0.000 A 
ATOM     11  C   UNL     1       1.296   9.415  19.219  0.00  0.00    +0.000 A 
BRANCH   3  12
ATOM     12  C   UNL     1      -0.298  11.622  21.715  0.00  0.00    +0.000 A 
ATOM     13  C   UNL     1      -1.407  11.549  22.540  0.00  0.00    +0.000 A 
ATOM     14  C   UNL     1      -1.766  12.808  23.111  0.00  0.00    +0.000 A 
ATOM     15  C   UNL     1      -0.947  13.822  22.677  0.00  0.00    +0.000 A 
ATOM     16  S   UNL     1       0.270  13.250  21.628  0.00  0.00    +0.000 S 
ENDBRANCH   3  12
ENDBRANCH   1   2
BRANCH   1  18
ATOM     17  N   UNL     1      -1.410  11.040  17.121  0.00  0.00    +0.000 N 
ATOM     18  C   UNL     1      -1.107  11.816  18.219  0.00  0.00    +0.000 C 
ATOM     19  O   UNL     1      -1.927  12.568  18.740  0.00  0.00    +0.000 OA
ATOM     20  H   UNL     1      -0.840  10.230  16.919  0.00  0.00    +0.000 HD
BRANCH  17  22
ATOM     21  C   UNL     1      -2.750  10.395  15.194  0.00  0.00    +0.000 C 
ATOM     22  C   UNL     1      -2.762  11.077  16.554  0.00  0.00    +0.000 C 
BRANCH  22  23
ATOM     23  C   UNL     1      -3.729  10.398  17.554  0.00  0.00    +0.000 C 
ATOM     24  O   UNL     1      -3.497   9.240  17.926  0.00  0.00    +0.000 OA
ATOM     25  N   UNL     1      -4.845  11.098  17.995  0.00  0.00    +0.000 N 
ATOM     26  C   UNL     1      -5.546  10.601  19.182  0.00  0.00    +0.000 C 
ATOM     27  C   UNL     1      -7.057  10.639  18.991  0.00  0.00    +0.000 C 
ATOM     28  C   UNL     1      -7.525  12.032  18.584  0.00  0.00    +0.000 C 
ATOM     29  C   UNL     1      -6.748  12.540  17.370  0.00  0.00    +0.000 C 
ATOM     30  C   UNL     1      -5.234  12.447  17.579  0.00  0.00    +0.000 C 
ENDBRANCH  22  23
ENDBRANCH  17  22
ENDBRANCH   1  18
TORSDOF 5
ENDMDL
MODEL 3
REMARK VINA RESULT:      -6.5      1.410      1.656
REMARK  Name = 
REMARK  6 active torsions:
REMARK  status: ('A' for Active; 'I' for Inactive)
REMARK    1  A    between atoms: C_1  and  C_2
REMARK    2  A    between atoms: C_2  and  N_3
REMARK    3  A    between atoms: C_2  and  C_22
REMARK    4  A    between atoms: C_4  and  C_6
REMARK    5  A    between atoms: C_6  and  N_7
REMARK    6  A    between atoms: C_8  and  C_9
REMARK                            x       y       z     vdW  Elec       q    Type
REMARK                         _______ _______ _______ _____ _____    ______ ____
ROOT
ATOM      1  C   UNL     1       3.257   6.586  18.953  0.00  0.00    +0.000 C 
ENDROOT
BRANCH   1   2
ATOM      2  N   UNL     1       3.747   5.485  18.116  0.00  0.00    +0.000 N 
ATOM      3  C   UNL     1       3.318   4.165  18.275  0.00  0.00    +0.000 A 
ATOM      4  C   UNL     1       3.916   3.426  17.270  0.00  0.00    +0.000 A 
ATOM      5  C   UNL     1       4.723   4.278  16.485  0.00  0.00    +0.000 A 
ATOM      6  C   UNL     1       5.537   4.054  15.353  0.00  0.00    +0.000 A 
ATOM      7  C   UNL     1       6.233   5.116  14.783  0.00  0.00    +0.000 A 
ATOM      8 CL   UNL     1       7.224   4.848  13.401  0.00  0.00    +0.000 Cl
ATOM      9  C   UNL     1       6.145   6.384  15.325  0.00  0.00    +0.000 A 
ATOM     10  C   UNL     1       5.362   6.621  16.458  0.00  0.00    +0.000 A 
ATOM     11  C   UNL     1       4.626   5.562  17.033  0.00  0.00    +0.000 A 
BRANCH   3  12
ATOM     12  C   UNL     1       2.408   3.651  19.284  0.00  0.00    +0.000 A 
ATOM     13  C   UNL     1       1.024   3.636  19.300  0.00  0.00    +0.000 A 
ATOM     14  C   UNL     1       0.482   3.067  20.494  0.00  0.00    +0.000 A 
ATOM     15  C   UNL     1       1.465   2.699  21.380  0.00  0.00    +0.000 A 
ATOM     16  S   UNL     1       3.025   2.993  20.756  0.00  0.00    +0.000 S 
ENDBRANCH   3  12
ENDBRANCH   1   2
BRANCH   1  18
ATOM     17  N   UNL     1       1.865   8.595  19.038  0.00  0.00    +0.000 N 
ATOM     18  C   UNL     1       2.647   7.774  18.254  0.00  0.00    +0.000 C 
ATOM     19  O   UNL     1       2.800   7.964  17.050  0.00  0.00    +0.000 OA
ATOM     20  H   UNL     1       2.009   8.603  20.039  0.00  0.00    +0.000 HD
BRANCH  17  22
ATOM     21  C   UNL     1      -0.114   9.316  17.819  0.00  0.00    +0.000 C 
ATOM     22  C   UNL     1       1.203   9.758  18.438  0.00  0.00    +0.000 C 
BRANCH  22  23
ATOM     23  C   UNL     1       1.016  10.832  19.536  0.00  0.00    +0.000 C 
ATOM     24  O   UNL     1       0.280  10.588  20.502  0.00  0.00    +0.000 OA
ATOM     25  N   UNL     1       1.665  12.055  19.402  0.00  0.00    +0.000 N 
ATOM     26  C   UNL     1       1.769  12.913  20.586  0.00  0.00    +0.000 C 
ATOM     27  C   UNL     1       1.471  14.367  20.245  0.00  0.00    +0.000 C 
ATOM     28  C   UNL     1       2.348  14.855  19.097  0.00  0.00    +0.000 C 
ATOM     29  C   UNL     1       2.250  13.917  17.895  0.00  0.00    +0.000 C 
ATOM     30  C   UNL     1       2.513  12.460  18.281  0.00  0.00    +0.000 C 
ENDBRANCH  22  23
ENDBRANCH  17  22
ENDBRANCH   1  18
TORSDOF 5
ENDMDL
MODEL 4
REMARK VINA RESULT:      -6.4      1.049      1.308
REMARK  Name = 
REMARK  6 active torsions:
REMARK  status: ('A' for Active; 'I' for Inactive)
REMARK    1  A    between atoms: C_1  and  C_2
REMARK    2  A    between atoms: C_2  and  N_3
REMARK    3  A    between atoms: C_2  and  C_22
REMARK    4  A    between atoms: C_4  and  C_6
REMARK    5  A    between atoms: C_6  and  N_7
REMARK    6  A    between atoms: C_8  and  C_9
REMARK                            x       y       z     vdW  Elec       q    Type
REMARK                         _______ _______ _______ _____ _____    ______ ____
ROOT
ATOM      1  C   UNL     1       3.783   6.333  18.958  0.00  0.00    +0.000 C 
ENDROOT
BRANCH   1   2
ATOM      2  N   UNL     1       4.050   5.211  18.049  0.00  0.00    +0.000 N 
ATOM      3  C   UNL     1       3.445   3.960  18.195  0.00  0.00    +0.000 A 
ATOM      4  C   UNL     1       3.859   3.189  17.123  0.00  0.00    +0.000 A 
ATOM      5  C   UNL     1       4.726   3.951  16.311  0.00  0.00    +0.000 A 
ATOM      6  C   UNL     1       5.419   3.664  15.114  0.00  0.00    +0.000 A 
ATOM      7  C   UNL     1       6.222   4.641  14.531  0.00  0.00    +0.000 A 
ATOM      8 CL   UNL     1       7.067   4.296  13.071  0.00  0.00    +0.000 Cl
ATOM      9  C   UNL     1       6.356   5.883  15.121  0.00  0.00    +0.000 A 
ATOM     10  C   UNL     1       5.696   6.178  16.316  0.00  0.00    +0.000 A 
ATOM     11  C   UNL     1       4.854   5.211  16.908  0.00  0.00    +0.000 A 
BRANCH   3  12
ATOM     12  C   UNL     1       2.541   3.536  19.250  0.00  0.00    +0.000 A 
ATOM     13  C   UNL     1       1.170   3.691  19.353  0.00  0.00    +0.000 A 
ATOM     14  C   UNL     1       0.634   3.164  20.569  0.00  0.00    +0.000 A 
ATOM     15  C   UNL     1       1.616   2.655  21.384  0.00  0.00    +0.000 A 
ATOM     16  S   UNL     1       3.160   2.771  20.668  0.00  0.00    +0.000 S 
ENDBRANCH   3  12
ENDBRANCH   1   2
BRANCH   1  18
ATOM     17  N   UNL     1       2.138   8.126  19.198  0.00  0.00    +0.000 N 
ATOM     18  C   UNL     1       3.086   7.540  18.387  0.00  0.00    +0.000 C 
ATOM     19  O   UNL     1       3.316   7.941  17.249  0.00  0.00    +0.000 OA
ATOM     20  H   UNL     1       2.192   7.985  20.199  0.00  0.00    +0.000 HD
BRANCH  17  22
ATOM     21  C   UNL     1       0.435   8.840  17.613  0.00  0.00    +0.000 C 
ATOM     22  C   UNL     1       1.383   9.286  18.716  0.00  0.00    +0.000 C 
BRANCH  22  23
ATOM     23  C   UNL     1       0.644   9.921  19.918  0.00  0.00    +0.000 C 
ATOM     24  O   UNL     1       0.280   9.198  20.854  0.00  0.00    +0.000 OA
ATOM     25  N   UNL     1       0.391  11.288  19.909  0.00  0.00    +0.000 N 
ATOM     26  C   UNL     1       0.019  11.928  21.174  0.00  0.00    +0.000 C 
ATOM     27  C   UNL     1      -1.134  12.906  20.984  0.00  0.00    +0.000 C 
ATOM     28  C   UNL     1      -0.819  13.922  19.891  0.00  0.00    +0.000 C 
ATOM     29  C   UNL     1      -0.395  13.225  18.599  0.00  0.00    +0.000 C 
ATOM     30  C   UNL     1       0.735  12.220  18.834  0.00  0.00    +0.000 C 
ENDBRANCH  22  23
ENDBRANCH  17  22
ENDBRANCH   1  18
TORSDOF 5
ENDMDL
MODEL 5
REMARK VINA RESULT:      -6.4      5.378      8.263
REMARK  Name = 
REMARK  6 active torsions:
REMARK  status: ('A' for Active; 'I' for Inactive)
REMARK    1  A    between atoms: C_1  and  C_2
REMARK    2  A    between atoms: C_2  and  N_3
REMARK    3  A    between atoms: C_2  and  C_22
REMARK    4  A    between atoms: C_4  and  C_6
REMARK    5  A    between atoms: C_6  and  N_7
REMARK    6  A    between atoms: C_8  and  C_9
REMARK                            x       y       z     vdW  Elec       q    Type
REMARK                         _______ _______ _______ _____ _____    ______ ____
ROOT
ATOM      1  C   UNL     1      -1.752  12.529  19.881  0.00  0.00    +0.000 C 
ENDROOT
BRANCH   1   2
ATOM      2  N   UNL     1      -1.009  11.566  20.704  0.00  0.00    +0.000 N 
ATOM      3  C   UNL     1      -1.122  11.517  22.095  0.00  0.00    +0.000 A 
ATOM      4  C   UNL     1      -0.357  10.444  22.519  0.00  0.00    +0.000 A 
ATOM      5  C   UNL     1       0.238   9.826  21.399  0.00  0.00    +0.000 A 
ATOM      6  C   UNL     1       1.094   8.712  21.260  0.00  0.00    +0.000 A 
ATOM      7  C   UNL     1       1.531   8.331  19.994  0.00  0.00    +0.000 A 
ATOM      8 CL   UNL     1       2.572   6.971  19.819  0.00  0.00    +0.000 Cl
ATOM      9  C   UNL     1       1.144   9.043  18.875  0.00  0.00    +0.000 A 
ATOM     10  C   UNL     1       0.315  10.162  18.995  0.00  0.00    +0.000 A 
ATOM     11  C   UNL     1      -0.161  10.547  20.267  0.00  0.00    +0.000 A 
BRANCH   3  12
ATOM     12  C   UNL     1      -1.898  12.399  22.948  0.00  0.00    +0.000 A 
ATOM     13  C   UNL     1      -3.172  12.235  23.462  0.00  0.00    +0.000 A 
ATOM     14  C   UNL     1      -3.612  13.350  24.241  0.00  0.00    +0.000 A 
ATOM     15  C   UNL     1      -2.679  14.358  24.269  0.00  0.00    +0.000 A 
ATOM     16  S   UNL     1      -1.269  13.942  23.404  0.00  0.00    +0.000 S 
ENDBRANCH   3  12
ENDBRANCH   1   2
BRANCH   1  18
ATOM     17  N   UNL     1      -0.827  14.788  19.737  0.00  0.00    +0.000 N 
ATOM     18  C   UNL     1      -0.954  13.560  19.125  0.00  0.00    +0.000 C 
ATOM     19  O   UNL     1      -0.491  13.330  18.010  0.00  0.00    +0.000 OA
ATOM     20  H   UNL     1      -0.933  14.851  20.741  0.00  0.00    +0.000 HD
BRANCH  17  22
ATOM     21  C   UNL     1      -1.018  17.064  18.897  0.00  0.00    +0.000 C 
ATOM     22  C   UNL     1      -0.096  15.866  19.063  0.00  0.00    +0.000 C 
BRANCH  22  23
ATOM     23  C   UNL     1       1.166  16.195  19.897  0.00  0.00    +0.000 C 
ATOM     24  O   UNL     1       1.051  16.882  20.920  0.00  0.00    +0.000 OA
ATOM     25  N   UNL     1       2.401  15.725  19.465  0.00  0.00    +0.000 N 
ATOM     26  C   UNL     1       3.513  15.735  20.418  0.00  0.00    +0.000 C 
ATOM     27  C   UNL     1       4.797  16.238  19.770  0.00  0.00    +0.000 C 
ATOM     28  C   UNL     1       5.123  15.445  18.508  0.00  0.00    +0.000 C 
ATOM     29  C   UNL     1       3.930  15.419  17.553  0.00  0.00    +0.000 C 
ATOM     30  C   UNL     1       2.649  14.951  18.248  0.00  0.00    +0.000 C 
ENDBRANCH  22  23
ENDBRANCH  17  22
ENDBRANCH   1  18
TORSDOF 5
ENDMDL
MODEL 6
REMARK VINA RESULT:      -6.3      3.515      8.416
REMARK  Name = 
REMARK  6 active torsions:
REMARK  status: ('A' for Active; 'I' for Inactive)
REMARK    1  A    between atoms: C_1  and  C_2
REMARK    2  A    between atoms: C_2  and  N_3
REMARK    3  A    between atoms: C_2  and  C_22
REMARK    4  A    between atoms: C_4  and  C_6
REMARK    5  A    between atoms: C_6  and  N_7
REMARK    6  A    between atoms: C_8  and  C_9
REMARK                            x       y       z     vdW  Elec       q    Type
REMARK                         _______ _______ _______ _____ _____    ______ ____
ROOT
ATOM      1  C   UNL     1      -0.311  10.859  20.837  0.00  0.00    +0.000 C 
ENDROOT
BRANCH   1   2
ATOM      2  N   UNL     1      -0.030  11.966  19.914  0.00  0.00    +0.000 N 
ATOM      3  C   UNL     1      -0.817  12.230  18.790  0.00  0.00    +0.000 A 
ATOM      4  C   UNL     1      -0.314  13.383  18.213  0.00  0.00    +0.000 A 
ATOM      5  C   UNL     1       0.789  13.836  18.969  0.00  0.00    +0.000 A 
ATOM      6  C   UNL     1       1.654  14.945  18.833  0.00  0.00    +0.000 A 
ATOM      7  C   UNL     1       2.679  15.136  19.754  0.00  0.00    +0.000 A 
ATOM      8 CL   UNL     1       3.735  16.488  19.595  0.00  0.00    +0.000 Cl
ATOM      9  C   UNL     1       2.866  14.243  20.792  0.00  0.00    +0.000 A 
ATOM     10  C   UNL     1       2.034  13.128  20.929  0.00  0.00    +0.000 A 
ATOM     11  C   UNL     1       0.971  12.933  20.022  0.00  0.00    +0.000 A 
BRANCH   3  12
ATOM     12  C   UNL     1      -1.956  11.466  18.313  0.00  0.00    +0.000 A 
ATOM     13  C   UNL     1      -3.309  11.677  18.516  0.00  0.00    +0.000 A 
ATOM     14  C   UNL     1      -4.131  10.680  17.905  0.00  0.00    +0.000 A 
ATOM     15  C   UNL     1      -3.385   9.707  17.285  0.00  0.00    +0.000 A 
ATOM     16  S   UNL     1      -1.712  10.021  17.400  0.00  0.00    +0.000 S 
ENDBRANCH   3  12
ENDBRANCH   1   2
BRANCH   1  18
ATOM     17  N   UNL     1       0.930   8.926  20.001  0.00  0.00    +0.000 N 
ATOM     18  C   UNL     1       0.767   9.825  21.033  0.00  0.00    +0.000 C 
ATOM     19  O   UNL     1       1.421   9.761  22.071  0.00  0.00    +0.000 OA
ATOM     20  H   UNL     1       0.621   9.180  19.073  0.00  0.00    +0.000 HD
BRANCH  17  22
ATOM     21  C   UNL     1       1.284   6.630  20.728  0.00  0.00    +0.000 C 
ATOM     22  C   UNL     1       1.933   7.862  20.115  0.00  0.00    +0.000 C 
BRANCH  22  23
ATOM     23  C   UNL     1       2.517   7.590  18.708  0.00  0.00    +0.000 C 
ATOM     24  O   UNL     1       2.138   8.281  17.753  0.00  0.00    +0.000 OA
ATOM     25  N   UNL     1       3.441   6.564  18.547  0.00  0.00    +0.000 N 
ATOM     26  C   UNL     1       4.239   6.542  17.318  0.00  0.00    +0.000 C 
ATOM     27  C   UNL     1       4.339   5.133  16.747  0.00  0.00    +0.000 C 
ATOM     28  C   UNL     1       4.858   4.151  17.792  0.00  0.00    +0.000 C 
ATOM     29  C   UNL     1       4.033   4.228  19.075  0.00  0.00    +0.000 C 
ATOM     30  C   UNL     1       3.917   5.662  19.597  0.00  0.00    +0.000 C 
ENDBRANCH  22  23
ENDBRANCH  17  22
ENDBRANCH   1  18
TORSDOF 5
ENDMDL
MODEL 7
REMARK VINA RESULT:      -6.3      3.762      6.345
REMARK  Name = 
REMARK  6 active torsions:
REMARK  status: ('A' for Active; 'I' for Inactive)
REMARK    1  A    between atoms: C_1  and  C_2
REMARK    2  A    between atoms: C_2  and  N_3
REMARK    3  A    between atoms: C_2  and  C_22
REMARK    4  A    between atoms: C_4  and  C_6
REMARK    5  A    between atoms: C_6  and  N_7
REMARK    6  A    between atoms: C_8  and  C_9
REMARK                            x       y       z     vdW  Elec       q    Type
REMARK                         _______ _______ _______ _____ _____    ______ ____
ROOT
ATOM      1  C   UNL     1       0.797  10.754  18.532  0.00  0.00    +0.000 C 
ENDROOT
BRANCH   1   2
ATOM      2  N   UNL     1       1.147   9.571  19.328  0.00  0.00    +0.000 N 
ATOM      3  C   UNL     1       0.625   9.338  20.603  0.00  0.00    +0.000 A 
ATOM      4  C   UNL     1       1.100   8.103  21.009  0.00  0.00    +0.000 A 
ATOM      5  C   UNL     1       1.921   7.566  19.994  0.00  0.00    +0.000 A 
ATOM      6  C   UNL     1       2.643   6.357  19.885  0.00  0.00    +0.000 A 
ATOM      7  C   UNL     1       3.385   6.098  18.735  0.00  0.00    +0.000 A 
ATOM      8 CL   UNL     1       4.264   4.625  18.595  0.00  0.00    +0.000 Cl
ATOM      9  C   UNL     1       3.430   7.021  17.707  0.00  0.00    +0.000 A 
ATOM     10  C   UNL     1       2.740   8.232  17.807  0.00  0.00    +0.000 A 
ATOM     11  C   UNL     1       1.960   8.500  18.953  0.00  0.00    +0.000 A 
BRANCH   3  12
ATOM     12  C   UNL     1      -0.259  10.203  21.365  0.00  0.00    +0.000 A 
ATOM     13  C   UNL     1      -0.971  11.317  20.958  0.00  0.00    +0.000 A 
ATOM     14  C   UNL     1      -1.712  11.928  22.016  0.00  0.00    +0.000 A 
ATOM     15  C   UNL     1      -1.515  11.290  23.217  0.00  0.00    +0.000 A 
ATOM     16  S   UNL     1      -0.484   9.940  23.057  0.00  0.00    +0.000 S 
ENDBRANCH   3  12
ENDBRANCH   1   2
BRANCH   1  18
ATOM     17  N   UNL     1       1.363  13.017  19.265  0.00  0.00    +0.000 N 
ATOM     18  C   UNL     1       1.761  11.911  18.544  0.00  0.00    +0.000 C 
ATOM     19  O   UNL     1       2.812  11.885  17.907  0.00  0.00    +0.000 OA
ATOM     20  H   UNL     1       0.683  12.903  20.005  0.00  0.00    +0.000 HD
BRANCH  17  22
ATOM     21  C   UNL     1       1.368  15.442  19.067  0.00  0.00    +0.000 C 
ATOM     22  C   UNL     1       2.220  14.205  19.309  0.00  0.00    +0.000 C 
BRANCH  22  23
ATOM     23  C   UNL     1       2.942  14.236  20.677  0.00  0.00    +0.000 C 
ATOM     24  O   UNL     1       2.317  13.916  21.697  0.00  0.00    +0.000 OA
ATOM     25  N   UNL     1       4.271  14.640  20.730  0.00  0.00    +0.000 N 
ATOM     26  C   UNL     1       5.036  14.335  21.942  0.00  0.00    +0.000 C 
ATOM     27  C   UNL     1       5.884  15.524  22.377  0.00  0.00    +0.000 C 
ATOM     28  C   UNL     1       6.773  16.012  21.239  0.00  0.00    +0.000 C 
ATOM     29  C   UNL     1       5.953  16.281  19.978  0.00  0.00    +0.000 C 
ATOM     30  C   UNL     1       5.081  15.083  19.594  0.00  0.00    +0.000 C 
ENDBRANCH  22  23
ENDBRANCH  17  22
ENDBRANCH   1  18
TORSDOF 5
ENDMDL
MODEL 8
REMARK VINA RESULT:      -6.2      4.410      7.693
REMARK  Name = 
REMARK  6 active torsions:
REMARK  status: ('A' for Active; 'I' for Inactive)
REMARK    1  A    between atoms: C_1  and  C_2
REMARK    2  A    between atoms: C_2  and  N_3
REMARK    3  A    between atoms: C_2  and  C_22
REMARK    4  A    between atoms: C_4  and  C_6
REMARK    5  A    between atoms: C_6  and  N_7
REMARK    6  A    between atoms: C_8  and  C_9
REMARK                            x       y       z     vdW  Elec       q    Type
REMARK                         _______ _______ _______ _____ _____    ______ ____
ROOT
ATOM      1  C   UNL     1       0.424  12.333  18.796  0.00  0.00    +0.000 C 
ENDROOT
BRANCH   1   2
ATOM      2  N   UNL     1       0.695  11.163  19.642  0.00  0.00    +0.000 N 
ATOM      3  C   UNL     1       0.337  11.106  20.991  0.00  0.00    +0.000 A 
ATOM      4  C   UNL     1       0.664   9.838  21.437  0.00  0.00    +0.000 A 
ATOM      5  C   UNL     1       1.232   9.104  20.374  0.00  0.00    +0.000 A 
ATOM      6  C   UNL     1       1.729   7.786  20.277  0.00  0.00    +0.000 A 
ATOM      7  C   UNL     1       2.242   7.329  19.066  0.00  0.00    +0.000 A 
ATOM      8 CL   UNL     1       2.847   5.722  18.942  0.00  0.00    +0.000 Cl
ATOM      9  C   UNL     1       2.282   8.161  17.963  0.00  0.00    +0.000 A 
ATOM     10  C   UNL     1       1.815   9.475  18.046  0.00  0.00    +0.000 A 
ATOM     11  C   UNL     1       1.264   9.947  19.258  0.00  0.00    +0.000 A 
BRANCH   3  12
ATOM     12  C   UNL     1      -0.276  12.157  21.784  0.00  0.00    +0.000 A 
ATOM     13  C   UNL     1       0.074  13.490  21.907  0.00  0.00    +0.000 A 
ATOM     14  C   UNL     1      -0.760  14.209  22.818  0.00  0.00    +0.000 A 
ATOM     15  C   UNL     1      -1.704  13.397  23.401  0.00  0.00    +0.000 A 
ATOM     16  S   UNL     1      -1.611  11.797  22.818  0.00  0.00    +0.000 S 
ENDBRANCH   3  12
ENDBRANCH   1   2
BRANCH   1  18
ATOM     17  N   UNL     1       1.449  14.553  18.792  0.00  0.00    +0.000 N 
ATOM     18  C   UNL     1       1.587  13.225  18.449  0.00  0.00    +0.000 C 
ATOM     19  O   UNL     1       2.573  12.799  17.851  0.00  0.00    +0.000 OA
ATOM     20  H   UNL     1       0.807  14.805  19.531  0.00  0.00    +0.000 HD
BRANCH  17  22
ATOM     21  C   UNL     1       1.893  16.851  18.127  0.00  0.00    +0.000 C 
ATOM     22  C   UNL     1       2.515  15.504  18.464  0.00  0.00    +0.000 C 
BRANCH  22  23
ATOM     23  C   UNL     1       3.487  15.580  19.666  0.00  0.00    +0.000 C 
ATOM     24  O   UNL     1       3.069  15.991  20.756  0.00  0.00    +0.000 OA
ATOM     25  N   UNL     1       4.813  15.203  19.486  0.00  0.00    +0.000 N 
ATOM     26  C   UNL     1       5.624  14.943  20.679  0.00  0.00    +0.000 C 
ATOM     27  C   UNL     1       7.011  15.559  20.552  0.00  0.00    +0.000 C 
ATOM     28  C   UNL     1       7.702  15.101  19.272  0.00  0.00    +0.000 C 
ATOM     29  C   UNL     1       6.816  15.346  18.052  0.00  0.00    +0.000 C 
ATOM     30  C   UNL     1       5.417  14.752  18.231  0.00  0.00    +0.000 C 
ENDBRANCH  22  23
ENDBRANCH  17  22
ENDBRANCH   1  18
TORSDOF 5
ENDMDL
MODEL 9
REMARK VINA RESULT:      -6.2      3.948      8.643
REMARK  Name = 
REMARK  6 active torsions:
REMARK  status: ('A' for Active; 'I' for Inactive)
REMARK    1  A    between atoms: C_1  and  C_2
REMARK    2  A    between atoms: C_2  and  N_3
REMARK    3  A    between atoms: C_2  and  C_22
REMARK    4  A    between atoms: C_4  and  C_6
REMARK    5  A    between atoms: C_6  and  N_7
REMARK    6  A    between atoms: C_8  and  C_9
REMARK                            x       y       z     vdW  Elec       q    Type
REMARK                         _______ _______ _______ _____ _____    ______ ____
ROOT
ATOM      1  C   UNL     1       0.676  10.471  19.806  0.00  0.00    +0.000 C 
ENDROOT
BRANCH   1   2
ATOM      2  N   UNL     1       0.514  11.820  19.249  0.00  0.00    +0.000 N 
ATOM      3  C   UNL     1      -0.616  12.207  18.524  0.00  0.00    +0.000 A 
ATOM      4  C   UNL     1      -0.464  13.552  18.237  0.00  0.00    +0.000 A 
ATOM      5  C   UNL     1       0.760  14.006  18.774  0.00  0.00    +0.000 A 
ATOM      6  C   UNL     1       1.397  15.266  18.777  0.00  0.00    +0.000 A 
ATOM      7  C   UNL     1       2.633  15.413  19.402  0.00  0.00    +0.000 A 
ATOM      8 CL   UNL     1       3.413  16.948  19.410  0.00  0.00    +0.000 Cl
ATOM      9  C   UNL     1       3.246  14.331  20.006  0.00  0.00    +0.000 A 
ATOM     10  C   UNL     1       2.640  13.072  19.994  0.00  0.00    +0.000 A 
ATOM     11  C   UNL     1       1.374  12.910  19.391  0.00  0.00    +0.000 A 
BRANCH   3  12
ATOM     12  C   UNL     1      -1.749  11.379  18.149  0.00  0.00    +0.000 A 
ATOM     13  C   UNL     1      -1.803  10.291  17.296  0.00  0.00    +0.000 A 
ATOM     14  C   UNL     1      -3.120   9.753  17.155  0.00  0.00    +0.000 A 
ATOM     15  C   UNL     1      -4.047  10.468  17.873  0.00  0.00    +0.000 A 
ATOM     16  S   UNL     1      -3.328  11.747  18.743  0.00  0.00    +0.000 S 
ENDBRANCH   3  12
ENDBRANCH   1   2
BRANCH   1  18
ATOM     17  N   UNL     1       1.584   8.220  19.515  0.00  0.00    +0.000 N 
ATOM     18  C   UNL     1       1.252   9.411  18.905  0.00  0.00    +0.000 C 
ATOM     19  O   UNL     1       1.460   9.618  17.712  0.00  0.00    +0.000 OA
ATOM     20  H   UNL     1       1.131   7.969  20.383  0.00  0.00    +0.000 HD
BRANCH  17  22
ATOM     21  C   UNL     1       3.575   7.560  18.281  0.00  0.00    +0.000 C 
ATOM     22  C   UNL     1       2.183   7.139  18.725  0.00  0.00    +0.000 C 
BRANCH  22  23
ATOM     23  C   UNL     1       2.194   5.854  19.587  0.00  0.00    +0.000 C 
ATOM     24  O   UNL     1       2.232   5.954  20.820  0.00  0.00    +0.000 OA
ATOM     25  N   UNL     1       2.181   4.616  18.954  0.00  0.00    +0.000 N 
ATOM     26  C   UNL     1       1.840   3.437  19.754  0.00  0.00    +0.000 C 
ATOM     27  C   UNL     1       2.767   2.269  19.443  0.00  0.00    +0.000 C 
ATOM     28  C   UNL     1       2.791   1.967  17.949  0.00  0.00    +0.000 C 
ATOM     29  C   UNL     1       3.107   3.225  17.140  0.00  0.00    +0.000 C 
ATOM     30  C   UNL     1       2.186   4.390  17.508  0.00  0.00    +0.000 C 
ENDBRANCH  22  23
ENDBRANCH  17  22
ENDBRANCH   1  18
TORSDOF 5
ENDMDL
