MODEL 1
REMARK VINA RESULT:      -7.5      0.000      0.000
REMARK  Name = 
REMARK  6 active torsions:
REMARK  status: ('A' for Active; 'I' for Inactive)
REMARK    1  A    between atoms: C_9  and  C_10
REMARK    2  A    between atoms: C_10  and  N_11
REMARK    3  A    between atoms: N_11  and  C_12
REMARK    4  A    between atoms: C_12  and  C_13
REMARK    5  A    between atoms: C_13  and  C_14
REMARK    6  A    between atoms: C_14  and  N_15
REMARK                            x       y       z     vdW  Elec       q    Type
REMARK                         _______ _______ _______ _____ _____    ______ ____
ROOT
ATOM      1  N   UNL     1       5.450   6.506  17.643  0.00  0.00    +0.000 NA
ATOM      2  H   UNL     1       5.125   7.435  17.911  0.00  0.00    +0.000 HD
ENDROOT
BRANCH   1   3
ATOM      3  C   UNL     1       5.329   5.595  18.790  0.00  0.00    +0.000 C 
BRANCH   3  12
ATOM      4  C   UNL     1       0.823   3.155  20.035  0.00  0.00    +0.000 A 
ATOM      5  C   UNL     1       1.695   2.791  21.061  0.00  0.00    +0.000 A 
ATOM      6  C   UNL     1       3.072   2.833  20.851  0.00  0.00    +0.000 A 
ATOM      7  C   UNL     1       3.576   3.240  19.616  0.00  0.00    +0.000 A 
ATOM      8  C   UNL     1       2.709   3.567  18.566  0.00  0.00    +0.000 A 
ATOM      9  C   UNL     1       1.328   3.542  18.792  0.00  0.00    +0.000 A 
ATOM     10  C   UNL     1       3.241   3.984  17.224  0.00  0.00    +0.000 C 
ATOM     11  C   UNL     1       4.729   3.690  17.122  0.00  0.00    +0.000 C 
ATOM     12  C   UNL     1       5.430   4.095  18.416  0.00  0.00    +0.000 C 
ATOM     13  O   UNL     1       4.941   3.299  19.514  0.00  0.00    +0.000 OA
ENDBRANCH   3  12
ENDBRANCH   1   3
BRANCH   1  14
ATOM     14  C   UNL     1       6.837   6.619  17.178  0.00  0.00    +0.000 C 
BRANCH  14  15
ATOM     15  C   UNL     1       7.795   7.236  18.202  0.00  0.00    +0.000 C 
BRANCH  15  16
ATOM     16  C   UNL     1       8.148   8.674  17.831  0.00  0.00    +0.000 C 
BRANCH  16  17
ATOM     17  N   UNL     1       8.798   9.336  18.951  0.00  0.00    +0.000 N 
ATOM     18  C   UNL     1       9.334  10.599  18.721  0.00  0.00    +0.000 A 
ATOM     19  C   UNL     1       8.712  11.546  17.932  0.00  0.00    +0.000 A 
ATOM     20  C   UNL     1       9.327  12.772  17.824  0.00  0.00    +0.000 A 
ATOM     21  N   UNL     1      10.469  13.082  18.455  0.00  0.00    +0.000 NA
ATOM     22  C   UNL     1      10.983  12.102  19.212  0.00  0.00    +0.000 A 
ATOM     23  N   UNL     1      10.476  10.868  19.371  0.00  0.00    +0.000 NA
ATOM     24  H   UNL     1       9.531   8.794  19.407  0.00  0.00    +0.000 HD
ENDBRANCH  16  17
ENDBRANCH  15  16
ENDBRANCH  14  15
ENDBRANCH   1  14
TORSDOF 6
ENDMDL
MODEL 2
REMARK VINA RESULT:      -7.4      4.150      6.463
REMARK  Name = 
REMARK  6 active torsions:
REMARK  status: ('A' for Active; 'I' for Inactive)
REMARK    1  A    between atoms: C_9  and  C_10
REMARK    2  A    between atoms: C_10  and  N_11
REMARK    3  A    between atoms: N_11  and  C_12
REMARK    4  A    between atoms: C_12  and  C_13
REMARK    5  A    between atoms: C_13  and  C_14
REMARK    6  A    between atoms: C_14  and  N_15
REMARK                            x       y       z     vdW  Elec       q    Type
REMARK                         _______ _______ _______ _____ _____    ______ ____
ROOT
ATOM      1  N   UNL     1       5.864   3.722  19.050  0.00  0.00    +0.000 NA
ATOM      2  H   UNL     1       6.275   3.019  19.664  0.00  0.00    +0.000 HD
ENDROOT
BRANCH   1   3
ATOM      3  C   UNL     1       6.378   5.049  19.415  0.00  0.00    +0.000 C 
BRANCH   3  12
ATOM      4  C   UNL     1       5.257   5.156  14.263  0.00  0.00    +0.000 A 
ATOM      5  C   UNL     1       5.966   3.967  14.427  0.00  0.00    +0.000 A 
ATOM      6  C   UNL     1       6.828   3.814  15.511  0.00  0.00    +0.000 A 
ATOM      7  C   UNL     1       6.979   4.850  16.432  0.00  0.00    +0.000 A 
ATOM      8  C   UNL     1       6.305   6.065  16.254  0.00  0.00    +0.000 A 
ATOM      9  C   UNL     1       5.425   6.202  15.174  0.00  0.00    +0.000 A 
ATOM     10  C   UNL     1       6.478   7.197  17.227  0.00  0.00    +0.000 C 
ATOM     11  C   UNL     1       7.656   6.932  18.152  0.00  0.00    +0.000 C 
ATOM     12  C   UNL     1       7.635   5.479  18.619  0.00  0.00    +0.000 C 
ATOM     13  O   UNL     1       7.809   4.595  17.493  0.00  0.00    +0.000 OA
ENDBRANCH   3  12
ENDBRANCH   1   3
BRANCH   1  14
ATOM     14  C   UNL     1       4.404   3.647  19.174  0.00  0.00    +0.000 C 
BRANCH  14  15
ATOM     15  C   UNL     1       3.642   4.254  17.991  0.00  0.00    +0.000 C 
BRANCH  15  16
ATOM     16  C   UNL     1       2.675   5.340  18.456  0.00  0.00    +0.000 C 
BRANCH  16  17
ATOM     17  N   UNL     1       3.143   6.647  18.025  0.00  0.00    +0.000 N 
ATOM     18  C   UNL     1       2.414   7.755  18.445  0.00  0.00    +0.000 A 
ATOM     19  C   UNL     1       1.871   7.862  19.710  0.00  0.00    +0.000 A 
ATOM     20  C   UNL     1       1.212   9.031  20.012  0.00  0.00    +0.000 A 
ATOM     21  N   UNL     1       1.096  10.054  19.153  0.00  0.00    +0.000 NA
ATOM     22  C   UNL     1       1.674   9.862  17.959  0.00  0.00    +0.000 A 
ATOM     23  N   UNL     1       2.323   8.756  17.556  0.00  0.00    +0.000 NA
ATOM     24  H   UNL     1       3.267   6.752  17.019  0.00  0.00    +0.000 HD
ENDBRANCH  16  17
ENDBRANCH  15  16
ENDBRANCH  14  15
ENDBRANCH   1  14
TORSDOF 6
ENDMDL
MODEL 3
REMARK VINA RESULT:      -7.4      1.074      1.336
REMARK  Name = 
REMARK  6 active torsions:
REMARK  status: ('A' for Active; 'I' for Inactive)
REMARK    1  A    between atoms: C_9  and  C_10
REMARK    2  A    between atoms: C_10  and  N_11
REMARK    3  A    between atoms: N_11  and  C_12
REMARK    4  A    between atoms: C_12  and  C_13
REMARK    5  A    between atoms: C_13  and  C_14
REMARK    6  A    between atoms: C_14  and  N_15
REMARK                            x       y       z     vdW  Elec       q    Type
REMARK                         _______ _______ _______ _____ _____    ______ ____
ROOT
ATOM      1  N   UNL     1       6.847   5.770  19.241  0.00  0.00    +0.000 NA
ATOM      2  H   UNL     1       7.415   5.146  19.814  0.00  0.00    +0.000 HD
ENDROOT
BRANCH   1   3
ATOM      3  C   UNL     1       5.459   5.287  19.219  0.00  0.00    +0.000 C 
BRANCH   3  12
ATOM      4  C   UNL     1       0.786   3.304  20.645  0.00  0.00    +0.000 A 
ATOM      5  C   UNL     1       1.692   2.671  21.495  0.00  0.00    +0.000 A 
ATOM      6  C   UNL     1       3.031   2.561  21.128  0.00  0.00    +0.000 A 
ATOM      7  C   UNL     1       3.465   3.087  19.911  0.00  0.00    +0.000 A 
ATOM      8  C   UNL     1       2.556   3.687  19.031  0.00  0.00    +0.000 A 
ATOM      9  C   UNL     1       1.216   3.811  19.416  0.00  0.00    +0.000 A 
ATOM     10  C   UNL     1       3.007   4.236  17.706  0.00  0.00    +0.000 C 
ATOM     11  C   UNL     1       4.417   3.765  17.385  0.00  0.00    +0.000 C 
ATOM     12  C   UNL     1       5.296   3.865  18.628  0.00  0.00    +0.000 C 
ATOM     13  O   UNL     1       4.806   2.978  19.654  0.00  0.00    +0.000 OA
ENDBRANCH   3  12
ENDBRANCH   1   3
BRANCH   1  14
ATOM     14  C   UNL     1       7.430   5.820  17.895  0.00  0.00    +0.000 C 
BRANCH  14  15
ATOM     15  C   UNL     1       7.533   7.231  17.307  0.00  0.00    +0.000 C 
BRANCH  15  16
ATOM     16  C   UNL     1       8.125   8.209  18.320  0.00  0.00    +0.000 C 
BRANCH  16  17
ATOM     17  N   UNL     1       8.620   9.395  17.640  0.00  0.00    +0.000 N 
ATOM     18  C   UNL     1       8.930  10.498  18.430  0.00  0.00    +0.000 A 
ATOM     19  C   UNL     1       9.543  10.392  19.662  0.00  0.00    +0.000 A 
ATOM     20  C   UNL     1       9.835  11.564  20.320  0.00  0.00    +0.000 A 
ATOM     21  N   UNL     1       9.573  12.778  19.814  0.00  0.00    +0.000 NA
ATOM     22  C   UNL     1       8.995  12.776  18.604  0.00  0.00    +0.000 A 
ATOM     23  N   UNL     1       8.651  11.693  17.886  0.00  0.00    +0.000 NA
ATOM     24  H   UNL     1       8.026   9.742  16.888  0.00  0.00    +0.000 HD
ENDBRANCH  16  17
ENDBRANCH  15  16
ENDBRANCH  14  15
ENDBRANCH   1  14
TORSDOF 6
ENDMDL
MODEL 4
REMARK VINA RESULT:      -7.3      1.401      2.259
REMARK  Name = 
REMARK  6 active torsions:
REMARK  status: ('A' for Active; 'I' for Inactive)
REMARK    1  A    between atoms: C_9  and  C_10
REMARK    2  A    between atoms: C_10  and  N_11
REMARK    3  A    between atoms: N_11  and  C_12
REMARK    4  A    between atoms: C_12  and  C_13
REMARK    5  A    between atoms: C_13  and  C_14
REMARK    6  A    between atoms: C_14  and  N_15
REMARK                            x       y       z     vdW  Elec       q    Type
REMARK                         _______ _______ _______ _____ _____    ______ ____
ROOT
ATOM      1  N   UNL     1       7.348   7.405  16.865  0.00  0.00    +0.000 NA
ATOM      2  H   UNL     1       6.721   7.608  16.087  0.00  0.00    +0.000 HD
ENDROOT
BRANCH   1   3
ATOM      3  C   UNL     1       6.654   6.557  17.844  0.00  0.00    +0.000 C 
BRANCH   3  12
ATOM      4  C   UNL     1       2.390   3.457  17.969  0.00  0.00    +0.000 A 
ATOM      5  C   UNL     1       2.880   3.405  19.273  0.00  0.00    +0.000 A 
ATOM      6  C   UNL     1       4.220   3.689  19.525  0.00  0.00    +0.000 A 
ATOM      7  C   UNL     1       5.070   4.028  18.472  0.00  0.00    +0.000 A 
ATOM      8  C   UNL     1       4.599   4.042  17.153  0.00  0.00    +0.000 A 
ATOM      9  C   UNL     1       3.246   3.775  16.912  0.00  0.00    +0.000 A 
ATOM     10  C   UNL     1       5.511   4.382  16.008  0.00  0.00    +0.000 C 
ATOM     11  C   UNL     1       6.963   4.375  16.460  0.00  0.00    +0.000 C 
ATOM     12  C   UNL     1       7.091   5.071  17.812  0.00  0.00    +0.000 C 
ATOM     13  O   UNL     1       6.359   4.340  18.817  0.00  0.00    +0.000 OA
ENDBRANCH   3  12
ENDBRANCH   1   3
BRANCH   1  14
ATOM     14  C   UNL     1       7.782   8.677  17.453  0.00  0.00    +0.000 C 
BRANCH  14  15
ATOM     15  C   UNL     1       8.612   8.527  18.732  0.00  0.00    +0.000 C 
BRANCH  15  16
ATOM     16  C   UNL     1       9.208   9.865  19.163  0.00  0.00    +0.000 C 
BRANCH  16  17
ATOM     17  N   UNL     1       8.939  10.881  18.158  0.00  0.00    +0.000 N 
ATOM     18  C   UNL     1       9.863  11.914  18.032  0.00  0.00    +0.000 A 
ATOM     19  C   UNL     1      11.226  11.718  18.126  0.00  0.00    +0.000 A 
ATOM     20  C   UNL     1      12.031  12.817  17.937  0.00  0.00    +0.000 A 
ATOM     21  N   UNL     1      11.555  14.039  17.653  0.00  0.00    +0.000 NA
ATOM     22  C   UNL     1      10.221  14.121  17.565  0.00  0.00    +0.000 A 
ATOM     23  N   UNL     1       9.345  13.119  17.748  0.00  0.00    +0.000 NA
ATOM     24  H   UNL     1       8.023  11.324  18.226  0.00  0.00    +0.000 HD
ENDBRANCH  16  17
ENDBRANCH  15  16
ENDBRANCH  14  15
ENDBRANCH   1  14
TORSDOF 6
ENDMDL
MODEL 5
REMARK VINA RESULT:      -7.3      4.331      5.715
REMARK  Name = 
REMARK  6 active torsions:
REMARK  status: ('A' for Active; 'I' for Inactive)
REMARK    1  A    between atoms: C_9  and  C_10
REMARK    2  A    between atoms: C_10  and  N_11
REMARK    3  A    between atoms: N_11  and  C_12
REMARK    4  A    between atoms: C_12  and  C_13
REMARK    5  A    between atoms: C_13  and  C_14
REMARK    6  A    between atoms: C_14  and  N_15
REMARK                            x       y       z     vdW  Elec       q    Type
REMARK                         _______ _______ _______ _____ _____    ______ ____
ROOT
ATOM      1  N   UNL     1       4.597   4.873  18.516  0.00  0.00    +0.000 NA
ATOM      2  H   UNL     1       4.558   4.525  17.558  0.00  0.00    +0.000 HD
ENDROOT
BRANCH   1   3
ATOM      3  C   UNL     1       4.299   6.312  18.525  0.00  0.00    +0.000 C 
BRANCH   3  12
ATOM      4  C   UNL     1       1.156   2.619  20.596  0.00  0.00    +0.000 A 
ATOM      5  C   UNL     1       1.201   2.298  19.240  0.00  0.00    +0.000 A 
ATOM      6  C   UNL     1       1.521   3.278  18.304  0.00  0.00    +0.000 A 
ATOM      7  C   UNL     1       1.798   4.579  18.723  0.00  0.00    +0.000 A 
ATOM      8  C   UNL     1       1.714   4.923  20.078  0.00  0.00    +0.000 A 
ATOM      9  C   UNL     1       1.412   3.928  21.015  0.00  0.00    +0.000 A 
ATOM     10  C   UNL     1       1.986   6.327  20.539  0.00  0.00    +0.000 C 
ATOM     11  C   UNL     1       2.031   7.280  19.355  0.00  0.00    +0.000 C 
ATOM     12  C   UNL     1       2.821   6.652  18.211  0.00  0.00    +0.000 C 
ATOM     13  O   UNL     1       2.151   5.466  17.739  0.00  0.00    +0.000 OA
ENDBRANCH   3  12
ENDBRANCH   1   3
BRANCH   1  14
ATOM     14  C   UNL     1       5.930   4.586  19.058  0.00  0.00    +0.000 C 
BRANCH  14  15
ATOM     15  C   UNL     1       7.071   5.305  18.332  0.00  0.00    +0.000 C 
BRANCH  15  16
ATOM     16  C   UNL     1       7.452   4.578  17.045  0.00  0.00    +0.000 C 
BRANCH  16  17
ATOM     17  N   UNL     1       7.438   5.504  15.923  0.00  0.00    +0.000 N 
ATOM     18  C   UNL     1       7.209   4.970  14.659  0.00  0.00    +0.000 A 
ATOM     19  C   UNL     1       6.298   3.959  14.425  0.00  0.00    +0.000 A 
ATOM     20  C   UNL     1       6.134   3.553  13.120  0.00  0.00    +0.000 A 
ATOM     21  N   UNL     1       6.795   4.102  12.090  0.00  0.00    +0.000 NA
ATOM     22  C   UNL     1       7.641   5.088  12.418  0.00  0.00    +0.000 A 
ATOM     23  N   UNL     1       7.889   5.547  13.657  0.00  0.00    +0.000 NA
ATOM     24  H   UNL     1       8.267   6.091  15.838  0.00  0.00    +0.000 HD
ENDBRANCH  16  17
ENDBRANCH  15  16
ENDBRANCH  14  15
ENDBRANCH   1  14
TORSDOF 6
ENDMDL
MODEL 6
REMARK VINA RESULT:      -7.2      1.613      2.172
REMARK  Name = 
REMARK  6 active torsions:
REMARK  status: ('A' for Active; 'I' for Inactive)
REMARK    1  A    between atoms: C_9  and  C_10
REMARK    2  A    between atoms: C_10  and  N_11
REMARK    3  A    between atoms: N_11  and  C_12
REMARK    4  A    between atoms: C_12  and  C_13
REMARK    5  A    between atoms: C_13  and  C_14
REMARK    6  A    between atoms: C_14  and  N_15
REMARK                            x       y       z     vdW  Elec       q    Type
REMARK                         _______ _______ _______ _____ _____    ______ ____
ROOT
ATOM      1  N   UNL     1       7.612   5.549  17.615  0.00  0.00    +0.000 NA
ATOM      2  H   UNL     1       7.723   5.820  16.639  0.00  0.00    +0.000 HD
ENDROOT
BRANCH   1   3
ATOM      3  C   UNL     1       6.248   5.047  17.832  0.00  0.00    +0.000 C 
BRANCH   3  12
ATOM      4  C   UNL     1       1.386   3.507  19.174  0.00  0.00    +0.000 A 
ATOM      5  C   UNL     1       1.809   2.532  18.271  0.00  0.00    +0.000 A 
ATOM      6  C   UNL     1       2.813   2.824  17.351  0.00  0.00    +0.000 A 
ATOM      7  C   UNL     1       3.395   4.091  17.333  0.00  0.00    +0.000 A 
ATOM      8  C   UNL     1       2.949   5.091  18.207  0.00  0.00    +0.000 A 
ATOM      9  C   UNL     1       1.954   4.783  19.142  0.00  0.00    +0.000 A 
ATOM     10  C   UNL     1       3.552   6.467  18.182  0.00  0.00    +0.000 C 
ATOM     11  C   UNL     1       4.407   6.655  16.938  0.00  0.00    +0.000 C 
ATOM     12  C   UNL     1       5.256   5.410  16.698  0.00  0.00    +0.000 C 
ATOM     13  O   UNL     1       4.408   4.276  16.429  0.00  0.00    +0.000 OA
ENDBRANCH   3  12
ENDBRANCH   1   3
BRANCH   1  14
ATOM     14  C   UNL     1       7.906   6.715  18.456  0.00  0.00    +0.000 C 
BRANCH  14  15
ATOM     15  C   UNL     1       7.936   8.045  17.696  0.00  0.00    +0.000 C 
BRANCH  15  16
ATOM     16  C   UNL     1       8.529   9.158  18.556  0.00  0.00    +0.000 C 
BRANCH  16  17
ATOM     17  N   UNL     1       8.868  10.304  17.728  0.00  0.00    +0.000 N 
ATOM     18  C   UNL     1       9.489  11.381  18.354  0.00  0.00    +0.000 A 
ATOM     19  C   UNL     1      10.450  11.228  19.333  0.00  0.00    +0.000 A 
ATOM     20  C   UNL     1      11.017  12.376  19.838  0.00  0.00    +0.000 A 
ATOM     21  N   UNL     1      10.696  13.606  19.412  0.00  0.00    +0.000 NA
ATOM     22  C   UNL     1       9.768  13.647  18.445  0.00  0.00    +0.000 A 
ATOM     23  N   UNL     1       9.139  12.593  17.897  0.00  0.00    +0.000 NA
ATOM     24  H   UNL     1       8.094  10.694  17.192  0.00  0.00    +0.000 HD
ENDBRANCH  16  17
ENDBRANCH  15  16
ENDBRANCH  14  15
ENDBRANCH   1  14
TORSDOF 6
ENDMDL
MODEL 7
REMARK VINA RESULT:      -7.2      4.314      5.958
REMARK  Name = 
REMARK  6 active torsions:
REMARK  status: ('A' for Active; 'I' for Inactive)
REMARK    1  A    between atoms: C_9  and  C_10
REMARK    2  A    between atoms: C_10  and  N_11
REMARK    3  A    between atoms: N_11  and  C_12
REMARK    4  A    between atoms: C_12  and  C_13
REMARK    5  A    between atoms: C_13  and  C_14
REMARK    6  A    between atoms: C_14  and  N_15
REMARK                            x       y       z     vdW  Elec       q    Type
REMARK                         _______ _______ _______ _____ _____    ______ ____
ROOT
ATOM      1  N   UNL     1       5.242   6.405  17.470  0.00  0.00    +0.000 NA
ATOM      2  H   UNL     1       5.508   5.826  16.674  0.00  0.00    +0.000 HD
ENDROOT
BRANCH   1   3
ATOM      3  C   UNL     1       4.974   5.546  18.631  0.00  0.00    +0.000 C 
BRANCH   3  12
ATOM      4  C   UNL     1       0.790   2.925  20.485  0.00  0.00    +0.000 A 
ATOM      5  C   UNL     1       1.781   2.691  21.438  0.00  0.00    +0.000 A 
ATOM      6  C   UNL     1       3.124   2.803  21.087  0.00  0.00    +0.000 A 
ATOM      7  C   UNL     1       3.477   3.152  19.783  0.00  0.00    +0.000 A 
ATOM      8  C   UNL     1       2.491   3.348  18.808  0.00  0.00    +0.000 A 
ATOM      9  C   UNL     1       1.143   3.253  19.174  0.00  0.00    +0.000 A 
ATOM     10  C   UNL     1       2.859   3.701  17.394  0.00  0.00    +0.000 C 
ATOM     11  C   UNL     1       4.348   3.493  17.161  0.00  0.00    +0.000 C 
ATOM     12  C   UNL     1       5.141   4.032  18.347  0.00  0.00    +0.000 C 
ATOM     13  O   UNL     1       4.818   3.287  19.539  0.00  0.00    +0.000 OA
ENDBRANCH   3  12
ENDBRANCH   1   3
BRANCH   1  14
ATOM     14  C   UNL     1       4.066   7.198  17.093  0.00  0.00    +0.000 C 
BRANCH  14  15
ATOM     15  C   UNL     1       3.012   7.323  18.198  0.00  0.00    +0.000 C 
BRANCH  15  16
ATOM     16  C   UNL     1       2.217   8.618  18.058  0.00  0.00    +0.000 C 
BRANCH  16  17
ATOM     17  N   UNL     1       1.501   8.902  19.292  0.00  0.00    +0.000 N 
ATOM     18  C   UNL     1       0.521   9.889  19.247  0.00  0.00    +0.000 A 
ATOM     19  C   UNL     1      -0.336  10.049  18.176  0.00  0.00    +0.000 A 
ATOM     20  C   UNL     1      -1.289  11.036  18.279  0.00  0.00    +0.000 A 
ATOM     21  N   UNL     1      -1.428  11.817  19.361  0.00  0.00    +0.000 NA
ATOM     22  C   UNL     1      -0.561  11.570  20.353  0.00  0.00    +0.000 A 
ATOM     23  N   UNL     1       0.416  10.648  20.349  0.00  0.00    +0.000 NA
ATOM     24  H   UNL     1       2.090   9.122  20.093  0.00  0.00    +0.000 HD
ENDBRANCH  16  17
ENDBRANCH  15  16
ENDBRANCH  14  15
ENDBRANCH   1  14
TORSDOF 6
ENDMDL
MODEL 8
REMARK VINA RESULT:      -7.2      4.304      5.847
REMARK  Name = 
REMARK  6 active torsions:
REMARK  status: ('A' for Active; 'I' for Inactive)
REMARK    1  A    between atoms: C_9  and  C_10
REMARK    2  A    between atoms: C_10  and  N_11
REMARK    3  A    between atoms: N_11  and  C_12
REMARK    4  A    between atoms: C_12  and  C_13
REMARK    5  A    between atoms: C_13  and  C_14
REMARK    6  A    between atoms: C_14  and  N_15
REMARK                            x       y       z     vdW  Elec       q    Type
REMARK                         _______ _______ _______ _____ _____    ______ ____
ROOT
ATOM      1  N   UNL     1       3.750   6.810  17.639  0.00  0.00    +0.000 NA
ATOM      2  H   UNL     1       3.467   7.688  17.205  0.00  0.00    +0.000 HD
ENDROOT
BRANCH   1   3
ATOM      3  C   UNL     1       3.256   6.765  19.022  0.00  0.00    +0.000 C 
BRANCH   3  12
ATOM      4  C   UNL     1       3.887   1.530  18.927  0.00  0.00    +0.000 A 
ATOM      5  C   UNL     1       3.410   1.833  17.653  0.00  0.00    +0.000 A 
ATOM      6  C   UNL     1       2.686   3.004  17.440  0.00  0.00    +0.000 A 
ATOM      7  C   UNL     1       2.439   3.873  18.503  0.00  0.00    +0.000 A 
ATOM      8  C   UNL     1       2.877   3.558  19.796  0.00  0.00    +0.000 A 
ATOM      9  C   UNL     1       3.621   2.390  19.996  0.00  0.00    +0.000 A 
ATOM     10  C   UNL     1       2.597   4.475  20.953  0.00  0.00    +0.000 C 
ATOM     11  C   UNL     1       1.568   5.526  20.566  0.00  0.00    +0.000 C 
ATOM     12  C   UNL     1       1.879   6.073  19.176  0.00  0.00    +0.000 C 
ATOM     13  O   UNL     1       1.762   5.023  18.194  0.00  0.00    +0.000 OA
ENDBRANCH   3  12
ENDBRANCH   1   3
BRANCH   1  14
ATOM     14  C   UNL     1       5.213   6.715  17.578  0.00  0.00    +0.000 C 
BRANCH  14  15
ATOM     15  C   UNL     1       5.778   5.385  18.086  0.00  0.00    +0.000 C 
BRANCH  15  16
ATOM     16  C   UNL     1       6.478   4.619  16.966  0.00  0.00    +0.000 C 
BRANCH  16  17
ATOM     17  N   UNL     1       6.797   5.517  15.868  0.00  0.00    +0.000 N 
ATOM     18  C   UNL     1       6.856   4.966  14.592  0.00  0.00    +0.000 A 
ATOM     19  C   UNL     1       5.974   4.001  14.148  0.00  0.00    +0.000 A 
ATOM     20  C   UNL     1       6.115   3.575  12.848  0.00  0.00    +0.000 A 
ATOM     21  N   UNL     1       7.041   4.061  12.009  0.00  0.00    +0.000 NA
ATOM     22  C   UNL     1       7.836   5.007  12.528  0.00  0.00    +0.000 A 
ATOM     23  N   UNL     1       7.797   5.481  13.785  0.00  0.00    +0.000 NA
ATOM     24  H   UNL     1       7.654   6.056  15.986  0.00  0.00    +0.000 HD
ENDBRANCH  16  17
ENDBRANCH  15  16
ENDBRANCH  14  15
ENDBRANCH   1  14
TORSDOF 6
ENDMDL
MODEL 9
REMARK VINA RESULT:      -7.2      1.609      2.468
REMARK  Name = 
REMARK  6 active torsions:
REMARK  status: ('A' for Active; 'I' for Inactive)
REMARK    1  A    between atoms: C_9  and  C_10
REMARK    2  A    between atoms: C_10  and  N_11
REMARK    3  A    between atoms: N_11  and  C_12
REMARK    4  A    between atoms: C_12  and  C_13
REMARK    5  A    between atoms: C_13  and  C_14
REMARK    6  A    between atoms: C_14  and  N_15
REMARK                            x       y       z     vdW  Elec       q    Type
REMARK                         _______ _______ _______ _____ _____    ______ ____
ROOT
ATOM      1  N   UNL     1       8.012   7.334  17.219  0.00  0.00    +0.000 NA
ATOM      2  H   UNL     1       8.439   7.377  16.294  0.00  0.00    +0.000 HD
ENDROOT
BRANCH   1   3
ATOM      3  C   UNL     1       6.824   6.471  17.169  0.00  0.00    +0.000 C 
BRANCH   3  12
ATOM      4  C   UNL     1       2.525   3.671  18.393  0.00  0.00    +0.000 A 
ATOM      5  C   UNL     1       3.305   3.610  19.547  0.00  0.00    +0.000 A 
ATOM      6  C   UNL     1       4.682   3.806  19.469  0.00  0.00    +0.000 A 
ATOM      7  C   UNL     1       5.279   4.067  18.235  0.00  0.00    +0.000 A 
ATOM      8  C   UNL     1       4.512   4.089  17.064  0.00  0.00    +0.000 A 
ATOM      9  C   UNL     1       3.127   3.911  17.155  0.00  0.00    +0.000 A 
ATOM     10  C   UNL     1       5.147   4.346  15.726  0.00  0.00    +0.000 C 
ATOM     11  C   UNL     1       6.662   4.248  15.826  0.00  0.00    +0.000 C 
ATOM     12  C   UNL     1       7.148   4.958  17.086  0.00  0.00    +0.000 C 
ATOM     13  O   UNL     1       6.630   4.297  18.258  0.00  0.00    +0.000 OA
ENDBRANCH   3  12
ENDBRANCH   1   3
BRANCH   1  14
ATOM     14  C   UNL     1       7.678   8.700  17.638  0.00  0.00    +0.000 C 
BRANCH  14  15
ATOM     15  C   UNL     1       8.741   9.365  18.519  0.00  0.00    +0.000 C 
BRANCH  15  16
ATOM     16  C   UNL     1       8.923  10.835  18.150  0.00  0.00    +0.000 C 
BRANCH  16  17
ATOM     17  N   UNL     1      10.304  11.238  18.362  0.00  0.00    +0.000 N 
ATOM     18  C   UNL     1      10.669  12.510  17.933  0.00  0.00    +0.000 A 
ATOM     19  C   UNL     1       9.848  13.613  18.067  0.00  0.00    +0.000 A 
ATOM     20  C   UNL     1      10.350  14.821  17.643  0.00  0.00    +0.000 A 
ATOM     21  N   UNL     1      11.582  14.971  17.135  0.00  0.00    +0.000 NA
ATOM     22  C   UNL     1      12.307  13.846  17.065  0.00  0.00    +0.000 A 
ATOM     23  N   UNL     1      11.909  12.616  17.432  0.00  0.00    +0.000 NA
ATOM     24  H   UNL     1      11.003  10.599  17.986  0.00  0.00    +0.000 HD
ENDBRANCH  16  17
ENDBRANCH  15  16
ENDBRANCH  14  15
ENDBRANCH   1  14
TORSDOF 6
ENDMDL
