MODEL 1
REMARK VINA RESULT:      -6.5      0.000      0.000
REMARK  Name = 
REMARK  6 active torsions:
REMARK  status: ('A' for Active; 'I' for Inactive)
REMARK    1  A    between atoms: C_2  and  C_3
REMARK    2  A    between atoms: C_3  and  C_4
REMARK    3  A    between atoms: C_4  and  O_5
REMARK    4  A    between atoms: O_5  and  C_6
REMARK    5  A    between atoms: N_12  and  C_13
REMARK    6  A    between atoms: C_13  and  C_14
REMARK                            x       y       z     vdW  Elec       q    Type
REMARK                         _______ _______ _______ _____ _____    ______ ____
ROOT
ATOM      1  O   UNL     1       7.786   4.410  16.608  0.00  0.00    +0.000 OA
ATOM      2  C   UNL     1       6.699   4.970  16.469  0.00  0.00    +0.000 C 
ATOM      3  N   UNL     1       6.143   5.182  15.230  0.00  0.00    +0.000 N 
ATOM      4  H   UNL     1       5.347   5.790  15.108  0.00  0.00    +0.000 HD
ENDROOT
BRANCH   2   5
ATOM      5  C   UNL     1       5.921   5.455  17.682  0.00  0.00    +0.000 C 
BRANCH   5   6
ATOM      6  C   UNL     1       4.422   5.585  17.471  0.00  0.00    +0.000 C 
BRANCH   6   7
ATOM      7  O   UNL     1       3.863   4.324  17.098  0.00  0.00    +0.000 OA
BRANCH   7   8
ATOM      8  C   UNL     1       2.881   3.873  17.946  0.00  0.00    +0.000 A 
ATOM      9  C   UNL     1       2.517   4.756  18.964  0.00  0.00    +0.000 A 
ATOM     10  C   UNL     1       1.531   4.401  19.887  0.00  0.00    +0.000 A 
ATOM     11  C   UNL     1       0.893   3.166  19.787  0.00  0.00    +0.000 A 
ATOM     12  C   UNL     1       1.237   2.289  18.759  0.00  0.00    +0.000 A 
ATOM     13  C   UNL     1       2.225   2.643  17.840  0.00  0.00    +0.000 A 
ENDBRANCH   7   8
ENDBRANCH   6   7
ENDBRANCH   5   6
ENDBRANCH   2   5
BRANCH   3  14
ATOM     14  C   UNL     1       6.799   4.804  13.990  0.00  0.00    +0.000 C 
BRANCH  14  15
ATOM     15  C   UNL     1       6.153   3.595  13.307  0.00  0.00    +0.000 C 
ATOM     16  C   UNL     1       6.842   3.092  12.051  0.00  0.00    +0.000 C 
ATOM     17  C   UNL     1       5.727   2.325  11.386  0.00  0.00    +0.000 C 
ATOM     18  C   UNL     1       4.515   3.179  11.701  0.00  0.00    +0.000 C 
ATOM     19  O   UNL     1       4.794   3.891  12.919  0.00  0.00    +0.000 OA
ENDBRANCH  14  15
ENDBRANCH   3  14
TORSDOF 6
ENDMDL
MODEL 2
REMARK VINA RESULT:      -6.4      2.479      3.950
REMARK  Name = 
REMARK  6 active torsions:
REMARK  status: ('A' for Active; 'I' for Inactive)
REMARK    1  A    between atoms: C_2  and  C_3
REMARK    2  A    between atoms: C_3  and  C_4
REMARK    3  A    between atoms: C_4  and  O_5
REMARK    4  A    between atoms: O_5  and  C_6
REMARK    5  A    between atoms: N_12  and  C_13
REMARK    6  A    between atoms: C_13  and  C_14
REMARK                            x       y       z     vdW  Elec       q    Type
REMARK                         _______ _______ _______ _____ _____    ______ ____
ROOT
ATOM      1  O   UNL     1       4.962   2.488  20.239  0.00  0.00    +0.000 OA
ATOM      2  C   UNL     1       4.443   2.523  19.123  0.00  0.00    +0.000 C 
ATOM      3  N   UNL     1       4.896   3.364  18.135  0.00  0.00    +0.000 N 
ATOM      4  H   UNL     1       4.365   3.515  17.290  0.00  0.00    +0.000 HD
ENDROOT
BRANCH   2   5
ATOM      5  C   UNL     1       3.264   1.620  18.794  0.00  0.00    +0.000 C 
BRANCH   5   6
ATOM      6  C   UNL     1       2.270   2.201  17.803  0.00  0.00    +0.000 C 
BRANCH   6   7
ATOM      7  O   UNL     1       1.214   2.871  18.497  0.00  0.00    +0.000 OA
BRANCH   7   8
ATOM      8  C   UNL     1       1.550   4.120  18.958  0.00  0.00    +0.000 A 
ATOM      9  C   UNL     1       1.972   5.025  17.982  0.00  0.00    +0.000 A 
ATOM     10  C   UNL     1       2.343   6.324  18.338  0.00  0.00    +0.000 A 
ATOM     11  C   UNL     1       2.278   6.729  19.669  0.00  0.00    +0.000 A 
ATOM     12  C   UNL     1       1.837   5.836  20.645  0.00  0.00    +0.000 A 
ATOM     13  C   UNL     1       1.471   4.537  20.290  0.00  0.00    +0.000 A 
ENDBRANCH   7   8
ENDBRANCH   6   7
ENDBRANCH   5   6
ENDBRANCH   2   5
BRANCH   3  14
ATOM     14  C   UNL     1       5.987   4.303  18.331  0.00  0.00    +0.000 C 
BRANCH  14  15
ATOM     15  C   UNL     1       6.311   5.124  17.079  0.00  0.00    +0.000 C 
ATOM     16  C   UNL     1       5.172   5.314  16.093  0.00  0.00    +0.000 C 
ATOM     17  C   UNL     1       5.925   5.654  14.831  0.00  0.00    +0.000 C 
ATOM     18  C   UNL     1       7.145   4.761  14.933  0.00  0.00    +0.000 C 
ATOM     19  O   UNL     1       7.384   4.514  16.329  0.00  0.00    +0.000 OA
ENDBRANCH  14  15
ENDBRANCH   3  14
TORSDOF 6
ENDMDL
MODEL 3
REMARK VINA RESULT:      -6.3      1.828      6.714
REMARK  Name = 
REMARK  6 active torsions:
REMARK  status: ('A' for Active; 'I' for Inactive)
REMARK    1  A    between atoms: C_2  and  C_3
REMARK    2  A    between atoms: C_3  and  C_4
REMARK    3  A    between atoms: C_4  and  O_5
REMARK    4  A    between atoms: O_5  and  C_6
REMARK    5  A    between atoms: N_12  and  C_13
REMARK    6  A    between atoms: C_13  and  C_14
REMARK                            x       y       z     vdW  Elec       q    Type
REMARK                         _______ _______ _______ _____ _____    ______ ____
ROOT
ATOM      1  O   UNL     1       5.383   5.426  19.740  0.00  0.00    +0.000 OA
ATOM      2  C   UNL     1       5.863   4.702  18.868  0.00  0.00    +0.000 C 
ATOM      3  N   UNL     1       5.440   3.408  18.682  0.00  0.00    +0.000 N 
ATOM      4  H   UNL     1       5.950   2.768  18.091  0.00  0.00    +0.000 HD
ENDROOT
BRANCH   2   5
ATOM      5  C   UNL     1       6.958   5.223  17.951  0.00  0.00    +0.000 C 
BRANCH   5   6
ATOM      6  C   UNL     1       6.472   5.786  16.627  0.00  0.00    +0.000 C 
BRANCH   6   7
ATOM      7  O   UNL     1       5.802   4.773  15.874  0.00  0.00    +0.000 OA
BRANCH   7   8
ATOM      8  C   UNL     1       6.291   4.604  14.602  0.00  0.00    +0.000 A 
ATOM      9  C   UNL     1       5.620   3.661  13.822  0.00  0.00    +0.000 A 
ATOM     10  C   UNL     1       6.033   3.404  12.513  0.00  0.00    +0.000 A 
ATOM     11  C   UNL     1       7.112   4.101  11.973  0.00  0.00    +0.000 A 
ATOM     12  C   UNL     1       7.774   5.059  12.739  0.00  0.00    +0.000 A 
ATOM     13  C   UNL     1       7.362   5.312  14.048  0.00  0.00    +0.000 A 
ENDBRANCH   7   8
ENDBRANCH   6   7
ENDBRANCH   5   6
ENDBRANCH   2   5
BRANCH   3  14
ATOM     14  C   UNL     1       4.430   2.775  19.513  0.00  0.00    +0.000 C 
BRANCH  14  15
ATOM     15  C   UNL     1       3.017   3.312  19.264  0.00  0.00    +0.000 C 
ATOM     16  C   UNL     1       2.258   3.784  20.491  0.00  0.00    +0.000 C 
ATOM     17  C   UNL     1       0.833   3.724  20.000  0.00  0.00    +0.000 C 
ATOM     18  C   UNL     1       0.843   2.483  19.132  0.00  0.00    +0.000 C 
ATOM     19  O   UNL     1       2.186   2.303  18.649  0.00  0.00    +0.000 OA
ENDBRANCH  14  15
ENDBRANCH   3  14
TORSDOF 6
ENDMDL
MODEL 4
REMARK VINA RESULT:      -6.3      0.744      1.223
REMARK  Name = 
REMARK  6 active torsions:
REMARK  status: ('A' for Active; 'I' for Inactive)
REMARK    1  A    between atoms: C_2  and  C_3
REMARK    2  A    between atoms: C_3  and  C_4
REMARK    3  A    between atoms: C_4  and  O_5
REMARK    4  A    between atoms: O_5  and  C_6
REMARK    5  A    between atoms: N_12  and  C_13
REMARK    6  A    between atoms: C_13  and  C_14
REMARK                            x       y       z     vdW  Elec       q    Type
REMARK                         _______ _______ _______ _____ _____    ______ ____
ROOT
ATOM      1  O   UNL     1       7.964   4.523  16.656  0.00  0.00    +0.000 OA
ATOM      2  C   UNL     1       6.853   5.034  16.521  0.00  0.00    +0.000 C 
ATOM      3  N   UNL     1       6.250   5.151  15.292  0.00  0.00    +0.000 N 
ATOM      4  H   UNL     1       5.427   5.721  15.162  0.00  0.00    +0.000 HD
ENDROOT
BRANCH   2   5
ATOM      5  C   UNL     1       6.095   5.562  17.730  0.00  0.00    +0.000 C 
BRANCH   5   6
ATOM      6  C   UNL     1       5.501   4.493  18.630  0.00  0.00    +0.000 C 
BRANCH   6   7
ATOM      7  O   UNL     1       4.509   3.746  17.924  0.00  0.00    +0.000 OA
BRANCH   7   8
ATOM      8  C   UNL     1       3.352   3.538  18.634  0.00  0.00    +0.000 A 
ATOM      9  C   UNL     1       2.257   3.104  17.884  0.00  0.00    +0.000 A 
ATOM     10  C   UNL     1       1.029   2.865  18.502  0.00  0.00    +0.000 A 
ATOM     11  C   UNL     1       0.892   3.043  19.877  0.00  0.00    +0.000 A 
ATOM     12  C   UNL     1       1.986   3.456  20.635  0.00  0.00    +0.000 A 
ATOM     13  C   UNL     1       3.214   3.698  20.016  0.00  0.00    +0.000 A 
ENDBRANCH   7   8
ENDBRANCH   6   7
ENDBRANCH   5   6
ENDBRANCH   2   5
BRANCH   3  14
ATOM     14  C   UNL     1       6.880   4.724  14.055  0.00  0.00    +0.000 C 
BRANCH  14  15
ATOM     15  C   UNL     1       6.144   3.571  13.366  0.00  0.00    +0.000 C 
ATOM     16  C   UNL     1       6.776   3.043  12.091  0.00  0.00    +0.000 C 
ATOM     17  C   UNL     1       5.601   2.361  11.436  0.00  0.00    +0.000 C 
ATOM     18  C   UNL     1       4.455   3.288  11.785  0.00  0.00    +0.000 C 
ATOM     19  O   UNL     1       4.800   3.962  13.007  0.00  0.00    +0.000 OA
ENDBRANCH  14  15
ENDBRANCH   3  14
TORSDOF 6
ENDMDL
MODEL 5
REMARK VINA RESULT:      -6.2      1.356      1.793
REMARK  Name = 
REMARK  6 active torsions:
REMARK  status: ('A' for Active; 'I' for Inactive)
REMARK    1  A    between atoms: C_2  and  C_3
REMARK    2  A    between atoms: C_3  and  C_4
REMARK    3  A    between atoms: C_4  and  O_5
REMARK    4  A    between atoms: O_5  and  C_6
REMARK    5  A    between atoms: N_12  and  C_13
REMARK    6  A    between atoms: C_13  and  C_14
REMARK                            x       y       z     vdW  Elec       q    Type
REMARK                         _______ _______ _______ _____ _____    ______ ____
ROOT
ATOM      1  O   UNL     1       5.160   6.913  15.253  0.00  0.00    +0.000 OA
ATOM      2  C   UNL     1       5.433   5.970  15.996  0.00  0.00    +0.000 C 
ATOM      3  N   UNL     1       6.228   4.927  15.586  0.00  0.00    +0.000 N 
ATOM      4  H   UNL     1       6.305   4.080  16.130  0.00  0.00    +0.000 HD
ENDROOT
BRANCH   2   5
ATOM      5  C   UNL     1       4.891   5.927  17.416  0.00  0.00    +0.000 C 
BRANCH   5   6
ATOM      6  C   UNL     1       5.184   4.644  18.175  0.00  0.00    +0.000 C 
BRANCH   6   7
ATOM      7  O   UNL     1       4.674   4.729  19.507  0.00  0.00    +0.000 OA
BRANCH   7   8
ATOM      8  C   UNL     1       3.402   4.233  19.653  0.00  0.00    +0.000 A 
ATOM      9  C   UNL     1       3.163   3.003  19.035  0.00  0.00    +0.000 A 
ATOM     10  C   UNL     1       1.904   2.406  19.114  0.00  0.00    +0.000 A 
ATOM     11  C   UNL     1       0.880   3.028  19.825  0.00  0.00    +0.000 A 
ATOM     12  C   UNL     1       1.117   4.245  20.462  0.00  0.00    +0.000 A 
ATOM     13  C   UNL     1       2.375   4.843  20.379  0.00  0.00    +0.000 A 
ENDBRANCH   7   8
ENDBRANCH   6   7
ENDBRANCH   5   6
ENDBRANCH   2   5
BRANCH   3  14
ATOM     14  C   UNL     1       6.776   4.826  14.244  0.00  0.00    +0.000 C 
BRANCH  14  15
ATOM     15  C   UNL     1       6.212   3.647  13.447  0.00  0.00    +0.000 C 
ATOM     16  C   UNL     1       6.911   3.334  12.136  0.00  0.00    +0.000 C 
ATOM     17  C   UNL     1       5.845   2.552  11.410  0.00  0.00    +0.000 C 
ATOM     18  C   UNL     1       4.577   3.268  11.829  0.00  0.00    +0.000 C 
ATOM     19  O   UNL     1       4.825   3.870  13.111  0.00  0.00    +0.000 OA
ENDBRANCH  14  15
ENDBRANCH   3  14
TORSDOF 6
ENDMDL
MODEL 6
REMARK VINA RESULT:      -6.2      1.032      1.192
REMARK  Name = 
REMARK  6 active torsions:
REMARK  status: ('A' for Active; 'I' for Inactive)
REMARK    1  A    between atoms: C_2  and  C_3
REMARK    2  A    between atoms: C_3  and  C_4
REMARK    3  A    between atoms: C_4  and  O_5
REMARK    4  A    between atoms: O_5  and  C_6
REMARK    5  A    between atoms: N_12  and  C_13
REMARK    6  A    between atoms: C_13  and  C_14
REMARK                            x       y       z     vdW  Elec       q    Type
REMARK                         _______ _______ _______ _____ _____    ______ ____
ROOT
ATOM      1  O   UNL     1       7.567   6.535  16.377  0.00  0.00    +0.000 OA
ATOM      2  C   UNL     1       6.712   5.685  16.624  0.00  0.00    +0.000 C 
ATOM      3  N   UNL     1       6.256   4.811  15.667  0.00  0.00    +0.000 N 
ATOM      4  H   UNL     1       5.440   4.239  15.823  0.00  0.00    +0.000 HD
ENDROOT
BRANCH   2   5
ATOM      5  C   UNL     1       6.120   5.570  18.020  0.00  0.00    +0.000 C 
BRANCH   5   6
ATOM      6  C   UNL     1       4.678   6.032  18.145  0.00  0.00    +0.000 C 
BRANCH   6   7
ATOM      7  O   UNL     1       4.158   5.688  19.431  0.00  0.00    +0.000 OA
BRANCH   7   8
ATOM      8  C   UNL     1       3.068   4.853  19.390  0.00  0.00    +0.000 A 
ATOM      9  C   UNL     1       2.443   4.624  20.617  0.00  0.00    +0.000 A 
ATOM     10  C   UNL     1       1.328   3.788  20.696  0.00  0.00    +0.000 A 
ATOM     11  C   UNL     1       0.822   3.188  19.544  0.00  0.00    +0.000 A 
ATOM     12  C   UNL     1       1.429   3.430  18.313  0.00  0.00    +0.000 A 
ATOM     13  C   UNL     1       2.546   4.263  18.236  0.00  0.00    +0.000 A 
ENDBRANCH   7   8
ENDBRANCH   6   7
ENDBRANCH   5   6
ENDBRANCH   2   5
BRANCH   3  14
ATOM     14  C   UNL     1       6.709   4.839  14.286  0.00  0.00    +0.000 C 
BRANCH  14  15
ATOM     15  C   UNL     1       6.187   3.664  13.454  0.00  0.00    +0.000 C 
ATOM     16  C   UNL     1       6.896   3.415  12.135  0.00  0.00    +0.000 C 
ATOM     17  C   UNL     1       5.858   2.618  11.385  0.00  0.00    +0.000 C 
ATOM     18  C   UNL     1       4.566   3.276  11.824  0.00  0.00    +0.000 C 
ATOM     19  O   UNL     1       4.793   3.849  13.123  0.00  0.00    +0.000 OA
ENDBRANCH  14  15
ENDBRANCH   3  14
TORSDOF 6
ENDMDL
MODEL 7
REMARK VINA RESULT:      -6.2      0.962      1.524
REMARK  Name = 
REMARK  6 active torsions:
REMARK  status: ('A' for Active; 'I' for Inactive)
REMARK    1  A    between atoms: C_2  and  C_3
REMARK    2  A    between atoms: C_3  and  C_4
REMARK    3  A    between atoms: C_4  and  O_5
REMARK    4  A    between atoms: O_5  and  C_6
REMARK    5  A    between atoms: N_12  and  C_13
REMARK    6  A    between atoms: C_13  and  C_14
REMARK                            x       y       z     vdW  Elec       q    Type
REMARK                         _______ _______ _______ _____ _____    ______ ____
ROOT
ATOM      1  O   UNL     1       7.540   4.485  16.912  0.00  0.00    +0.000 OA
ATOM      2  C   UNL     1       6.622   5.257  16.637  0.00  0.00    +0.000 C 
ATOM      3  N   UNL     1       6.308   5.582  15.339  0.00  0.00    +0.000 N 
ATOM      4  H   UNL     1       5.678   6.340  15.124  0.00  0.00    +0.000 HD
ENDROOT
BRANCH   2   5
ATOM      5  C   UNL     1       5.788   5.887  17.741  0.00  0.00    +0.000 C 
BRANCH   5   6
ATOM      6  C   UNL     1       5.359   4.933  18.843  0.00  0.00    +0.000 C 
BRANCH   6   7
ATOM      7  O   UNL     1       4.301   5.510  19.612  0.00  0.00    +0.000 OA
BRANCH   7   8
ATOM      8  C   UNL     1       3.166   4.738  19.671  0.00  0.00    +0.000 A 
ATOM      9  C   UNL     1       3.187   3.581  18.891  0.00  0.00    +0.000 A 
ATOM     10  C   UNL     1       2.085   2.724  18.870  0.00  0.00    +0.000 A 
ATOM     11  C   UNL     1       0.962   3.011  19.644  0.00  0.00    +0.000 A 
ATOM     12  C   UNL     1       0.944   4.154  20.442  0.00  0.00    +0.000 A 
ATOM     13  C   UNL     1       2.044   5.012  20.459  0.00  0.00    +0.000 A 
ENDBRANCH   7   8
ENDBRANCH   6   7
ENDBRANCH   5   6
ENDBRANCH   2   5
BRANCH   3  14
ATOM     14  C   UNL     1       7.050   5.081  14.194  0.00  0.00    +0.000 C 
BRANCH  14  15
ATOM     15  C   UNL     1       6.404   3.853  13.544  0.00  0.00    +0.000 C 
ATOM     16  C   UNL     1       6.924   3.477  12.168  0.00  0.00    +0.000 C 
ATOM     17  C   UNL     1       5.784   2.644  11.637  0.00  0.00    +0.000 C 
ATOM     18  C   UNL     1       4.572   3.368  12.188  0.00  0.00    +0.000 C 
ATOM     19  O   UNL     1       4.981   4.042  13.391  0.00  0.00    +0.000 OA
ENDBRANCH  14  15
ENDBRANCH   3  14
TORSDOF 6
ENDMDL
MODEL 8
REMARK VINA RESULT:      -6.2      0.916      1.131
REMARK  Name = 
REMARK  6 active torsions:
REMARK  status: ('A' for Active; 'I' for Inactive)
REMARK    1  A    between atoms: C_2  and  C_3
REMARK    2  A    between atoms: C_3  and  C_4
REMARK    3  A    between atoms: C_4  and  O_5
REMARK    4  A    between atoms: O_5  and  C_6
REMARK    5  A    between atoms: N_12  and  C_13
REMARK    6  A    between atoms: C_13  and  C_14
REMARK                            x       y       z     vdW  Elec       q    Type
REMARK                         _______ _______ _______ _____ _____    ______ ____
ROOT
ATOM      1  O   UNL     1       7.832   4.435  16.536  0.00  0.00    +0.000 OA
ATOM      2  C   UNL     1       6.923   5.222  16.273  0.00  0.00    +0.000 C 
ATOM      3  N   UNL     1       6.513   5.455  14.983  0.00  0.00    +0.000 N 
ATOM      4  H   UNL     1       5.896   6.221  14.757  0.00  0.00    +0.000 HD
ENDROOT
BRANCH   2   5
ATOM      5  C   UNL     1       6.212   5.978  17.385  0.00  0.00    +0.000 C 
BRANCH   5   6
ATOM      6  C   UNL     1       4.701   6.050  17.245  0.00  0.00    +0.000 C 
BRANCH   6   7
ATOM      7  O   UNL     1       4.075   5.797  18.504  0.00  0.00    +0.000 OA
BRANCH   7   8
ATOM      8  C   UNL     1       3.395   4.605  18.562  0.00  0.00    +0.000 A 
ATOM      9  C   UNL     1       2.057   4.658  18.169  0.00  0.00    +0.000 A 
ATOM     10  C   UNL     1       1.268   3.507  18.192  0.00  0.00    +0.000 A 
ATOM     11  C   UNL     1       1.817   2.292  18.594  0.00  0.00    +0.000 A 
ATOM     12  C   UNL     1       3.159   2.227  18.967  0.00  0.00    +0.000 A 
ATOM     13  C   UNL     1       3.946   3.379  18.948  0.00  0.00    +0.000 A 
ENDBRANCH   7   8
ENDBRANCH   6   7
ENDBRANCH   5   6
ENDBRANCH   2   5
BRANCH   3  14
ATOM     14  C   UNL     1       7.133   4.829  13.827  0.00  0.00    +0.000 C 
BRANCH  14  15
ATOM     15  C   UNL     1       6.331   3.648  13.273  0.00  0.00    +0.000 C 
ATOM     16  C   UNL     1       6.814   3.074  11.954  0.00  0.00    +0.000 C 
ATOM     17  C   UNL     1       5.576   2.363  11.467  0.00  0.00    +0.000 C 
ATOM     18  C   UNL     1       4.471   3.298  11.912  0.00  0.00    +0.000 C 
ATOM     19  O   UNL     1       4.951   4.020  13.060  0.00  0.00    +0.000 OA
ENDBRANCH  14  15
ENDBRANCH   3  14
TORSDOF 6
ENDMDL
MODEL 9
REMARK VINA RESULT:      -6.2      1.838      7.027
REMARK  Name = 
REMARK  6 active torsions:
REMARK  status: ('A' for Active; 'I' for Inactive)
REMARK    1  A    between atoms: C_2  and  C_3
REMARK    2  A    between atoms: C_3  and  C_4
REMARK    3  A    between atoms: C_4  and  O_5
REMARK    4  A    between atoms: O_5  and  C_6
REMARK    5  A    between atoms: N_12  and  C_13
REMARK    6  A    between atoms: C_13  and  C_14
REMARK                            x       y       z     vdW  Elec       q    Type
REMARK                         _______ _______ _______ _____ _____    ______ ____
ROOT
ATOM      1  O   UNL     1       3.441   3.821  16.729  0.00  0.00    +0.000 OA
ATOM      2  C   UNL     1       4.426   3.620  17.440  0.00  0.00    +0.000 C 
ATOM      3  N   UNL     1       4.455   2.615  18.375  0.00  0.00    +0.000 N 
ATOM      4  H   UNL     1       5.185   2.563  19.070  0.00  0.00    +0.000 HD
ENDROOT
BRANCH   2   5
ATOM      5  C   UNL     1       5.664   4.492  17.305  0.00  0.00    +0.000 C 
BRANCH   5   6
ATOM      6  C   UNL     1       5.607   5.517  16.186  0.00  0.00    +0.000 C 
BRANCH   6   7
ATOM      7  O   UNL     1       6.849   5.548  15.478  0.00  0.00    +0.000 OA
BRANCH   7   8
ATOM      8  C   UNL     1       6.807   4.942  14.247  0.00  0.00    +0.000 A 
ATOM      9  C   UNL     1       5.740   4.065  14.045  0.00  0.00    +0.000 A 
ATOM     10  C   UNL     1       5.600   3.389  12.832  0.00  0.00    +0.000 A 
ATOM     11  C   UNL     1       6.519   3.599  11.806  0.00  0.00    +0.000 A 
ATOM     12  C   UNL     1       7.575   4.490  11.993  0.00  0.00    +0.000 A 
ATOM     13  C   UNL     1       7.717   5.162  13.208  0.00  0.00    +0.000 A 
ENDBRANCH   7   8
ENDBRANCH   6   7
ENDBRANCH   5   6
ENDBRANCH   2   5
BRANCH   3  14
ATOM     14  C   UNL     1       3.325   1.737  18.633  0.00  0.00    +0.000 C 
BRANCH  14  15
ATOM     15  C   UNL     1       2.376   2.270  19.709  0.00  0.00    +0.000 C 
ATOM     16  C   UNL     1       1.164   3.035  19.210  0.00  0.00    +0.000 C 
ATOM     17  C   UNL     1       0.785   3.827  20.436  0.00  0.00    +0.000 C 
ATOM     18  C   UNL     1       2.137   4.182  21.021  0.00  0.00    +0.000 C 
ATOM     19  O   UNL     1       3.068   3.168  20.604  0.00  0.00    +0.000 OA
ENDBRANCH  14  15
ENDBRANCH   3  14
TORSDOF 6
ENDMDL
