MODEL 1
REMARK VINA RESULT:      -5.5      0.000      0.000
REMARK  Name = 
REMARK  3 active torsions:
REMARK  status: ('A' for Active; 'I' for Inactive)
REMARK    1  A    between atoms: N_1  and  O_2
REMARK    2  A    between atoms: O_2  and  C_3
REMARK    3  A    between atoms: C_3  and  C_4
REMARK                            x       y       z     vdW  Elec       q    Type
REMARK                         _______ _______ _______ _____ _____    ______ ____
ROOT
ATOM      1  C   UNL     1       6.660   5.097  17.810  0.00  0.00    +0.000 A 
ATOM      2  C   UNL     1       5.318   5.010  18.215  0.00  0.00    +0.000 A 
ATOM      3  C   UNL     1       4.339   4.571  17.322  0.00  0.00    +0.000 A 
ATOM      4 CL   UNL     1       2.701   4.465  17.840  0.00  0.00    +0.000 Cl
ATOM      5  C   UNL     1       4.673   4.221  16.016  0.00  0.00    +0.000 A 
ATOM      6  C   UNL     1       6.000   4.309  15.612  0.00  0.00    +0.000 A 
ATOM      7 CL   UNL     1       6.429   3.883  13.998  0.00  0.00    +0.000 Cl
ATOM      8  C   UNL     1       6.992   4.750  16.492  0.00  0.00    +0.000 A 
ENDROOT
BRANCH   1   9
ATOM      9  C   UNL     1       7.718   5.594  18.764  0.00  0.00    +0.000 C 
BRANCH   9  10
ATOM     10  O   UNL     1       7.242   5.451  20.109  0.00  0.00    +0.000 OA
BRANCH  10  11
ATOM     11  N   UNL     1       8.380   5.183  20.983  0.00  0.00    +0.000 NA
ATOM     12  H   UNL     1       9.086   4.898  20.300  0.00  0.00    +0.000 HD
ATOM     13  H   UNL     1       8.083   4.320  21.441  0.00  0.00    +0.000 HD
ENDBRANCH  10  11
ENDBRANCH   9  10
ENDBRANCH   1   9
TORSDOF 3
ENDMDL
MODEL 2
REMARK VINA RESULT:      -5.5      0.328      2.722
REMARK  Name = 
REMARK  3 active torsions:
REMARK  status: ('A' for Active; 'I' for Inactive)
REMARK    1  A    between atoms: N_1  and  O_2
REMARK    2  A    between atoms: O_2  and  C_3
REMARK    3  A    between atoms: C_3  and  C_4
REMARK                            x       y       z     vdW  Elec       q    Type
REMARK                         _______ _______ _______ _____ _____    ______ ____
ROOT
ATOM      1  C   UNL     1       6.726   4.928  17.813  0.00  0.00    +0.000 A 
ATOM      2  C   UNL     1       6.998   4.682  16.458  0.00  0.00    +0.000 A 
ATOM      3  C   UNL     1       6.005   4.170  15.620  0.00  0.00    +0.000 A 
ATOM      4 CL   UNL     1       6.359   3.881  13.960  0.00  0.00    +0.000 Cl
ATOM      5  C   UNL     1       4.734   3.889  16.114  0.00  0.00    +0.000 A 
ATOM      6  C   UNL     1       4.463   4.130  17.455  0.00  0.00    +0.000 A 
ATOM      7 CL   UNL     1       2.895   3.782  18.083  0.00  0.00    +0.000 Cl
ATOM      8  C   UNL     1       5.446   4.638  18.308  0.00  0.00    +0.000 A 
ENDROOT
BRANCH   1   9
ATOM      9  C   UNL     1       7.802   5.458  18.727  0.00  0.00    +0.000 C 
BRANCH   9  10
ATOM     10  O   UNL     1       7.288   5.532  20.064  0.00  0.00    +0.000 OA
BRANCH  10  11
ATOM     11  N   UNL     1       8.353   5.173  20.996  0.00  0.00    +0.000 NA
ATOM     12  H   UNL     1       8.358   4.155  20.902  0.00  0.00    +0.000 HD
ATOM     13  H   UNL     1       7.905   5.360  21.895  0.00  0.00    +0.000 HD
ENDBRANCH  10  11
ENDBRANCH   9  10
ENDBRANCH   1   9
TORSDOF 3
ENDMDL
MODEL 3
REMARK VINA RESULT:      -5.3      2.672      3.194
REMARK  Name = 
REMARK  3 active torsions:
REMARK  status: ('A' for Active; 'I' for Inactive)
REMARK    1  A    between atoms: N_1  and  O_2
REMARK    2  A    between atoms: O_2  and  C_3
REMARK    3  A    between atoms: C_3  and  C_4
REMARK                            x       y       z     vdW  Elec       q    Type
REMARK                         _______ _______ _______ _____ _____    ______ ____
ROOT
ATOM      1  C   UNL     1       5.221   4.966  16.651  0.00  0.00    +0.000 A 
ATOM      2  C   UNL     1       4.664   6.177  17.092  0.00  0.00    +0.000 A 
ATOM      3  C   UNL     1       3.410   6.195  17.704  0.00  0.00    +0.000 A 
ATOM      4 CL   UNL     1       2.748   7.690  18.243  0.00  0.00    +0.000 Cl
ATOM      5  C   UNL     1       2.688   5.017  17.880  0.00  0.00    +0.000 A 
ATOM      6  C   UNL     1       3.236   3.818  17.443  0.00  0.00    +0.000 A 
ATOM      7 CL   UNL     1       2.353   2.352  17.650  0.00  0.00    +0.000 Cl
ATOM      8  C   UNL     1       4.489   3.783  16.825  0.00  0.00    +0.000 A 
ENDROOT
BRANCH   1   9
ATOM      9  C   UNL     1       6.566   4.944  15.967  0.00  0.00    +0.000 C 
BRANCH   9  10
ATOM     10  O   UNL     1       7.576   5.340  16.904  0.00  0.00    +0.000 OA
BRANCH  10  11
ATOM     11  N   UNL     1       8.066   4.150  17.595  0.00  0.00    +0.000 NA
ATOM     12  H   UNL     1       9.069   4.218  17.412  0.00  0.00    +0.000 HD
ATOM     13  H   UNL     1       7.728   3.408  16.981  0.00  0.00    +0.000 HD
ENDBRANCH  10  11
ENDBRANCH   9  10
ENDBRANCH   1   9
TORSDOF 3
ENDMDL
MODEL 4
REMARK VINA RESULT:      -5.2      3.483      4.345
REMARK  Name = 
REMARK  3 active torsions:
REMARK  status: ('A' for Active; 'I' for Inactive)
REMARK    1  A    between atoms: N_1  and  O_2
REMARK    2  A    between atoms: O_2  and  C_3
REMARK    3  A    between atoms: C_3  and  C_4
REMARK                            x       y       z     vdW  Elec       q    Type
REMARK                         _______ _______ _______ _____ _____    ______ ____
ROOT
ATOM      1  C   UNL     1       6.376   4.619  15.873  0.00  0.00    +0.000 A 
ATOM      2  C   UNL     1       7.184   5.100  16.916  0.00  0.00    +0.000 A 
ATOM      3  C   UNL     1       6.720   5.083  18.233  0.00  0.00    +0.000 A 
ATOM      4 CL   UNL     1       7.728   5.673  19.497  0.00  0.00    +0.000 Cl
ATOM      5  C   UNL     1       5.450   4.598  18.532  0.00  0.00    +0.000 A 
ATOM      6  C   UNL     1       4.648   4.122  17.502  0.00  0.00    +0.000 A 
ATOM      7 CL   UNL     1       3.071   3.522  17.856  0.00  0.00    +0.000 Cl
ATOM      8  C   UNL     1       5.095   4.136  16.178  0.00  0.00    +0.000 A 
ENDROOT
BRANCH   1   9
ATOM      9  C   UNL     1       6.864   4.658  14.446  0.00  0.00    +0.000 C 
BRANCH   9  10
ATOM     10  O   UNL     1       7.937   5.603  14.342  0.00  0.00    +0.000 OA
BRANCH  10  11
ATOM     11  N   UNL     1       8.242   5.811  12.929  0.00  0.00    +0.000 NA
ATOM     12  H   UNL     1       8.819   6.654  12.977  0.00  0.00    +0.000 HD
ATOM     13  H   UNL     1       7.337   6.123  12.572  0.00  0.00    +0.000 HD
ENDBRANCH  10  11
ENDBRANCH   9  10
ENDBRANCH   1   9
TORSDOF 3
ENDMDL
MODEL 5
REMARK VINA RESULT:      -5.2      3.509      4.068
REMARK  Name = 
REMARK  3 active torsions:
REMARK  status: ('A' for Active; 'I' for Inactive)
REMARK    1  A    between atoms: N_1  and  O_2
REMARK    2  A    between atoms: O_2  and  C_3
REMARK    3  A    between atoms: C_3  and  C_4
REMARK                            x       y       z     vdW  Elec       q    Type
REMARK                         _______ _______ _______ _____ _____    ______ ____
ROOT
ATOM      1  C   UNL     1       6.350   4.614  15.875  0.00  0.00    +0.000 A 
ATOM      2  C   UNL     1       5.117   4.037  16.220  0.00  0.00    +0.000 A 
ATOM      3  C   UNL     1       4.713   3.984  17.556  0.00  0.00    +0.000 A 
ATOM      4 CL   UNL     1       3.196   3.278  17.957  0.00  0.00    +0.000 Cl
ATOM      5  C   UNL     1       5.526   4.493  18.565  0.00  0.00    +0.000 A 
ATOM      6  C   UNL     1       6.747   5.063  18.226  0.00  0.00    +0.000 A 
ATOM      7 CL   UNL     1       7.766   5.694  19.465  0.00  0.00    +0.000 Cl
ATOM      8  C   UNL     1       7.168   5.121  16.895  0.00  0.00    +0.000 A 
ENDROOT
BRANCH   1   9
ATOM      9  C   UNL     1       6.802   4.652  14.436  0.00  0.00    +0.000 C 
BRANCH   9  10
ATOM     10  O   UNL     1       7.900   5.566  14.313  0.00  0.00    +0.000 OA
BRANCH  10  11
ATOM     11  N   UNL     1       8.197   5.753  12.895  0.00  0.00    +0.000 NA
ATOM     12  H   UNL     1       7.909   4.848  12.515  0.00  0.00    +0.000 HD
ATOM     13  H   UNL     1       9.218   5.734  12.899  0.00  0.00    +0.000 HD
ENDBRANCH  10  11
ENDBRANCH   9  10
ENDBRANCH   1   9
TORSDOF 3
ENDMDL
MODEL 6
REMARK VINA RESULT:      -5.2      3.083      3.637
REMARK  Name = 
REMARK  3 active torsions:
REMARK  status: ('A' for Active; 'I' for Inactive)
REMARK    1  A    between atoms: N_1  and  O_2
REMARK    2  A    between atoms: O_2  and  C_3
REMARK    3  A    between atoms: C_3  and  C_4
REMARK                            x       y       z     vdW  Elec       q    Type
REMARK                         _______ _______ _______ _____ _____    ______ ____
ROOT
ATOM      1  C   UNL     1       5.555   4.974  17.207  0.00  0.00    +0.000 A 
ATOM      2  C   UNL     1       4.763   3.815  17.240  0.00  0.00    +0.000 A 
ATOM      3  C   UNL     1       3.397   3.902  17.516  0.00  0.00    +0.000 A 
ATOM      4 CL   UNL     1       2.444   2.469  17.547  0.00  0.00    +0.000 Cl
ATOM      5  C   UNL     1       2.801   5.134  17.769  0.00  0.00    +0.000 A 
ATOM      6  C   UNL     1       3.582   6.282  17.738  0.00  0.00    +0.000 A 
ATOM      7 CL   UNL     1       2.859   7.814  18.054  0.00  0.00    +0.000 Cl
ATOM      8  C   UNL     1       4.951   6.212  17.468  0.00  0.00    +0.000 A 
ENDROOT
BRANCH   1   9
ATOM      9  C   UNL     1       7.036   4.883  16.933  0.00  0.00    +0.000 C 
BRANCH   9  10
ATOM     10  O   UNL     1       7.406   5.911  16.004  0.00  0.00    +0.000 OA
BRANCH  10  11
ATOM     11  N   UNL     1       7.475   5.330  14.666  0.00  0.00    +0.000 NA
ATOM     12  H   UNL     1       6.641   5.736  14.235  0.00  0.00    +0.000 HD
ATOM     13  H   UNL     1       7.235   4.356  14.857  0.00  0.00    +0.000 HD
ENDBRANCH  10  11
ENDBRANCH   9  10
ENDBRANCH   1   9
TORSDOF 3
ENDMDL
MODEL 7
REMARK VINA RESULT:      -5.2      3.064      3.500
REMARK  Name = 
REMARK  3 active torsions:
REMARK  status: ('A' for Active; 'I' for Inactive)
REMARK    1  A    between atoms: N_1  and  O_2
REMARK    2  A    between atoms: O_2  and  C_3
REMARK    3  A    between atoms: C_3  and  C_4
REMARK                            x       y       z     vdW  Elec       q    Type
REMARK                         _______ _______ _______ _____ _____    ______ ____
ROOT
ATOM      1  C   UNL     1       5.589   5.016  17.274  0.00  0.00    +0.000 A 
ATOM      2  C   UNL     1       4.977   6.260  17.499  0.00  0.00    +0.000 A 
ATOM      3  C   UNL     1       3.606   6.336  17.749  0.00  0.00    +0.000 A 
ATOM      4 CL   UNL     1       2.877   7.870  18.028  0.00  0.00    +0.000 Cl
ATOM      5  C   UNL     1       2.823   5.185  17.774  0.00  0.00    +0.000 A 
ATOM      6  C   UNL     1       3.425   3.954  17.550  0.00  0.00    +0.000 A 
ATOM      7 CL   UNL     1       2.468   2.520  17.572  0.00  0.00    +0.000 Cl
ATOM      8  C   UNL     1       4.795   3.860  17.294  0.00  0.00    +0.000 A 
ENDROOT
BRANCH   1   9
ATOM      9  C   UNL     1       7.066   4.930  16.978  0.00  0.00    +0.000 C 
BRANCH   9  10
ATOM     10  O   UNL     1       7.416   5.951  16.034  0.00  0.00    +0.000 OA
BRANCH  10  11
ATOM     11  N   UNL     1       7.528   5.346  14.710  0.00  0.00    +0.000 NA
ATOM     12  H   UNL     1       8.536   5.188  14.653  0.00  0.00    +0.000 HD
ATOM     13  H   UNL     1       7.345   6.149  14.106  0.00  0.00    +0.000 HD
ENDBRANCH  10  11
ENDBRANCH   9  10
ENDBRANCH   1   9
TORSDOF 3
ENDMDL
MODEL 8
REMARK VINA RESULT:      -5.2      2.540      3.505
REMARK  Name = 
REMARK  3 active torsions:
REMARK  status: ('A' for Active; 'I' for Inactive)
REMARK    1  A    between atoms: N_1  and  O_2
REMARK    2  A    between atoms: O_2  and  C_3
REMARK    3  A    between atoms: C_3  and  C_4
REMARK                            x       y       z     vdW  Elec       q    Type
REMARK                         _______ _______ _______ _____ _____    ______ ____
ROOT
ATOM      1  C   UNL     1       5.196   4.260  17.664  0.00  0.00    +0.000 A 
ATOM      2  C   UNL     1       5.246   3.795  16.340  0.00  0.00    +0.000 A 
ATOM      3  C   UNL     1       6.047   4.438  15.395  0.00  0.00    +0.000 A 
ATOM      4 CL   UNL     1       6.097   3.848  13.780  0.00  0.00    +0.000 Cl
ATOM      5  C   UNL     1       6.803   5.554  15.746  0.00  0.00    +0.000 A 
ATOM      6  C   UNL     1       6.755   6.018  17.055  0.00  0.00    +0.000 A 
ATOM      7 CL   UNL     1       7.681   7.400  17.504  0.00  0.00    +0.000 Cl
ATOM      8  C   UNL     1       5.955   5.388  18.012  0.00  0.00    +0.000 A 
ENDROOT
BRANCH   1   9
ATOM      9  C   UNL     1       4.313   3.583  18.683  0.00  0.00    +0.000 C 
BRANCH   9  10
ATOM     10  O   UNL     1       5.118   3.150  19.788  0.00  0.00    +0.000 OA
BRANCH  10  11
ATOM     11  N   UNL     1       5.001   1.699  19.912  0.00  0.00    +0.000 NA
ATOM     12  H   UNL     1       5.981   1.419  19.835  0.00  0.00    +0.000 HD
ATOM     13  H   UNL     1       4.577   1.455  19.016  0.00  0.00    +0.000 HD
ENDBRANCH  10  11
ENDBRANCH   9  10
ENDBRANCH   1   9
TORSDOF 3
ENDMDL
MODEL 9
REMARK VINA RESULT:      -5.2      2.403      3.083
REMARK  Name = 
REMARK  3 active torsions:
REMARK  status: ('A' for Active; 'I' for Inactive)
REMARK    1  A    between atoms: N_1  and  O_2
REMARK    2  A    between atoms: O_2  and  C_3
REMARK    3  A    between atoms: C_3  and  C_4
REMARK                            x       y       z     vdW  Elec       q    Type
REMARK                         _______ _______ _______ _____ _____    ______ ____
ROOT
ATOM      1  C   UNL     1       5.076   5.000  18.364  0.00  0.00    +0.000 A 
ATOM      2  C   UNL     1       4.389   3.786  18.210  0.00  0.00    +0.000 A 
ATOM      3  C   UNL     1       3.014   3.779  17.969  0.00  0.00    +0.000 A 
ATOM      4 CL   UNL     1       2.191   2.279  17.777  0.00  0.00    +0.000 Cl
ATOM      5  C   UNL     1       2.301   4.972  17.886  0.00  0.00    +0.000 A 
ATOM      6  C   UNL     1       2.978   6.176  18.040  0.00  0.00    +0.000 A 
ATOM      7 CL   UNL     1       2.109   7.661  17.943  0.00  0.00    +0.000 Cl
ATOM      8  C   UNL     1       4.354   6.200  18.285  0.00  0.00    +0.000 A 
ENDROOT
BRANCH   1   9
ATOM      9  C   UNL     1       6.558   5.012  18.648  0.00  0.00    +0.000 C 
BRANCH   9  10
ATOM     10  O   UNL     1       6.766   5.264  20.045  0.00  0.00    +0.000 OA
BRANCH  10  11
ATOM     11  N   UNL     1       8.194   5.466  20.277  0.00  0.00    +0.000 NA
ATOM     12  H   UNL     1       8.171   6.113  21.068  0.00  0.00    +0.000 HD
ATOM     13  H   UNL     1       8.449   6.035  19.468  0.00  0.00    +0.000 HD
ENDBRANCH  10  11
ENDBRANCH   9  10
ENDBRANCH   1   9
TORSDOF 3
ENDMDL
