MODEL 1
REMARK VINA RESULT:      -8.5      0.000      0.000
REMARK  Name = 
REMARK  5 active torsions:
REMARK  status: ('A' for Active; 'I' for Inactive)
REMARK    1  A    between atoms: C_5  and  C_6
REMARK    2  A    between atoms: C_9  and  C_10
REMARK    3  A    between atoms: N_16  and  C_17
REMARK    4  A    between atoms: C_17  and  C_18
REMARK    5  A    between atoms: C_24  and  O_25
REMARK                            x       y       z     vdW  Elec       q    Type
REMARK                         _______ _______ _______ _____ _____    ______ ____
ROOT
ATOM      1  O   UNL     1       7.536   5.605  20.279  0.00  0.00    +0.000 OA
ATOM      2  C   UNL     1       7.427   5.825  19.081  0.00  0.00    +0.000 A 
ATOM      3  O   UNL     1       8.037   6.870  18.432  0.00  0.00    +0.000 OA
ATOM      4  N   UNL     1       7.735   6.711  17.050  0.00  0.00    +0.000 NA
ATOM      5  C   UNL     1       6.972   5.669  16.982  0.00  0.00    +0.000 A 
ATOM      6  N   UNL     1       6.716   5.108  18.180  0.00  0.00    +0.000 N 
ENDROOT
BRANCH   5   7
ATOM      7  C   UNL     1       6.495   5.125  15.695  0.00  0.00    +0.000 A 
ATOM      8  C   UNL     1       7.416   5.021  14.644  0.00  0.00    +0.000 A 
ATOM      9  C   UNL     1       7.040   4.438  13.430  0.00  0.00    +0.000 A 
ATOM     10  C   UNL     1       5.736   3.953  13.250  0.00  0.00    +0.000 A 
ATOM     11  C   UNL     1       4.807   4.106  14.292  0.00  0.00    +0.000 A 
ATOM     12  C   UNL     1       5.176   4.710  15.496  0.00  0.00    +0.000 A 
BRANCH  10  13
ATOM     13  C   UNL     1       5.322   3.266  11.971  0.00  0.00    +0.000 C 
ATOM     14  F   UNL     1       3.975   3.232  11.778  0.00  0.00    +0.000 F 
ATOM     15  F   UNL     1       5.843   3.876  10.870  0.00  0.00    +0.000 F 
ATOM     16  F   UNL     1       5.745   1.973  11.916  0.00  0.00    +0.000 F 
ENDBRANCH  10  13
ENDBRANCH   5   7
BRANCH   6  17
ATOM     17  C   UNL     1       6.053   3.865  18.545  0.00  0.00    +0.000 C 
BRANCH  17  18
ATOM     18  C   UNL     1       4.709   4.020  19.238  0.00  0.00    +0.000 A 
ATOM     19  C   UNL     1       4.009   5.238  19.297  0.00  0.00    +0.000 A 
ATOM     20  C   UNL     1       2.825   5.345  20.031  0.00  0.00    +0.000 A 
ATOM     21 CL   UNL     1       1.995   6.851  20.097  0.00  0.00    +0.000 Cl
ATOM     22  C   UNL     1       2.314   4.247  20.718  0.00  0.00    +0.000 A 
ATOM     23  C   UNL     1       2.983   3.026  20.660  0.00  0.00    +0.000 A 
ATOM     24  C   UNL     1       4.163   2.921  19.920  0.00  0.00    +0.000 A 
BRANCH  24  25
ATOM     25  O   UNL     1       4.817   1.722  19.850  0.00  0.00    +0.000 OA
ATOM     26  H   UNL     1       5.242   1.644  18.979  0.00  0.00    +0.000 HD
ENDBRANCH  24  25
ENDBRANCH  17  18
ENDBRANCH   6  17
TORSDOF 5
ENDMDL
MODEL 2
REMARK VINA RESULT:      -8.4      0.762      1.066
REMARK  Name = 
REMARK  5 active torsions:
REMARK  status: ('A' for Active; 'I' for Inactive)
REMARK    1  A    between atoms: C_5  and  C_6
REMARK    2  A    between atoms: C_9  and  C_10
REMARK    3  A    between atoms: N_16  and  C_17
REMARK    4  A    between atoms: C_17  and  C_18
REMARK    5  A    between atoms: C_24  and  O_25
REMARK                            x       y       z     vdW  Elec       q    Type
REMARK                         _______ _______ _______ _____ _____    ______ ____
ROOT
ATOM      1  O   UNL     1       7.425   5.631  20.292  0.00  0.00    +0.000 OA
ATOM      2  C   UNL     1       7.349   5.830  19.089  0.00  0.00    +0.000 A 
ATOM      3  O   UNL     1       8.014   6.836  18.432  0.00  0.00    +0.000 OA
ATOM      4  N   UNL     1       7.734   6.660  17.047  0.00  0.00    +0.000 NA
ATOM      5  C   UNL     1       6.932   5.648  16.984  0.00  0.00    +0.000 A 
ATOM      6  N   UNL     1       6.629   5.123  18.187  0.00  0.00    +0.000 N 
ENDROOT
BRANCH   5   7
ATOM      7  C   UNL     1       6.460   5.096  15.698  0.00  0.00    +0.000 A 
ATOM      8  C   UNL     1       7.383   4.997  14.648  0.00  0.00    +0.000 A 
ATOM      9  C   UNL     1       7.012   4.407  13.435  0.00  0.00    +0.000 A 
ATOM     10  C   UNL     1       5.713   3.911  13.256  0.00  0.00    +0.000 A 
ATOM     11  C   UNL     1       4.782   4.059  14.297  0.00  0.00    +0.000 A 
ATOM     12  C   UNL     1       5.146   4.669  15.499  0.00  0.00    +0.000 A 
BRANCH  10  13
ATOM     13  C   UNL     1       5.306   3.216  11.979  0.00  0.00    +0.000 C 
ATOM     14  F   UNL     1       5.668   1.905  11.928  0.00  0.00    +0.000 F 
ATOM     15  F   UNL     1       3.957   3.240  11.790  0.00  0.00    +0.000 F 
ATOM     16  F   UNL     1       5.848   3.800  10.875  0.00  0.00    +0.000 F 
ENDBRANCH  10  13
ENDBRANCH   5   7
BRANCH   6  17
ATOM     17  C   UNL     1       5.910   3.914  18.562  0.00  0.00    +0.000 C 
BRANCH  17  18
ATOM     18  C   UNL     1       4.419   4.089  18.800  0.00  0.00    +0.000 A 
ATOM     19  C   UNL     1       3.865   5.226  19.414  0.00  0.00    +0.000 A 
ATOM     20  C   UNL     1       2.497   5.290  19.695  0.00  0.00    +0.000 A 
ATOM     21 CL   UNL     1       1.848   6.688  20.460  0.00  0.00    +0.000 Cl
ATOM     22  C   UNL     1       1.656   4.228  19.372  0.00  0.00    +0.000 A 
ATOM     23  C   UNL     1       2.181   3.099  18.748  0.00  0.00    +0.000 A 
ATOM     24  C   UNL     1       3.548   3.041  18.463  0.00  0.00    +0.000 A 
BRANCH  24  25
ATOM     25  O   UNL     1       4.066   1.939  17.840  0.00  0.00    +0.000 OA
ATOM     26  H   UNL     1       4.876   2.195  17.367  0.00  0.00    +0.000 HD
ENDBRANCH  24  25
ENDBRANCH  17  18
ENDBRANCH   6  17
TORSDOF 5
ENDMDL
MODEL 3
REMARK VINA RESULT:      -8.3      4.699      7.219
REMARK  Name = 
REMARK  5 active torsions:
REMARK  status: ('A' for Active; 'I' for Inactive)
REMARK    1  A    between atoms: C_5  and  C_6
REMARK    2  A    between atoms: C_9  and  C_10
REMARK    3  A    between atoms: N_16  and  C_17
REMARK    4  A    between atoms: C_17  and  C_18
REMARK    5  A    between atoms: C_24  and  O_25
REMARK                            x       y       z     vdW  Elec       q    Type
REMARK                         _______ _______ _______ _____ _____    ______ ____
ROOT
ATOM      1  O   UNL     1       3.959   0.945  18.657  0.00  0.00    +0.000 OA
ATOM      2  C   UNL     1       3.159   1.869  18.681  0.00  0.00    +0.000 A 
ATOM      3  O   UNL     1       1.809   1.724  18.476  0.00  0.00    +0.000 OA
ATOM      4  N   UNL     1       1.235   3.010  18.682  0.00  0.00    +0.000 NA
ATOM      5  C   UNL     1       2.230   3.795  18.936  0.00  0.00    +0.000 A 
ATOM      6  N   UNL     1       3.426   3.175  18.914  0.00  0.00    +0.000 N 
ENDROOT
BRANCH   5   7
ATOM      7  C   UNL     1       2.043   5.218  19.283  0.00  0.00    +0.000 A 
ATOM      8  C   UNL     1       2.276   6.173  18.285  0.00  0.00    +0.000 A 
ATOM      9  C   UNL     1       2.035   7.528  18.534  0.00  0.00    +0.000 A 
ATOM     10  C   UNL     1       1.561   7.946  19.786  0.00  0.00    +0.000 A 
ATOM     11  C   UNL     1       1.377   6.987  20.794  0.00  0.00    +0.000 A 
ATOM     12  C   UNL     1       1.639   5.636  20.553  0.00  0.00    +0.000 A 
BRANCH  10  13
ATOM     13  C   UNL     1       1.237   9.394  20.060  0.00  0.00    +0.000 C 
ATOM     14  F   UNL     1      -0.091   9.684  19.980  0.00  0.00    +0.000 F 
ATOM     15  F   UNL     1       1.630   9.781  21.306  0.00  0.00    +0.000 F 
ATOM     16  F   UNL     1       1.860  10.240  19.193  0.00  0.00    +0.000 F 
ENDBRANCH  10  13
ENDBRANCH   5   7
BRANCH   6  17
ATOM     17  C   UNL     1       4.758   3.628  19.287  0.00  0.00    +0.000 C 
BRANCH  17  18
ATOM     18  C   UNL     1       5.531   4.351  18.197  0.00  0.00    +0.000 A 
ATOM     19  C   UNL     1       5.284   4.167  16.825  0.00  0.00    +0.000 A 
ATOM     20  C   UNL     1       6.091   4.785  15.866  0.00  0.00    +0.000 A 
ATOM     21 CL   UNL     1       5.774   4.530  14.194  0.00  0.00    +0.000 Cl
ATOM     22  C   UNL     1       7.156   5.595  16.249  0.00  0.00    +0.000 A 
ATOM     23  C   UNL     1       7.408   5.806  17.604  0.00  0.00    +0.000 A 
ATOM     24  C   UNL     1       6.596   5.191  18.560  0.00  0.00    +0.000 A 
BRANCH  24  25
ATOM     25  O   UNL     1       6.833   5.404  19.890  0.00  0.00    +0.000 OA
ATOM     26  H   UNL     1       7.792   5.379  20.048  0.00  0.00    +0.000 HD
ENDBRANCH  24  25
ENDBRANCH  17  18
ENDBRANCH   6  17
TORSDOF 5
ENDMDL
MODEL 4
REMARK VINA RESULT:      -8.2      0.245      1.213
REMARK  Name = 
REMARK  5 active torsions:
REMARK  status: ('A' for Active; 'I' for Inactive)
REMARK    1  A    between atoms: C_5  and  C_6
REMARK    2  A    between atoms: C_9  and  C_10
REMARK    3  A    between atoms: N_16  and  C_17
REMARK    4  A    between atoms: C_17  and  C_18
REMARK    5  A    between atoms: C_24  and  O_25
REMARK                            x       y       z     vdW  Elec       q    Type
REMARK                         _______ _______ _______ _____ _____    ______ ____
ROOT
ATOM      1  O   UNL     1       7.464   5.782  20.117  0.00  0.00    +0.000 OA
ATOM      2  C   UNL     1       7.364   5.916  18.906  0.00  0.00    +0.000 A 
ATOM      3  O   UNL     1       7.931   6.946  18.197  0.00  0.00    +0.000 OA
ATOM      4  N   UNL     1       7.661   6.680  16.824  0.00  0.00    +0.000 NA
ATOM      5  C   UNL     1       6.954   5.598  16.816  0.00  0.00    +0.000 A 
ATOM      6  N   UNL     1       6.707   5.104  18.045  0.00  0.00    +0.000 N 
ENDROOT
BRANCH   5   7
ATOM      7  C   UNL     1       6.528   4.945  15.562  0.00  0.00    +0.000 A 
ATOM      8  C   UNL     1       5.228   4.426  15.499  0.00  0.00    +0.000 A 
ATOM      9  C   UNL     1       4.744   3.871  14.311  0.00  0.00    +0.000 A 
ATOM     10  C   UNL     1       5.556   3.825  13.168  0.00  0.00    +0.000 A 
ATOM     11  C   UNL     1       6.874   4.303  13.254  0.00  0.00    +0.000 A 
ATOM     12  C   UNL     1       7.364   4.836  14.448  0.00  0.00    +0.000 A 
BRANCH  10  13
ATOM     13  C   UNL     1       5.038   3.285  11.857  0.00  0.00    +0.000 C 
ATOM     14  F   UNL     1       5.293   4.094  10.792  0.00  0.00    +0.000 F 
ATOM     15  F   UNL     1       5.585   2.076  11.548  0.00  0.00    +0.000 F 
ATOM     16  F   UNL     1       3.690   3.092  11.871  0.00  0.00    +0.000 F 
ENDBRANCH  10  13
ENDBRANCH   5   7
BRANCH   6  17
ATOM     17  C   UNL     1       6.102   3.855  18.483  0.00  0.00    +0.000 C 
BRANCH  17  18
ATOM     18  C   UNL     1       4.760   3.989  19.182  0.00  0.00    +0.000 A 
ATOM     19  C   UNL     1       4.042   5.195  19.247  0.00  0.00    +0.000 A 
ATOM     20  C   UNL     1       2.859   5.283  19.987  0.00  0.00    +0.000 A 
ATOM     21 CL   UNL     1       2.008   6.776  20.061  0.00  0.00    +0.000 Cl
ATOM     22  C   UNL     1       2.368   4.176  20.674  0.00  0.00    +0.000 A 
ATOM     23  C   UNL     1       3.055   2.965  20.609  0.00  0.00    +0.000 A 
ATOM     24  C   UNL     1       4.233   2.879  19.864  0.00  0.00    +0.000 A 
BRANCH  24  25
ATOM     25  O   UNL     1       4.905   1.690  19.788  0.00  0.00    +0.000 OA
ATOM     26  H   UNL     1       5.638   1.781  19.156  0.00  0.00    +0.000 HD
ENDBRANCH  24  25
ENDBRANCH  17  18
ENDBRANCH   6  17
TORSDOF 5
ENDMDL
MODEL 5
REMARK VINA RESULT:      -8.1      0.838      1.278
REMARK  Name = 
REMARK  5 active torsions:
REMARK  status: ('A' for Active; 'I' for Inactive)
REMARK    1  A    between atoms: C_5  and  C_6
REMARK    2  A    between atoms: C_9  and  C_10
REMARK    3  A    between atoms: N_16  and  C_17
REMARK    4  A    between atoms: C_17  and  C_18
REMARK    5  A    between atoms: C_24  and  O_25
REMARK                            x       y       z     vdW  Elec       q    Type
REMARK                         _______ _______ _______ _____ _____    ______ ____
ROOT
ATOM      1  O   UNL     1       7.360   5.867  20.075  0.00  0.00    +0.000 OA
ATOM      2  C   UNL     1       7.294   5.973  18.859  0.00  0.00    +0.000 A 
ATOM      3  O   UNL     1       7.919   6.960  18.138  0.00  0.00    +0.000 OA
ATOM      4  N   UNL     1       7.670   6.669  16.766  0.00  0.00    +0.000 NA
ATOM      5  C   UNL     1       6.920   5.616  16.769  0.00  0.00    +0.000 A 
ATOM      6  N   UNL     1       6.625   5.166  18.004  0.00  0.00    +0.000 N 
ENDROOT
BRANCH   5   7
ATOM      7  C   UNL     1       6.497   4.948  15.522  0.00  0.00    +0.000 A 
ATOM      8  C   UNL     1       5.172   4.501  15.433  0.00  0.00    +0.000 A 
ATOM      9  C   UNL     1       4.695   3.935  14.246  0.00  0.00    +0.000 A 
ATOM     10  C   UNL     1       5.539   3.805  13.133  0.00  0.00    +0.000 A 
ATOM     11  C   UNL     1       6.878   4.211  13.249  0.00  0.00    +0.000 A 
ATOM     12  C   UNL     1       7.361   4.754  14.441  0.00  0.00    +0.000 A 
BRANCH  10  13
ATOM     13  C   UNL     1       5.032   3.253  11.823  0.00  0.00    +0.000 C 
ATOM     14  F   UNL     1       3.686   3.057  11.795  0.00  0.00    +0.000 F 
ATOM     15  F   UNL     1       5.313   4.079  10.776  0.00  0.00    +0.000 F 
ATOM     16  F   UNL     1       5.595   2.053  11.513  0.00  0.00    +0.000 F 
ENDBRANCH  10  13
ENDBRANCH   5   7
BRANCH   6  17
ATOM     17  C   UNL     1       5.960   3.953  18.459  0.00  0.00    +0.000 C 
BRANCH  17  18
ATOM     18  C   UNL     1       4.466   4.082  18.708  0.00  0.00    +0.000 A 
ATOM     19  C   UNL     1       3.885   5.186  19.356  0.00  0.00    +0.000 A 
ATOM     20  C   UNL     1       2.518   5.206  19.644  0.00  0.00    +0.000 A 
ATOM     21 CL   UNL     1       1.836   6.565  20.450  0.00  0.00    +0.000 Cl
ATOM     22  C   UNL     1       1.703   4.132  19.295  0.00  0.00    +0.000 A 
ATOM     23  C   UNL     1       2.255   3.035  18.637  0.00  0.00    +0.000 A 
ATOM     24  C   UNL     1       3.621   3.021  18.345  0.00  0.00    +0.000 A 
BRANCH  24  25
ATOM     25  O   UNL     1       4.165   1.951  17.689  0.00  0.00    +0.000 OA
ATOM     26  H   UNL     1       3.924   1.136  18.161  0.00  0.00    +0.000 HD
ENDBRANCH  24  25
ENDBRANCH  17  18
ENDBRANCH   6  17
TORSDOF 5
ENDMDL
MODEL 6
REMARK VINA RESULT:      -8.0      4.509      6.950
REMARK  Name = 
REMARK  5 active torsions:
REMARK  status: ('A' for Active; 'I' for Inactive)
REMARK    1  A    between atoms: C_5  and  C_6
REMARK    2  A    between atoms: C_9  and  C_10
REMARK    3  A    between atoms: N_16  and  C_17
REMARK    4  A    between atoms: C_17  and  C_18
REMARK    5  A    between atoms: C_24  and  O_25
REMARK                            x       y       z     vdW  Elec       q    Type
REMARK                         _______ _______ _______ _____ _____    ______ ____
ROOT
ATOM      1  O   UNL     1       4.322   1.401  19.485  0.00  0.00    +0.000 OA
ATOM      2  C   UNL     1       3.492   2.287  19.351  0.00  0.00    +0.000 A 
ATOM      3  O   UNL     1       2.135   2.076  19.343  0.00  0.00    +0.000 OA
ATOM      4  N   UNL     1       1.532   3.363  19.261  0.00  0.00    +0.000 NA
ATOM      5  C   UNL     1       2.514   4.199  19.185  0.00  0.00    +0.000 A 
ATOM      6  N   UNL     1       3.727   3.611  19.196  0.00  0.00    +0.000 N 
ENDROOT
BRANCH   5   7
ATOM      7  C   UNL     1       2.304   5.660  19.159  0.00  0.00    +0.000 A 
ATOM      8  C   UNL     1       2.441   6.322  17.932  0.00  0.00    +0.000 A 
ATOM      9  C   UNL     1       2.174   7.691  17.832  0.00  0.00    +0.000 A 
ATOM     10  C   UNL     1       1.769   8.418  18.962  0.00  0.00    +0.000 A 
ATOM     11  C   UNL     1       1.682   7.756  20.197  0.00  0.00    +0.000 A 
ATOM     12  C   UNL     1       1.971   6.394  20.300  0.00  0.00    +0.000 A 
BRANCH  10  13
ATOM     13  C   UNL     1       1.417   9.883  18.869  0.00  0.00    +0.000 C 
ATOM     14  F   UNL     1       1.339  10.505  20.077  0.00  0.00    +0.000 F 
ATOM     15  F   UNL     1       2.332  10.585  18.144  0.00  0.00    +0.000 F 
ATOM     16  F   UNL     1       0.218  10.091  18.259  0.00  0.00    +0.000 F 
ENDBRANCH  10  13
ENDBRANCH   5   7
BRANCH   6  17
ATOM     17  C   UNL     1       5.070   4.165  19.285  0.00  0.00    +0.000 C 
BRANCH  17  18
ATOM     18  C   UNL     1       5.671   4.632  17.970  0.00  0.00    +0.000 A 
ATOM     19  C   UNL     1       5.216   4.194  16.715  0.00  0.00    +0.000 A 
ATOM     20  C   UNL     1       5.870   4.582  15.543  0.00  0.00    +0.000 A 
ATOM     21 CL   UNL     1       5.300   4.018  14.020  0.00  0.00    +0.000 Cl
ATOM     22  C   UNL     1       6.986   5.413  15.595  0.00  0.00    +0.000 A 
ATOM     23  C   UNL     1       7.445   5.873  16.828  0.00  0.00    +0.000 A 
ATOM     24  C   UNL     1       6.785   5.488  17.997  0.00  0.00    +0.000 A 
BRANCH  24  25
ATOM     25  O   UNL     1       7.224   5.947  19.208  0.00  0.00    +0.000 OA
ATOM     26  H   UNL     1       6.502   6.432  19.642  0.00  0.00    +0.000 HD
ENDBRANCH  24  25
ENDBRANCH  17  18
ENDBRANCH   6  17
TORSDOF 5
ENDMDL
MODEL 7
REMARK VINA RESULT:      -7.9      4.756      7.128
REMARK  Name = 
REMARK  5 active torsions:
REMARK  status: ('A' for Active; 'I' for Inactive)
REMARK    1  A    between atoms: C_5  and  C_6
REMARK    2  A    between atoms: C_9  and  C_10
REMARK    3  A    between atoms: N_16  and  C_17
REMARK    4  A    between atoms: C_17  and  C_18
REMARK    5  A    between atoms: C_24  and  O_25
REMARK                            x       y       z     vdW  Elec       q    Type
REMARK                         _______ _______ _______ _____ _____    ______ ____
ROOT
ATOM      1  O   UNL     1       4.662   2.538  20.160  0.00  0.00    +0.000 OA
ATOM      2  C   UNL     1       3.723   3.300  19.978  0.00  0.00    +0.000 A 
ATOM      3  O   UNL     1       2.407   2.957  20.165  0.00  0.00    +0.000 OA
ATOM      4  N   UNL     1       1.651   4.143  19.942  0.00  0.00    +0.000 NA
ATOM      5  C   UNL     1       2.516   5.045  19.612  0.00  0.00    +0.000 A 
ATOM      6  N   UNL     1       3.784   4.591  19.578  0.00  0.00    +0.000 N 
ENDROOT
BRANCH   5   7
ATOM      7  C   UNL     1       2.134   6.450  19.366  0.00  0.00    +0.000 A 
ATOM      8  C   UNL     1       1.653   7.199  20.449  0.00  0.00    +0.000 A 
ATOM      9  C   UNL     1       1.354   8.556  20.292  0.00  0.00    +0.000 A 
ATOM     10  C   UNL     1       1.529   9.182  19.049  0.00  0.00    +0.000 A 
ATOM     11  C   UNL     1       1.965   8.411  17.959  0.00  0.00    +0.000 A 
ATOM     12  C   UNL     1       2.241   7.051  18.110  0.00  0.00    +0.000 A 
BRANCH  10  13
ATOM     13  C   UNL     1       1.270  10.658  18.869  0.00  0.00    +0.000 C 
ATOM     14  F   UNL     1       1.331  11.370  20.027  0.00  0.00    +0.000 F 
ATOM     15  F   UNL     1       2.169  11.237  18.025  0.00  0.00    +0.000 F 
ATOM     16  F   UNL     1       0.043  10.909  18.335  0.00  0.00    +0.000 F 
ENDBRANCH  10  13
ENDBRANCH   5   7
BRANCH   6  17
ATOM     17  C   UNL     1       5.056   5.281  19.414  0.00  0.00    +0.000 C 
BRANCH  17  18
ATOM     18  C   UNL     1       5.763   5.041  18.091  0.00  0.00    +0.000 A 
ATOM     19  C   UNL     1       5.083   4.883  16.871  0.00  0.00    +0.000 A 
ATOM     20  C   UNL     1       5.779   4.568  15.701  0.00  0.00    +0.000 A 
ATOM     21 CL   UNL     1       4.919   4.366  14.224  0.00  0.00    +0.000 Cl
ATOM     22  C   UNL     1       7.161   4.404  15.720  0.00  0.00    +0.000 A 
ATOM     23  C   UNL     1       7.858   4.573  16.915  0.00  0.00    +0.000 A 
ATOM     24  C   UNL     1       7.159   4.894  18.081  0.00  0.00    +0.000 A 
BRANCH  24  25
ATOM     25  O   UNL     1       7.840   5.072  19.254  0.00  0.00    +0.000 OA
ATOM     26  H   UNL     1       8.380   5.878  19.187  0.00  0.00    +0.000 HD
ENDBRANCH  24  25
ENDBRANCH  17  18
ENDBRANCH   6  17
TORSDOF 5
ENDMDL
MODEL 8
REMARK VINA RESULT:      -7.9      3.016      4.798
REMARK  Name = 
REMARK  5 active torsions:
REMARK  status: ('A' for Active; 'I' for Inactive)
REMARK    1  A    between atoms: C_5  and  C_6
REMARK    2  A    between atoms: C_9  and  C_10
REMARK    3  A    between atoms: N_16  and  C_17
REMARK    4  A    between atoms: C_17  and  C_18
REMARK    5  A    between atoms: C_24  and  O_25
REMARK                            x       y       z     vdW  Elec       q    Type
REMARK                         _______ _______ _______ _____ _____    ______ ____
ROOT
ATOM      1  O   UNL     1       1.158   2.779  22.146  0.00  0.00    +0.000 OA
ATOM      2  C   UNL     1       2.233   2.779  21.564  0.00  0.00    +0.000 A 
ATOM      3  O   UNL     1       3.324   2.047  21.964  0.00  0.00    +0.000 OA
ATOM      4  N   UNL     1       4.325   2.251  20.973  0.00  0.00    +0.000 NA
ATOM      5  C   UNL     1       3.807   3.077  20.124  0.00  0.00    +0.000 A 
ATOM      6  N   UNL     1       2.556   3.465  20.444  0.00  0.00    +0.000 N 
ENDROOT
BRANCH   5   7
ATOM      7  C   UNL     1       4.511   3.489  18.894  0.00  0.00    +0.000 A 
ATOM      8  C   UNL     1       4.141   2.878  17.689  0.00  0.00    +0.000 A 
ATOM      9  C   UNL     1       4.717   3.287  16.482  0.00  0.00    +0.000 A 
ATOM     10  C   UNL     1       5.675   4.311  16.465  0.00  0.00    +0.000 A 
ATOM     11  C   UNL     1       6.075   4.884  17.684  0.00  0.00    +0.000 A 
ATOM     12  C   UNL     1       5.516   4.459  18.891  0.00  0.00    +0.000 A 
BRANCH  10  13
ATOM     13  C   UNL     1       6.268   4.812  15.171  0.00  0.00    +0.000 C 
ATOM     14  F   UNL     1       7.493   5.388  15.315  0.00  0.00    +0.000 F 
ATOM     15  F   UNL     1       6.428   3.812  14.260  0.00  0.00    +0.000 F 
ATOM     16  F   UNL     1       5.482   5.745  14.566  0.00  0.00    +0.000 F 
ENDBRANCH  10  13
ENDBRANCH   5   7
BRANCH   6  17
ATOM     17  C   UNL     1       1.566   4.240  19.710  0.00  0.00    +0.000 C 
BRANCH  17  18
ATOM     18  C   UNL     1       1.749   5.748  19.763  0.00  0.00    +0.000 A 
ATOM     19  C   UNL     1       1.428   6.525  20.890  0.00  0.00    +0.000 A 
ATOM     20  C   UNL     1       1.525   7.918  20.848  0.00  0.00    +0.000 A 
ATOM     21 CL   UNL     1       1.113   8.844  22.238  0.00  0.00    +0.000 Cl
ATOM     22  C   UNL     1       1.941   8.566  19.688  0.00  0.00    +0.000 A 
ATOM     23  C   UNL     1       2.280   7.815  18.564  0.00  0.00    +0.000 A 
ATOM     24  C   UNL     1       2.188   6.422  18.612  0.00  0.00    +0.000 A 
BRANCH  24  25
ATOM     25  O   UNL     1       2.531   5.680  17.515  0.00  0.00    +0.000 OA
ATOM     26  H   UNL     1       2.061   6.030  16.738  0.00  0.00    +0.000 HD
ENDBRANCH  24  25
ENDBRANCH  17  18
ENDBRANCH   6  17
TORSDOF 5
ENDMDL
MODEL 9
REMARK VINA RESULT:      -7.8      4.842      6.298
REMARK  Name = 
REMARK  5 active torsions:
REMARK  status: ('A' for Active; 'I' for Inactive)
REMARK    1  A    between atoms: C_5  and  C_6
REMARK    2  A    between atoms: C_9  and  C_10
REMARK    3  A    between atoms: N_16  and  C_17
REMARK    4  A    between atoms: C_17  and  C_18
REMARK    5  A    between atoms: C_24  and  O_25
REMARK                            x       y       z     vdW  Elec       q    Type
REMARK                         _______ _______ _______ _____ _____    ______ ____
ROOT
ATOM      1  O   UNL     1       6.330   4.063  15.176  0.00  0.00    +0.000 OA
ATOM      2  C   UNL     1       6.000   5.003  15.885  0.00  0.00    +0.000 A 
ATOM      3  O   UNL     1       6.761   6.131  16.069  0.00  0.00    +0.000 OA
ATOM      4  N   UNL     1       5.983   7.008  16.877  0.00  0.00    +0.000 NA
ATOM      5  C   UNL     1       4.896   6.360  17.140  0.00  0.00    +0.000 A 
ATOM      6  N   UNL     1       4.859   5.125  16.600  0.00  0.00    +0.000 N 
ENDROOT
BRANCH   5   7
ATOM      7  C   UNL     1       3.785   6.962  17.903  0.00  0.00    +0.000 A 
ATOM      8  C   UNL     1       3.531   6.472  19.191  0.00  0.00    +0.000 A 
ATOM      9  C   UNL     1       2.545   7.060  19.990  0.00  0.00    +0.000 A 
ATOM     10  C   UNL     1       1.797   8.145  19.509  0.00  0.00    +0.000 A 
ATOM     11  C   UNL     1       2.026   8.598  18.200  0.00  0.00    +0.000 A 
ATOM     12  C   UNL     1       2.995   7.995  17.394  0.00  0.00    +0.000 A 
BRANCH  10  13
ATOM     13  C   UNL     1       0.770   8.836  20.372  0.00  0.00    +0.000 C 
ATOM     14  F   UNL     1      -0.008   7.979  21.090  0.00  0.00    +0.000 F 
ATOM     15  F   UNL     1       1.342   9.673  21.282  0.00  0.00    +0.000 F 
ATOM     16  F   UNL     1      -0.088   9.605  19.645  0.00  0.00    +0.000 F 
ENDBRANCH  10  13
ENDBRANCH   5   7
BRANCH   6  17
ATOM     17  C   UNL     1       3.792   4.139  16.513  0.00  0.00    +0.000 C 
BRANCH  17  18
ATOM     18  C   UNL     1       3.315   3.573  17.840  0.00  0.00    +0.000 A 
ATOM     19  C   UNL     1       4.176   2.974  18.776  0.00  0.00    +0.000 A 
ATOM     20  C   UNL     1       3.669   2.384  19.937  0.00  0.00    +0.000 A 
ATOM     21 CL   UNL     1       4.745   1.645  21.058  0.00  0.00    +0.000 Cl
ATOM     22  C   UNL     1       2.300   2.378  20.190  0.00  0.00    +0.000 A 
ATOM     23  C   UNL     1       1.430   2.981  19.284  0.00  0.00    +0.000 A 
ATOM     24  C   UNL     1       1.941   3.575  18.128  0.00  0.00    +0.000 A 
BRANCH  24  25
ATOM     25  O   UNL     1       1.092   4.179  17.242  0.00  0.00    +0.000 OA
ATOM     26  H   UNL     1       0.481   4.755  17.732  0.00  0.00    +0.000 HD
ENDBRANCH  24  25
ENDBRANCH  17  18
ENDBRANCH   6  17
TORSDOF 5
ENDMDL
