MODEL 1
REMARK VINA RESULT:      -6.9      0.000      0.000
REMARK  Name = 
REMARK  8 active torsions:
REMARK  status: ('A' for Active; 'I' for Inactive)
REMARK    1  A    between atoms: C_1  and  C_2
REMARK    2  A    between atoms: C_2  and  O_3
REMARK    3  A    between atoms: O_3  and  C_4
REMARK    4  A    between atoms: C_7  and  S_8
REMARK    5  A    between atoms: S_8  and  N_11
REMARK    6  A    between atoms: N_11  and  C_12
REMARK    7  A    between atoms: C_18  and  C_19
REMARK    8  A    between atoms: C_20  and  C_21
REMARK                            x       y       z     vdW  Elec       q    Type
REMARK                         _______ _______ _______ _____ _____    ______ ____
ROOT
ATOM      1  C   UNL     1       3.378   3.809  18.942  0.00  0.00    +0.000 A 
ATOM      2  C   UNL     1       4.635   3.412  18.493  0.00  0.00    +0.000 A 
ATOM      3  C   UNL     1       5.421   4.283  17.748  0.00  0.00    +0.000 A 
ATOM      4  C   UNL     1       4.993   5.592  17.484  0.00  0.00    +0.000 A 
ATOM      5  C   UNL     1       3.754   6.053  17.989  0.00  0.00    +0.000 A 
ATOM      6  C   UNL     1       3.288   7.472  17.787  0.00  0.00    +0.000 C 
ATOM      7  C   UNL     1       2.915   5.121  18.673  0.00  0.00    +0.000 A 
ATOM      8  C   UNL     1       1.515   5.476  19.128  0.00  0.00    +0.000 C 
ENDROOT
BRANCH   4   9
ATOM      9  S   UNL     1       6.035   6.522  16.354  0.00  0.00    +0.000 S 
ATOM     10  O   UNL     1       5.234   6.900  15.209  0.00  0.00    +0.000 OA
ATOM     11  O   UNL     1       6.758   7.534  17.089  0.00  0.00    +0.000 OA
BRANCH   9  12
ATOM     12  N   UNL     1       7.198   5.377  15.871  0.00  0.00    +0.000 N 
ATOM     13  H   UNL     1       8.125   5.724  16.124  0.00  0.00    +0.000 HD
BRANCH  12  14
ATOM     14  C   UNL     1       7.062   4.853  14.548  0.00  0.00    +0.000 A 
ATOM     15  C   UNL     1       6.102   3.882  14.284  0.00  0.00    +0.000 A 
ATOM     16  C   UNL     1       5.923   3.437  12.975  0.00  0.00    +0.000 A 
ATOM     17  C   UNL     1       6.719   3.978  11.976  0.00  0.00    +0.000 A 
ATOM     18  N   UNL     1       7.669   4.911  12.201  0.00  0.00    +0.000 NA
ATOM     19  C   UNL     1       7.813   5.336  13.480  0.00  0.00    +0.000 A 
ENDBRANCH  12  14
ENDBRANCH   9  12
ENDBRANCH   4   9
BRANCH   1  20
ATOM     20  O   UNL     1       2.525   2.993  19.649  0.00  0.00    +0.000 OA
BRANCH  20  22
ATOM     21  C   UNL     1       1.652   2.690  21.863  0.00  0.00    +0.000 C 
ATOM     22  C   UNL     1       2.895   2.677  20.992  0.00  0.00    +0.000 C 
ENDBRANCH  20  22
ENDBRANCH   1  20
TORSDOF 5
ENDMDL
MODEL 2
REMARK VINA RESULT:      -6.8      0.956      1.319
REMARK  Name = 
REMARK  8 active torsions:
REMARK  status: ('A' for Active; 'I' for Inactive)
REMARK    1  A    between atoms: C_1  and  C_2
REMARK    2  A    between atoms: C_2  and  O_3
REMARK    3  A    between atoms: O_3  and  C_4
REMARK    4  A    between atoms: C_7  and  S_8
REMARK    5  A    between atoms: S_8  and  N_11
REMARK    6  A    between atoms: N_11  and  C_12
REMARK    7  A    between atoms: C_18  and  C_19
REMARK    8  A    between atoms: C_20  and  C_21
REMARK                            x       y       z     vdW  Elec       q    Type
REMARK                         _______ _______ _______ _____ _____    ______ ____
ROOT
ATOM      1  C   UNL     1       3.598   4.189  19.527  0.00  0.00    +0.000 A 
ATOM      2  C   UNL     1       4.820   3.720  19.050  0.00  0.00    +0.000 A 
ATOM      3  C   UNL     1       5.550   4.471  18.137  0.00  0.00    +0.000 A 
ATOM      4  C   UNL     1       5.106   5.735  17.725  0.00  0.00    +0.000 A 
ATOM      5  C   UNL     1       3.907   6.275  18.247  0.00  0.00    +0.000 A 
ATOM      6  C   UNL     1       3.428   7.657  17.883  0.00  0.00    +0.000 C 
ATOM      7  C   UNL     1       3.118   5.456  19.112  0.00  0.00    +0.000 A 
ATOM      8  C   UNL     1       1.755   5.886  19.611  0.00  0.00    +0.000 C 
ENDROOT
BRANCH   4   9
ATOM      9  S   UNL     1       6.065   6.488  16.405  0.00  0.00    +0.000 S 
ATOM     10  O   UNL     1       5.159   6.831  15.328  0.00  0.00    +0.000 OA
ATOM     11  O   UNL     1       6.935   7.499  16.959  0.00  0.00    +0.000 OA
BRANCH   9  12
ATOM     12  N   UNL     1       7.084   5.223  15.898  0.00  0.00    +0.000 N 
ATOM     13  H   UNL     1       8.036   5.421  16.214  0.00  0.00    +0.000 HD
BRANCH  12  14
ATOM     14  C   UNL     1       6.946   4.801  14.539  0.00  0.00    +0.000 A 
ATOM     15  C   UNL     1       7.747   5.369  13.554  0.00  0.00    +0.000 A 
ATOM     16  C   UNL     1       7.661   4.893  12.247  0.00  0.00    +0.000 A 
ATOM     17  C   UNL     1       6.771   3.865  11.972  0.00  0.00    +0.000 A 
ATOM     18  N   UNL     1       5.971   3.302  12.902  0.00  0.00    +0.000 NA
ATOM     19  C   UNL     1       6.083   3.774  14.167  0.00  0.00    +0.000 A 
ENDBRANCH  12  14
ENDBRANCH   9  12
ENDBRANCH   4   9
BRANCH   1  20
ATOM     20  O   UNL     1       2.798   3.488  20.399  0.00  0.00    +0.000 OA
BRANCH  20  22
ATOM     21  C   UNL     1       1.275   2.324  18.955  0.00  0.00    +0.000 C 
ATOM     22  C   UNL     1       2.378   2.186  19.989  0.00  0.00    +0.000 C 
ENDBRANCH  20  22
ENDBRANCH   1  20
TORSDOF 5
ENDMDL
MODEL 3
REMARK VINA RESULT:      -6.7      1.228      1.399
REMARK  Name = 
REMARK  8 active torsions:
REMARK  status: ('A' for Active; 'I' for Inactive)
REMARK    1  A    between atoms: C_1  and  C_2
REMARK    2  A    between atoms: C_2  and  O_3
REMARK    3  A    between atoms: O_3  and  C_4
REMARK    4  A    between atoms: C_7  and  S_8
REMARK    5  A    between atoms: S_8  and  N_11
REMARK    6  A    between atoms: N_11  and  C_12
REMARK    7  A    between atoms: C_18  and  C_19
REMARK    8  A    between atoms: C_20  and  C_21
REMARK                            x       y       z     vdW  Elec       q    Type
REMARK                         _______ _______ _______ _____ _____    ______ ____
ROOT
ATOM      1  C   UNL     1       3.105   3.965  18.925  0.00  0.00    +0.000 A 
ATOM      2  C   UNL     1       4.300   3.271  19.100  0.00  0.00    +0.000 A 
ATOM      3  C   UNL     1       5.491   3.794  18.611  0.00  0.00    +0.000 A 
ATOM      4  C   UNL     1       5.525   5.049  17.988  0.00  0.00    +0.000 A 
ATOM      5  C   UNL     1       4.342   5.815  17.860  0.00  0.00    +0.000 A 
ATOM      6  C   UNL     1       4.345   7.197  17.259  0.00  0.00    +0.000 C 
ATOM      7  C   UNL     1       3.110   5.227  18.282  0.00  0.00    +0.000 A 
ATOM      8  C   UNL     1       1.774   5.906  18.060  0.00  0.00    +0.000 C 
ENDROOT
BRANCH   4   9
ATOM      9  S   UNL     1       7.102   5.492  17.250  0.00  0.00    +0.000 S 
ATOM     10  O   UNL     1       7.702   6.533  18.058  0.00  0.00    +0.000 OA
ATOM     11  O   UNL     1       7.850   4.292  16.956  0.00  0.00    +0.000 OA
BRANCH   9  12
ATOM     12  N   UNL     1       6.653   6.143  15.742  0.00  0.00    +0.000 N 
ATOM     13  H   UNL     1       5.840   6.747  15.875  0.00  0.00    +0.000 HD
BRANCH  12  14
ATOM     14  C   UNL     1       6.584   5.225  14.649  0.00  0.00    +0.000 A 
ATOM     15  C   UNL     1       5.481   4.388  14.516  0.00  0.00    +0.000 A 
ATOM     16  C   UNL     1       5.387   3.555  13.402  0.00  0.00    +0.000 A 
ATOM     17  C   UNL     1       6.406   3.588  12.462  0.00  0.00    +0.000 A 
ATOM     18  N   UNL     1       7.495   4.378  12.567  0.00  0.00    +0.000 NA
ATOM     19  C   UNL     1       7.556   5.187  13.652  0.00  0.00    +0.000 A 
ENDBRANCH  12  14
ENDBRANCH   9  12
ENDBRANCH   4   9
BRANCH   1  20
ATOM     20  O   UNL     1       1.880   3.496  19.341  0.00  0.00    +0.000 OA
BRANCH  20  22
ATOM     21  C   UNL     1       1.608   2.787  21.617  0.00  0.00    +0.000 C 
ATOM     22  C   UNL     1       1.881   2.348  20.191  0.00  0.00    +0.000 C 
ENDBRANCH  20  22
ENDBRANCH   1  20
TORSDOF 5
ENDMDL
MODEL 4
REMARK VINA RESULT:      -6.7      2.181      3.329
REMARK  Name = 
REMARK  8 active torsions:
REMARK  status: ('A' for Active; 'I' for Inactive)
REMARK    1  A    between atoms: C_1  and  C_2
REMARK    2  A    between atoms: C_2  and  O_3
REMARK    3  A    between atoms: O_3  and  C_4
REMARK    4  A    between atoms: C_7  and  S_8
REMARK    5  A    between atoms: S_8  and  N_11
REMARK    6  A    between atoms: N_11  and  C_12
REMARK    7  A    between atoms: C_18  and  C_19
REMARK    8  A    between atoms: C_20  and  C_21
REMARK                            x       y       z     vdW  Elec       q    Type
REMARK                         _______ _______ _______ _____ _____    ______ ____
ROOT
ATOM      1  C   UNL     1       2.913   3.685  18.596  0.00  0.00    +0.000 A 
ATOM      2  C   UNL     1       3.634   2.834  17.762  0.00  0.00    +0.000 A 
ATOM      3  C   UNL     1       4.433   3.355  16.751  0.00  0.00    +0.000 A 
ATOM      4  C   UNL     1       4.575   4.740  16.586  0.00  0.00    +0.000 A 
ATOM      5  C   UNL     1       3.916   5.633  17.464  0.00  0.00    +0.000 A 
ATOM      6  C   UNL     1       4.096   7.126  17.366  0.00  0.00    +0.000 C 
ATOM      7  C   UNL     1       3.026   5.088  18.439  0.00  0.00    +0.000 A 
ATOM      8  C   UNL     1       2.169   5.964  19.329  0.00  0.00    +0.000 C 
ENDROOT
BRANCH   4   9
ATOM      9  S   UNL     1       5.487   5.245  15.123  0.00  0.00    +0.000 S 
ATOM     10  O   UNL     1       5.141   4.345  14.043  0.00  0.00    +0.000 OA
ATOM     11  O   UNL     1       5.351   6.671  14.940  0.00  0.00    +0.000 OA
BRANCH   9  12
ATOM     12  N   UNL     1       7.109   4.985  15.570  0.00  0.00    +0.000 N 
ATOM     13  H   UNL     1       7.362   4.022  15.341  0.00  0.00    +0.000 HD
BRANCH  12  14
ATOM     14  C   UNL     1       7.492   5.445  16.868  0.00  0.00    +0.000 A 
ATOM     15  C   UNL     1       7.599   6.810  17.115  0.00  0.00    +0.000 A 
ATOM     16  C   UNL     1       7.894   7.249  18.405  0.00  0.00    +0.000 A 
ATOM     17  C   UNL     1       8.077   6.302  19.402  0.00  0.00    +0.000 A 
ATOM     18  N   UNL     1       7.994   4.971  19.193  0.00  0.00    +0.000 NA
ATOM     19  C   UNL     1       7.693   4.572  17.934  0.00  0.00    +0.000 A 
ENDBRANCH  12  14
ENDBRANCH   9  12
ENDBRANCH   4   9
BRANCH   1  20
ATOM     20  O   UNL     1       2.070   3.247  19.591  0.00  0.00    +0.000 OA
BRANCH  20  22
ATOM     21  C   UNL     1       1.586   2.585  21.846  0.00  0.00    +0.000 C 
ATOM     22  C   UNL     1       2.675   2.840  20.820  0.00  0.00    +0.000 C 
ENDBRANCH  20  22
ENDBRANCH   1  20
TORSDOF 5
ENDMDL
MODEL 5
REMARK VINA RESULT:      -6.4      2.922      6.831
REMARK  Name = 
REMARK  8 active torsions:
REMARK  status: ('A' for Active; 'I' for Inactive)
REMARK    1  A    between atoms: C_1  and  C_2
REMARK    2  A    between atoms: C_2  and  O_3
REMARK    3  A    between atoms: O_3  and  C_4
REMARK    4  A    between atoms: C_7  and  S_8
REMARK    5  A    between atoms: S_8  and  N_11
REMARK    6  A    between atoms: N_11  and  C_12
REMARK    7  A    between atoms: C_18  and  C_19
REMARK    8  A    between atoms: C_20  and  C_21
REMARK                            x       y       z     vdW  Elec       q    Type
REMARK                         _______ _______ _______ _____ _____    ______ ____
ROOT
ATOM      1  C   UNL     1       6.166   3.954  14.441  0.00  0.00    +0.000 A 
ATOM      2  C   UNL     1       5.228   3.228  15.171  0.00  0.00    +0.000 A 
ATOM      3  C   UNL     1       5.026   3.500  16.518  0.00  0.00    +0.000 A 
ATOM      4  C   UNL     1       5.714   4.543  17.154  0.00  0.00    +0.000 A 
ATOM      5  C   UNL     1       6.619   5.349  16.424  0.00  0.00    +0.000 A 
ATOM      6  C   UNL     1       7.328   6.522  17.050  0.00  0.00    +0.000 C 
ATOM      7  C   UNL     1       6.888   5.001  15.064  0.00  0.00    +0.000 A 
ATOM      8  C   UNL     1       7.941   5.713  14.242  0.00  0.00    +0.000 C 
ENDROOT
BRANCH   4   9
ATOM      9  S   UNL     1       5.479   4.639  18.932  0.00  0.00    +0.000 S 
ATOM     10  O   UNL     1       6.780   4.789  19.551  0.00  0.00    +0.000 OA
ATOM     11  O   UNL     1       4.431   5.588  19.229  0.00  0.00    +0.000 OA
BRANCH   9  12
ATOM     12  N   UNL     1       4.846   3.108  19.322  0.00  0.00    +0.000 N 
ATOM     13  H   UNL     1       5.014   2.475  18.538  0.00  0.00    +0.000 HD
BRANCH  12  14
ATOM     14  C   UNL     1       3.530   3.087  19.878  0.00  0.00    +0.000 A 
ATOM     15  C   UNL     1       2.424   3.217  19.044  0.00  0.00    +0.000 A 
ATOM     16  C   UNL     1       1.144   3.114  19.586  0.00  0.00    +0.000 A 
ATOM     17  C   UNL     1       1.018   2.888  20.949  0.00  0.00    +0.000 A 
ATOM     18  N   UNL     1       2.069   2.770  21.788  0.00  0.00    +0.000 NA
ATOM     19  C   UNL     1       3.302   2.862  21.233  0.00  0.00    +0.000 A 
ENDBRANCH  12  14
ENDBRANCH   9  12
ENDBRANCH   4   9
BRANCH   1  20
ATOM     20  O   UNL     1       6.454   3.718  13.116  0.00  0.00    +0.000 OA
BRANCH  20  22
ATOM     21  C   UNL     1       5.633   2.143  11.503  0.00  0.00    +0.000 C 
ATOM     22  C   UNL     1       5.351   3.431  12.255  0.00  0.00    +0.000 C 
ENDBRANCH  20  22
ENDBRANCH   1  20
TORSDOF 5
ENDMDL
MODEL 6
REMARK VINA RESULT:      -6.3      3.491      5.192
REMARK  Name = 
REMARK  8 active torsions:
REMARK  status: ('A' for Active; 'I' for Inactive)
REMARK    1  A    between atoms: C_1  and  C_2
REMARK    2  A    between atoms: C_2  and  O_3
REMARK    3  A    between atoms: O_3  and  C_4
REMARK    4  A    between atoms: C_7  and  S_8
REMARK    5  A    between atoms: S_8  and  N_11
REMARK    6  A    between atoms: N_11  and  C_12
REMARK    7  A    between atoms: C_18  and  C_19
REMARK    8  A    between atoms: C_20  and  C_21
REMARK                            x       y       z     vdW  Elec       q    Type
REMARK                         _______ _______ _______ _____ _____    ______ ____
ROOT
ATOM      1  C   UNL     1       1.078   9.802  19.359  0.00  0.00    +0.000 A 
ATOM      2  C   UNL     1       1.769   9.683  18.155  0.00  0.00    +0.000 A 
ATOM      3  C   UNL     1       2.488   8.527  17.872  0.00  0.00    +0.000 A 
ATOM      4  C   UNL     1       2.484   7.441  18.758  0.00  0.00    +0.000 A 
ATOM      5  C   UNL     1       1.732   7.500  19.955  0.00  0.00    +0.000 A 
ATOM      6  C   UNL     1       1.645   6.330  20.901  0.00  0.00    +0.000 C 
ATOM      7  C   UNL     1       1.074   8.725  20.279  0.00  0.00    +0.000 A 
ATOM      8  C   UNL     1       0.361   8.935  21.599  0.00  0.00    +0.000 C 
ENDROOT
BRANCH   4   9
ATOM      9  S   UNL     1       3.609   6.107  18.333  0.00  0.00    +0.000 S 
ATOM     10  O   UNL     1       4.383   5.777  19.511  0.00  0.00    +0.000 OA
ATOM     11  O   UNL     1       2.884   5.068  17.638  0.00  0.00    +0.000 OA
BRANCH   9  12
ATOM     12  N   UNL     1       4.631   6.818  17.172  0.00  0.00    +0.000 N 
ATOM     13  H   UNL     1       4.085   7.477  16.614  0.00  0.00    +0.000 HD
BRANCH  12  14
ATOM     14  C   UNL     1       5.481   5.929  16.444  0.00  0.00    +0.000 A 
ATOM     15  C   UNL     1       5.129   5.534  15.157  0.00  0.00    +0.000 A 
ATOM     16  C   UNL     1       6.005   4.733  14.426  0.00  0.00    +0.000 A 
ATOM     17  C   UNL     1       7.202   4.351  15.014  0.00  0.00    +0.000 A 
ATOM     18  N   UNL     1       7.568   4.706  16.264  0.00  0.00    +0.000 NA
ATOM     19  C   UNL     1       6.704   5.495  16.948  0.00  0.00    +0.000 A 
ENDBRANCH  12  14
ENDBRANCH   9  12
ENDBRANCH   4   9
BRANCH   1  20
ATOM     20  O   UNL     1       0.379  10.927  19.731  0.00  0.00    +0.000 OA
BRANCH  20  22
ATOM     21  C   UNL     1      -1.816  11.890  19.834  0.00  0.00    +0.000 C 
ATOM     22  C   UNL     1      -0.757  11.276  18.938  0.00  0.00    +0.000 C 
ENDBRANCH  20  22
ENDBRANCH   1  20
TORSDOF 5
ENDMDL
MODEL 7
REMARK VINA RESULT:      -6.2      2.909      6.732
REMARK  Name = 
REMARK  8 active torsions:
REMARK  status: ('A' for Active; 'I' for Inactive)
REMARK    1  A    between atoms: C_1  and  C_2
REMARK    2  A    between atoms: C_2  and  O_3
REMARK    3  A    between atoms: O_3  and  C_4
REMARK    4  A    between atoms: C_7  and  S_8
REMARK    5  A    between atoms: S_8  and  N_11
REMARK    6  A    between atoms: N_11  and  C_12
REMARK    7  A    between atoms: C_18  and  C_19
REMARK    8  A    between atoms: C_20  and  C_21
REMARK                            x       y       z     vdW  Elec       q    Type
REMARK                         _______ _______ _______ _____ _____    ______ ____
ROOT
ATOM      1  C   UNL     1       6.125   4.035  14.397  0.00  0.00    +0.000 A 
ATOM      2  C   UNL     1       5.154   3.333  15.107  0.00  0.00    +0.000 A 
ATOM      3  C   UNL     1       4.958   3.583  16.460  0.00  0.00    +0.000 A 
ATOM      4  C   UNL     1       5.687   4.580  17.122  0.00  0.00    +0.000 A 
ATOM      5  C   UNL     1       6.628   5.364  16.413  0.00  0.00    +0.000 A 
ATOM      6  C   UNL     1       7.383   6.492  17.069  0.00  0.00    +0.000 C 
ATOM      7  C   UNL     1       6.887   5.036  15.047  0.00  0.00    +0.000 A 
ATOM      8  C   UNL     1       7.973   5.721  14.244  0.00  0.00    +0.000 C 
ENDROOT
BRANCH   4   9
ATOM      9  S   UNL     1       5.449   4.647  18.901  0.00  0.00    +0.000 S 
ATOM     10  O   UNL     1       6.749   4.786  19.525  0.00  0.00    +0.000 OA
ATOM     11  O   UNL     1       4.400   5.590  19.212  0.00  0.00    +0.000 OA
BRANCH   9  12
ATOM     12  N   UNL     1       4.816   3.109  19.264  0.00  0.00    +0.000 N 
ATOM     13  H   UNL     1       5.103   2.455  18.532  0.00  0.00    +0.000 HD
BRANCH  12  14
ATOM     14  C   UNL     1       3.440   3.062  19.647  0.00  0.00    +0.000 A 
ATOM     15  C   UNL     1       3.092   3.158  20.990  0.00  0.00    +0.000 A 
ATOM     16  C   UNL     1       1.744   3.193  21.345  0.00  0.00    +0.000 A 
ATOM     17  C   UNL     1       0.792   3.125  20.339  0.00  0.00    +0.000 A 
ATOM     18  N   UNL     1       1.096   3.018  19.028  0.00  0.00    +0.000 NA
ATOM     19  C   UNL     1       2.413   2.999  18.709  0.00  0.00    +0.000 A 
ENDBRANCH  12  14
ENDBRANCH   9  12
ENDBRANCH   4   9
BRANCH   1  20
ATOM     20  O   UNL     1       6.407   3.817  13.068  0.00  0.00    +0.000 OA
BRANCH  20  22
ATOM     21  C   UNL     1       5.834   2.060  11.539  0.00  0.00    +0.000 C 
ATOM     22  C   UNL     1       5.349   3.306  12.256  0.00  0.00    +0.000 C 
ENDBRANCH  20  22
ENDBRANCH   1  20
TORSDOF 5
ENDMDL
MODEL 8
REMARK VINA RESULT:      -6.2      5.904      8.379
REMARK  Name = 
REMARK  8 active torsions:
REMARK  status: ('A' for Active; 'I' for Inactive)
REMARK    1  A    between atoms: C_1  and  C_2
REMARK    2  A    between atoms: C_2  and  O_3
REMARK    3  A    between atoms: O_3  and  C_4
REMARK    4  A    between atoms: C_7  and  S_8
REMARK    5  A    between atoms: S_8  and  N_11
REMARK    6  A    between atoms: N_11  and  C_12
REMARK    7  A    between atoms: C_18  and  C_19
REMARK    8  A    between atoms: C_20  and  C_21
REMARK                            x       y       z     vdW  Elec       q    Type
REMARK                         _______ _______ _______ _____ _____    ______ ____
ROOT
ATOM      1  C   UNL     1       2.566   7.031  18.289  0.00  0.00    +0.000 A 
ATOM      2  C   UNL     1       2.450   8.196  17.535  0.00  0.00    +0.000 A 
ATOM      3  C   UNL     1       1.844   9.324  18.076  0.00  0.00    +0.000 A 
ATOM      4  C   UNL     1       1.393   9.332  19.403  0.00  0.00    +0.000 A 
ATOM      5  C   UNL     1       1.562   8.190  20.221  0.00  0.00    +0.000 A 
ATOM      6  C   UNL     1       1.153   8.179  21.671  0.00  0.00    +0.000 C 
ATOM      7  C   UNL     1       2.101   7.008  19.627  0.00  0.00    +0.000 A 
ATOM      8  C   UNL     1       2.192   5.696  20.377  0.00  0.00    +0.000 C 
ENDROOT
BRANCH   4   9
ATOM      9  S   UNL     1       0.468  10.795  19.885  0.00  0.00    +0.000 S 
ATOM     10  O   UNL     1      -0.666  10.371  20.678  0.00  0.00    +0.000 OA
ATOM     11  O   UNL     1       1.378  11.788  20.408  0.00  0.00    +0.000 OA
BRANCH   9  12
ATOM     12  N   UNL     1      -0.087  11.409  18.398  0.00  0.00    +0.000 N 
ATOM     13  H   UNL     1       0.212  12.383  18.313  0.00  0.00    +0.000 HD
BRANCH  12  14
ATOM     14  C   UNL     1      -1.450  11.137  18.067  0.00  0.00    +0.000 A 
ATOM     15  C   UNL     1      -1.771   9.996  17.338  0.00  0.00    +0.000 A 
ATOM     16  C   UNL     1      -3.111   9.699  17.091  0.00  0.00    +0.000 A 
ATOM     17  C   UNL     1      -4.082  10.560  17.580  0.00  0.00    +0.000 A 
ATOM     18  N   UNL     1      -3.804  11.681  18.279  0.00  0.00    +0.000 NA
ATOM     19  C   UNL     1      -2.495  11.940  18.516  0.00  0.00    +0.000 A 
ENDBRANCH  12  14
ENDBRANCH   9  12
ENDBRANCH   4   9
BRANCH   1  20
ATOM     20  O   UNL     1       3.114   5.863  17.812  0.00  0.00    +0.000 OA
BRANCH  20  22
ATOM     21  C   UNL     1       4.796   4.642  16.613  0.00  0.00    +0.000 C 
ATOM     22  C   UNL     1       4.470   5.918  17.366  0.00  0.00    +0.000 C 
ENDBRANCH  20  22
ENDBRANCH   1  20
TORSDOF 5
ENDMDL
MODEL 9
REMARK VINA RESULT:      -6.2      1.652      1.957
REMARK  Name = 
REMARK  8 active torsions:
REMARK  status: ('A' for Active; 'I' for Inactive)
REMARK    1  A    between atoms: C_1  and  C_2
REMARK    2  A    between atoms: C_2  and  O_3
REMARK    3  A    between atoms: O_3  and  C_4
REMARK    4  A    between atoms: C_7  and  S_8
REMARK    5  A    between atoms: S_8  and  N_11
REMARK    6  A    between atoms: N_11  and  C_12
REMARK    7  A    between atoms: C_18  and  C_19
REMARK    8  A    between atoms: C_20  and  C_21
REMARK                            x       y       z     vdW  Elec       q    Type
REMARK                         _______ _______ _______ _____ _____    ______ ____
ROOT
ATOM      1  C   UNL     1       2.694   3.107  18.930  0.00  0.00    +0.000 A 
ATOM      2  C   UNL     1       3.852   2.658  19.560  0.00  0.00    +0.000 A 
ATOM      3  C   UNL     1       5.014   3.419  19.514  0.00  0.00    +0.000 A 
ATOM      4  C   UNL     1       5.031   4.672  18.887  0.00  0.00    +0.000 A 
ATOM      5  C   UNL     1       3.852   5.192  18.301  0.00  0.00    +0.000 A 
ATOM      6  C   UNL     1       3.808   6.563  17.677  0.00  0.00    +0.000 C 
ATOM      7  C   UNL     1       2.689   4.362  18.273  0.00  0.00    +0.000 A 
ATOM      8  C   UNL     1       1.424   4.769  17.549  0.00  0.00    +0.000 C 
ENDROOT
BRANCH   4   9
ATOM      9  S   UNL     1       6.651   5.437  18.752  0.00  0.00    +0.000 S 
ATOM     10  O   UNL     1       6.492   6.714  18.088  0.00  0.00    +0.000 OA
ATOM     11  O   UNL     1       7.322   5.371  20.030  0.00  0.00    +0.000 OA
BRANCH   9  12
ATOM     12  N   UNL     1       7.495   4.374  17.726  0.00  0.00    +0.000 N 
ATOM     13  H   UNL     1       8.494   4.445  17.930  0.00  0.00    +0.000 HD
BRANCH  12  14
ATOM     14  C   UNL     1       7.131   4.400  16.344  0.00  0.00    +0.000 A 
ATOM     15  C   UNL     1       6.035   3.666  15.903  0.00  0.00    +0.000 A 
ATOM     16  C   UNL     1       5.641   3.764  14.570  0.00  0.00    +0.000 A 
ATOM     17  C   UNL     1       6.364   4.591  13.723  0.00  0.00    +0.000 A 
ATOM     18  N   UNL     1       7.440   5.306  14.116  0.00  0.00    +0.000 NA
ATOM     19  C   UNL     1       7.794   5.203  15.420  0.00  0.00    +0.000 A 
ENDBRANCH  12  14
ENDBRANCH   9  12
ENDBRANCH   4   9
BRANCH   1  20
ATOM     20  O   UNL     1       1.517   2.395  18.895  0.00  0.00    +0.000 OA
BRANCH  20  22
ATOM     21  C   UNL     1       1.274   3.452  21.035  0.00  0.00    +0.000 C 
ATOM     22  C   UNL     1       0.701   2.434  20.066  0.00  0.00    +0.000 C 
ENDBRANCH  20  22
ENDBRANCH   1  20
TORSDOF 5
ENDMDL
