MODEL 1
REMARK VINA RESULT:      -7.7      0.000      0.000
REMARK  Name = 
REMARK  12 active torsions:
REMARK  status: ('A' for Active; 'I' for Inactive)
REMARK    1  A    between atoms: C_1  and  O_2
REMARK    2  A    between atoms: O_2  and  C_3
REMARK    3  A    between atoms: C_6  and  N_7
REMARK    4  A    between atoms: C_8  and  C_10
REMARK    5  A    between atoms: C_10  and  N_11
REMARK    6  A    between atoms: N_11  and  C_12
REMARK    7  A    between atoms: N_11  and  S_13
REMARK    8  A    between atoms: S_13  and  C_16
REMARK    9  A    between atoms: C_23  and  C_24
REMARK   10  A    between atoms: C_26  and  C_27
REMARK   11  A    between atoms: C_29  and  O_30
REMARK   12  A    between atoms: O_30  and  C_31
REMARK                            x       y       z     vdW  Elec       q    Type
REMARK                         _______ _______ _______ _____ _____    ______ ____
ROOT
ATOM      1  N   UNL     1       3.026   3.722  19.983  0.00  0.00    +0.000 NA
ATOM      2  C   UNL     1       2.681   3.192  21.341  0.00  0.00    +0.000 C 
ENDROOT
BRANCH   1   3
ATOM      3  S   UNL     1       1.644   4.478  19.302  0.00  0.00    +0.000 S 
ATOM      4  O   UNL     1       1.642   4.194  17.886  0.00  0.00    +0.000 OA
ATOM      5  O   UNL     1       0.509   4.108  20.127  0.00  0.00    +0.000 OA
BRANCH   3   6
ATOM      6  C   UNL     1       1.925   6.222  19.500  0.00  0.00    +0.000 A 
ATOM      7  C   UNL     1       2.149   7.052  18.380  0.00  0.00    +0.000 A 
ATOM      8  C   UNL     1       1.965   8.448  18.476  0.00  0.00    +0.000 A 
ATOM      9  C   UNL     1       1.526   8.962  19.685  0.00  0.00    +0.000 A 
ATOM     10  C   UNL     1       1.418   8.121  20.808  0.00  0.00    +0.000 A 
ATOM     11  C   UNL     1       1.619   6.758  20.747  0.00  0.00    +0.000 A 
ATOM     12  C   UNL     1       0.857   8.868  21.978  0.00  0.00    +0.000 C 
ATOM     13  C   UNL     1       0.007   9.840  21.165  0.00  0.00    +0.000 C 
ATOM     14  C   UNL     1      -0.747  10.839  22.021  0.00  0.00    +0.000 C 
ATOM     15  N   UNL     1       0.914  10.199  20.026  0.00  0.00    +0.000 N 
ATOM     16  C   UNL     1       1.126  11.460  19.524  0.00  0.00    +0.000 C 
ATOM     17  C   UNL     1       2.037  11.628  18.338  0.00  0.00    +0.000 C 
ATOM     18  O   UNL     1       0.634  12.470  20.033  0.00  0.00    +0.000 OA
ENDBRANCH   3   6
ENDBRANCH   1   3
BRANCH   1  19
ATOM     19  C   UNL     1       4.227   4.619  20.057  0.00  0.00    +0.000 C 
BRANCH  19  21
ATOM     20  N   UNL     1       4.849   5.289  17.820  0.00  0.00    +0.000 N 
ATOM     21  C   UNL     1       5.142   4.413  18.862  0.00  0.00    +0.000 C 
ATOM     22  O   UNL     1       6.020   3.553  18.857  0.00  0.00    +0.000 OA
ATOM     23  H   UNL     1       3.848   5.452  17.764  0.00  0.00    +0.000 HD
BRANCH  20  27
ATOM     24  C   UNL     1       6.822   4.728  14.151  0.00  0.00    +0.000 A 
ATOM     25  C   UNL     1       5.523   4.253  14.347  0.00  0.00    +0.000 A 
ATOM     26  C   UNL     1       4.865   4.461  15.558  0.00  0.00    +0.000 A 
ATOM     27  C   UNL     1       5.524   5.123  16.593  0.00  0.00    +0.000 A 
ATOM     28  C   UNL     1       6.830   5.614  16.414  0.00  0.00    +0.000 A 
ATOM     29  C   UNL     1       7.471   5.415  15.184  0.00  0.00    +0.000 A 
BRANCH  24  31
ATOM     30  C   UNL     1       6.622   3.565  12.080  0.00  0.00    +0.000 C 
ATOM     31  O   UNL     1       7.333   4.478  12.907  0.00  0.00    +0.000 OA
ENDBRANCH  24  31
BRANCH  28  32
ATOM     32  O   UNL     1       7.354   6.344  17.453  0.00  0.00    +0.000 OA
ATOM     33  C   UNL     1       7.609   7.720  17.202  0.00  0.00    +0.000 C 
ENDBRANCH  28  32
ENDBRANCH  20  27
ENDBRANCH  19  21
ENDBRANCH   1  19
TORSDOF 7
ENDMDL
MODEL 2
REMARK VINA RESULT:      -7.4      1.994      7.618
REMARK  Name = 
REMARK  12 active torsions:
REMARK  status: ('A' for Active; 'I' for Inactive)
REMARK    1  A    between atoms: C_1  and  O_2
REMARK    2  A    between atoms: O_2  and  C_3
REMARK    3  A    between atoms: C_6  and  N_7
REMARK    4  A    between atoms: C_8  and  C_10
REMARK    5  A    between atoms: C_10  and  N_11
REMARK    6  A    between atoms: N_11  and  C_12
REMARK    7  A    between atoms: N_11  and  S_13
REMARK    8  A    between atoms: S_13  and  C_16
REMARK    9  A    between atoms: C_23  and  C_24
REMARK   10  A    between atoms: C_26  and  C_27
REMARK   11  A    between atoms: C_29  and  O_30
REMARK   12  A    between atoms: O_30  and  C_31
REMARK                            x       y       z     vdW  Elec       q    Type
REMARK                         _______ _______ _______ _____ _____    ______ ____
ROOT
ATOM      1  N   UNL     1       2.020   4.489  20.816  0.00  0.00    +0.000 NA
ATOM      2  C   UNL     1       0.700   4.723  20.148  0.00  0.00    +0.000 C 
ENDROOT
BRANCH   1   3
ATOM      3  S   UNL     1       2.540   2.885  20.495  0.00  0.00    +0.000 S 
ATOM      4  O   UNL     1       3.180   2.384  21.689  0.00  0.00    +0.000 OA
ATOM      5  O   UNL     1       1.411   2.182  19.915  0.00  0.00    +0.000 OA
BRANCH   3   6
ATOM      6  C   UNL     1       3.792   3.045  19.242  0.00  0.00    +0.000 A 
ATOM      7  C   UNL     1       3.494   2.799  17.884  0.00  0.00    +0.000 A 
ATOM      8  C   UNL     1       4.330   3.305  16.866  0.00  0.00    +0.000 A 
ATOM      9  C   UNL     1       5.419   4.073  17.244  0.00  0.00    +0.000 A 
ATOM     10  C   UNL     1       5.746   4.206  18.606  0.00  0.00    +0.000 A 
ATOM     11  C   UNL     1       4.961   3.698  19.619  0.00  0.00    +0.000 A 
ATOM     12  C   UNL     1       6.907   5.135  18.785  0.00  0.00    +0.000 C 
ATOM     13  C   UNL     1       6.613   6.007  17.567  0.00  0.00    +0.000 C 
ATOM     14  C   UNL     1       7.627   7.116  17.364  0.00  0.00    +0.000 C 
ATOM     15  N   UNL     1       6.224   5.000  16.527  0.00  0.00    +0.000 N 
ATOM     16  C   UNL     1       6.643   4.982  15.218  0.00  0.00    +0.000 C 
ATOM     17  C   UNL     1       6.107   3.919  14.296  0.00  0.00    +0.000 C 
ATOM     18  O   UNL     1       7.476   5.776  14.775  0.00  0.00    +0.000 OA
ENDBRANCH   3   6
ENDBRANCH   1   3
BRANCH   1  19
ATOM     19  C   UNL     1       3.013   5.537  20.404  0.00  0.00    +0.000 C 
BRANCH  19  21
ATOM     20  N   UNL     1       1.943   7.698  20.544  0.00  0.00    +0.000 N 
ATOM     21  C   UNL     1       2.334   6.683  19.675  0.00  0.00    +0.000 C 
ATOM     22  O   UNL     1       2.162   6.668  18.459  0.00  0.00    +0.000 OA
ATOM     23  H   UNL     1       1.634   7.309  21.430  0.00  0.00    +0.000 HD
BRANCH  20  27
ATOM     24  C   UNL     1      -0.284  10.899  18.974  0.00  0.00    +0.000 A 
ATOM     25  C   UNL     1       0.763  10.328  18.246  0.00  0.00    +0.000 A 
ATOM     26  C   UNL     1       1.484   9.253  18.761  0.00  0.00    +0.000 A 
ATOM     27  C   UNL     1       1.175   8.764  20.030  0.00  0.00    +0.000 A 
ATOM     28  C   UNL     1       0.121   9.321  20.777  0.00  0.00    +0.000 A 
ATOM     29  C   UNL     1      -0.608  10.389  20.236  0.00  0.00    +0.000 A 
BRANCH  24  31
ATOM     30  C   UNL     1      -2.075  11.604  17.566  0.00  0.00    +0.000 C 
ATOM     31  O   UNL     1      -0.922  11.926  18.333  0.00  0.00    +0.000 OA
ENDBRANCH  24  31
BRANCH  28  32
ATOM     32  O   UNL     1      -0.175   8.704  21.967  0.00  0.00    +0.000 OA
ATOM     33  C   UNL     1      -0.154   9.518  23.133  0.00  0.00    +0.000 C 
ENDBRANCH  28  32
ENDBRANCH  20  27
ENDBRANCH  19  21
ENDBRANCH   1  19
TORSDOF 7
ENDMDL
MODEL 3
REMARK VINA RESULT:      -7.4      3.873      6.086
REMARK  Name = 
REMARK  12 active torsions:
REMARK  status: ('A' for Active; 'I' for Inactive)
REMARK    1  A    between atoms: C_1  and  O_2
REMARK    2  A    between atoms: O_2  and  C_3
REMARK    3  A    between atoms: C_6  and  N_7
REMARK    4  A    between atoms: C_8  and  C_10
REMARK    5  A    between atoms: C_10  and  N_11
REMARK    6  A    between atoms: N_11  and  C_12
REMARK    7  A    between atoms: N_11  and  S_13
REMARK    8  A    between atoms: S_13  and  C_16
REMARK    9  A    between atoms: C_23  and  C_24
REMARK   10  A    between atoms: C_26  and  C_27
REMARK   11  A    between atoms: C_29  and  O_30
REMARK   12  A    between atoms: O_30  and  C_31
REMARK                            x       y       z     vdW  Elec       q    Type
REMARK                         _______ _______ _______ _____ _____    ______ ____
ROOT
ATOM      1  N   UNL     1       0.219   9.301  21.052  0.00  0.00    +0.000 NA
ATOM      2  C   UNL     1      -0.761   8.497  21.849  0.00  0.00    +0.000 C 
ENDROOT
BRANCH   1   3
ATOM      3  S   UNL     1       0.145  10.941  21.549  0.00  0.00    +0.000 S 
ATOM      4  O   UNL     1      -0.253  10.961  22.938  0.00  0.00    +0.000 OA
ATOM      5  O   UNL     1       1.386  11.567  21.132  0.00  0.00    +0.000 OA
BRANCH   3   6
ATOM      6  C   UNL     1      -1.178  11.655  20.600  0.00  0.00    +0.000 A 
ATOM      7  C   UNL     1      -1.473  11.186  19.302  0.00  0.00    +0.000 A 
ATOM      8  C   UNL     1      -2.734  11.442  18.719  0.00  0.00    +0.000 A 
ATOM      9  C   UNL     1      -3.669  12.130  19.474  0.00  0.00    +0.000 A 
ATOM     10  C   UNL     1      -3.304  12.675  20.719  0.00  0.00    +0.000 A 
ATOM     11  C   UNL     1      -2.071  12.463  21.298  0.00  0.00    +0.000 A 
ATOM     12  C   UNL     1      -4.485  13.305  21.390  0.00  0.00    +0.000 C 
ATOM     13  C   UNL     1      -5.535  12.375  20.788  0.00  0.00    +0.000 C 
ATOM     14  C   UNL     1      -6.950  12.709  21.220  0.00  0.00    +0.000 C 
ATOM     15  N   UNL     1      -5.082  12.242  19.365  0.00  0.00    +0.000 N 
ATOM     16  C   UNL     1      -5.882  12.303  18.249  0.00  0.00    +0.000 C 
ATOM     17  C   UNL     1      -5.260  12.096  16.894  0.00  0.00    +0.000 C 
ATOM     18  O   UNL     1      -7.086  12.564  18.308  0.00  0.00    +0.000 OA
ENDBRANCH   3   6
ENDBRANCH   1   3
BRANCH   1  19
ATOM     19  C   UNL     1       1.594   8.704  21.150  0.00  0.00    +0.000 C 
BRANCH  19  21
ATOM     20  N   UNL     1       2.550   6.707  20.183  0.00  0.00    +0.000 N 
ATOM     21  C   UNL     1       1.949   7.929  19.893  0.00  0.00    +0.000 C 
ATOM     22  O   UNL     1       1.720   8.374  18.771  0.00  0.00    +0.000 OA
ATOM     23  H   UNL     1       3.145   6.789  21.002  0.00  0.00    +0.000 HD
BRANCH  20  27
ATOM     24  C   UNL     1       4.096   4.484  16.968  0.00  0.00    +0.000 A 
ATOM     25  C   UNL     1       4.700   5.678  17.371  0.00  0.00    +0.000 A 
ATOM     26  C   UNL     1       4.197   6.400  18.452  0.00  0.00    +0.000 A 
ATOM     27  C   UNL     1       3.061   5.940  19.115  0.00  0.00    +0.000 A 
ATOM     28  C   UNL     1       2.440   4.738  18.728  0.00  0.00    +0.000 A 
ATOM     29  C   UNL     1       2.971   4.012  17.653  0.00  0.00    +0.000 A 
BRANCH  24  31
ATOM     30  C   UNL     1       6.124   4.016  15.804  0.00  0.00    +0.000 C 
ATOM     31  O   UNL     1       4.713   3.869  15.913  0.00  0.00    +0.000 OA
ENDBRANCH  24  31
BRANCH  28  32
ATOM     32  O   UNL     1       1.393   4.313  19.509  0.00  0.00    +0.000 OA
ATOM     33  C   UNL     1       0.927   2.988  19.288  0.00  0.00    +0.000 C 
ENDBRANCH  28  32
ENDBRANCH  20  27
ENDBRANCH  19  21
ENDBRANCH   1  19
TORSDOF 7
ENDMDL
MODEL 4
REMARK VINA RESULT:      -7.3      1.684      7.655
REMARK  Name = 
REMARK  12 active torsions:
REMARK  status: ('A' for Active; 'I' for Inactive)
REMARK    1  A    between atoms: C_1  and  O_2
REMARK    2  A    between atoms: O_2  and  C_3
REMARK    3  A    between atoms: C_6  and  N_7
REMARK    4  A    between atoms: C_8  and  C_10
REMARK    5  A    between atoms: C_10  and  N_11
REMARK    6  A    between atoms: N_11  and  C_12
REMARK    7  A    between atoms: N_11  and  S_13
REMARK    8  A    between atoms: S_13  and  C_16
REMARK    9  A    between atoms: C_23  and  C_24
REMARK   10  A    between atoms: C_26  and  C_27
REMARK   11  A    between atoms: C_29  and  O_30
REMARK   12  A    between atoms: O_30  and  C_31
REMARK                            x       y       z     vdW  Elec       q    Type
REMARK                         _______ _______ _______ _____ _____    ______ ____
ROOT
ATOM      1  N   UNL     1       2.180   4.438  20.774  0.00  0.00    +0.000 NA
ATOM      2  C   UNL     1       2.390   3.696  22.058  0.00  0.00    +0.000 C 
ENDROOT
BRANCH   1   3
ATOM      3  S   UNL     1       1.878   3.314  19.513  0.00  0.00    +0.000 S 
ATOM      4  O   UNL     1       1.806   1.998  20.105  0.00  0.00    +0.000 OA
ATOM      5  O   UNL     1       0.766   3.834  18.740  0.00  0.00    +0.000 OA
BRANCH   3   6
ATOM      6  C   UNL     1       3.331   3.363  18.489  0.00  0.00    +0.000 A 
ATOM      7  C   UNL     1       3.251   3.107  17.103  0.00  0.00    +0.000 A 
ATOM      8  C   UNL     1       4.279   3.534  16.236  0.00  0.00    +0.000 A 
ATOM      9  C   UNL     1       5.339   4.238  16.785  0.00  0.00    +0.000 A 
ATOM     10  C   UNL     1       5.440   4.380  18.181  0.00  0.00    +0.000 A 
ATOM     11  C   UNL     1       4.462   3.947  19.052  0.00  0.00    +0.000 A 
ATOM     12  C   UNL     1       6.614   5.235  18.544  0.00  0.00    +0.000 C 
ATOM     13  C   UNL     1       6.589   6.096  17.284  0.00  0.00    +0.000 C 
ATOM     14  C   UNL     1       7.697   7.132  17.244  0.00  0.00    +0.000 C 
ATOM     15  N   UNL     1       6.314   5.094  16.205  0.00  0.00    +0.000 N 
ATOM     16  C   UNL     1       6.946   5.019  14.986  0.00  0.00    +0.000 C 
ATOM     17  C   UNL     1       6.502   3.972  13.999  0.00  0.00    +0.000 C 
ATOM     18  O   UNL     1       7.894   5.746  14.683  0.00  0.00    +0.000 OA
ENDBRANCH   3   6
ENDBRANCH   1   3
BRANCH   1  19
ATOM     19  C   UNL     1       1.100   5.470  20.931  0.00  0.00    +0.000 C 
BRANCH  19  21
ATOM     20  N   UNL     1       0.708   7.853  20.852  0.00  0.00    +0.000 N 
ATOM     21  C   UNL     1       1.568   6.833  20.453  0.00  0.00    +0.000 C 
ATOM     22  O   UNL     1       2.591   6.971  19.785  0.00  0.00    +0.000 OA
ATOM     23  H   UNL     1      -0.255   7.531  20.837  0.00  0.00    +0.000 HD
BRANCH  20  27
ATOM     24  C   UNL     1       1.442  11.707  19.346  0.00  0.00    +0.000 A 
ATOM     25  C   UNL     1       1.490  10.590  18.510  0.00  0.00    +0.000 A 
ATOM     26  C   UNL     1       1.224   9.316  19.009  0.00  0.00    +0.000 A 
ATOM     27  C   UNL     1       0.938   9.156  20.364  0.00  0.00    +0.000 A 
ATOM     28  C   UNL     1       0.880  10.269  21.222  0.00  0.00    +0.000 A 
ATOM     29  C   UNL     1       1.130  11.546  20.700  0.00  0.00    +0.000 A 
BRANCH  24  31
ATOM     30  C   UNL     1       2.527  13.830  19.392  0.00  0.00    +0.000 C 
ATOM     31  O   UNL     1       1.696  12.895  18.715  0.00  0.00    +0.000 OA
ENDBRANCH  24  31
BRANCH  28  32
ATOM     32  O   UNL     1       0.487  10.023  22.515  0.00  0.00    +0.000 OA
ATOM     33  C   UNL     1      -0.712  10.651  22.949  0.00  0.00    +0.000 C 
ENDBRANCH  28  32
ENDBRANCH  20  27
ENDBRANCH  19  21
ENDBRANCH   1  19
TORSDOF 7
ENDMDL
MODEL 5
REMARK VINA RESULT:      -7.2      1.875      8.364
REMARK  Name = 
REMARK  12 active torsions:
REMARK  status: ('A' for Active; 'I' for Inactive)
REMARK    1  A    between atoms: C_1  and  O_2
REMARK    2  A    between atoms: O_2  and  C_3
REMARK    3  A    between atoms: C_6  and  N_7
REMARK    4  A    between atoms: C_8  and  C_10
REMARK    5  A    between atoms: C_10  and  N_11
REMARK    6  A    between atoms: N_11  and  C_12
REMARK    7  A    between atoms: N_11  and  S_13
REMARK    8  A    between atoms: S_13  and  C_16
REMARK    9  A    between atoms: C_23  and  C_24
REMARK   10  A    between atoms: C_26  and  C_27
REMARK   11  A    between atoms: C_29  and  O_30
REMARK   12  A    between atoms: O_30  and  C_31
REMARK                            x       y       z     vdW  Elec       q    Type
REMARK                         _______ _______ _______ _____ _____    ______ ____
ROOT
ATOM      1  N   UNL     1       1.490   4.615  19.968  0.00  0.00    +0.000 NA
ATOM      2  C   UNL     1       1.404   4.970  18.515  0.00  0.00    +0.000 C 
ENDROOT
BRANCH   1   3
ATOM      3  S   UNL     1       2.334   3.131  20.139  0.00  0.00    +0.000 S 
ATOM      4  O   UNL     1       2.861   3.079  21.483  0.00  0.00    +0.000 OA
ATOM      5  O   UNL     1       1.453   2.085  19.654  0.00  0.00    +0.000 OA
BRANCH   3   6
ATOM      6  C   UNL     1       3.714   3.251  19.024  0.00  0.00    +0.000 A 
ATOM      7  C   UNL     1       3.573   2.925  17.658  0.00  0.00    +0.000 A 
ATOM      8  C   UNL     1       4.509   3.394  16.711  0.00  0.00    +0.000 A 
ATOM      9  C   UNL     1       5.536   4.205  17.163  0.00  0.00    +0.000 A 
ATOM     10  C   UNL     1       5.708   4.419  18.543  0.00  0.00    +0.000 A 
ATOM     11  C   UNL     1       4.824   3.949  19.490  0.00  0.00    +0.000 A 
ATOM     12  C   UNL     1       6.826   5.382  18.796  0.00  0.00    +0.000 C 
ATOM     13  C   UNL     1       6.655   6.180  17.506  0.00  0.00    +0.000 C 
ATOM     14  C   UNL     1       7.668   7.298  17.353  0.00  0.00    +0.000 C 
ATOM     15  N   UNL     1       6.401   5.109  16.487  0.00  0.00    +0.000 N 
ATOM     16  C   UNL     1       6.962   5.030  15.235  0.00  0.00    +0.000 C 
ATOM     17  C   UNL     1       6.550   3.907  14.322  0.00  0.00    +0.000 C 
ATOM     18  O   UNL     1       7.827   5.817  14.844  0.00  0.00    +0.000 OA
ENDBRANCH   3   6
ENDBRANCH   1   3
BRANCH   1  19
ATOM     19  C   UNL     1       2.093   5.744  20.752  0.00  0.00    +0.000 C 
BRANCH  19  21
ATOM     20  N   UNL     1       1.712   8.084  21.219  0.00  0.00    +0.000 N 
ATOM     21  C   UNL     1       1.090   6.865  20.965  0.00  0.00    +0.000 C 
ATOM     22  O   UNL     1      -0.122   6.668  20.918  0.00  0.00    +0.000 OA
ATOM     23  H   UNL     1       2.553   7.946  21.770  0.00  0.00    +0.000 HD
BRANCH  20  27
ATOM     24  C   UNL     1      -0.728  11.325  22.320  0.00  0.00    +0.000 A 
ATOM     25  C   UNL     1      -0.494  10.270  23.205  0.00  0.00    +0.000 A 
ATOM     26  C   UNL     1       0.333   9.208  22.844  0.00  0.00    +0.000 A 
ATOM     27  C   UNL     1       0.907   9.187  21.574  0.00  0.00    +0.000 A 
ATOM     28  C   UNL     1       0.689  10.243  20.669  0.00  0.00    +0.000 A 
ATOM     29  C   UNL     1      -0.129  11.314  21.056  0.00  0.00    +0.000 A 
BRANCH  24  31
ATOM     30  C   UNL     1      -2.820  12.466  22.228  0.00  0.00    +0.000 C 
ATOM     31  O   UNL     1      -1.535  12.311  22.819  0.00  0.00    +0.000 OA
ENDBRANCH  24  31
BRANCH  28  32
ATOM     32  O   UNL     1       1.382  10.184  19.485  0.00  0.00    +0.000 OA
ATOM     33  C   UNL     1       0.624   9.911  18.313  0.00  0.00    +0.000 C 
ENDBRANCH  28  32
ENDBRANCH  20  27
ENDBRANCH  19  21
ENDBRANCH   1  19
TORSDOF 7
ENDMDL
MODEL 6
REMARK VINA RESULT:      -7.2      3.608      5.614
REMARK  Name = 
REMARK  12 active torsions:
REMARK  status: ('A' for Active; 'I' for Inactive)
REMARK    1  A    between atoms: C_1  and  O_2
REMARK    2  A    between atoms: O_2  and  C_3
REMARK    3  A    between atoms: C_6  and  N_7
REMARK    4  A    between atoms: C_8  and  C_10
REMARK    5  A    between atoms: C_10  and  N_11
REMARK    6  A    between atoms: N_11  and  C_12
REMARK    7  A    between atoms: N_11  and  S_13
REMARK    8  A    between atoms: S_13  and  C_16
REMARK    9  A    between atoms: C_23  and  C_24
REMARK   10  A    between atoms: C_26  and  C_27
REMARK   11  A    between atoms: C_29  and  O_30
REMARK   12  A    between atoms: O_30  and  C_31
REMARK                            x       y       z     vdW  Elec       q    Type
REMARK                         _______ _______ _______ _____ _____    ______ ____
ROOT
ATOM      1  N   UNL     1       0.575   9.109  20.166  0.00  0.00    +0.000 NA
ATOM      2  C   UNL     1      -0.463   8.972  21.237  0.00  0.00    +0.000 C 
ENDROOT
BRANCH   1   3
ATOM      3  S   UNL     1       0.910  10.772  19.911  0.00  0.00    +0.000 S 
ATOM      4  O   UNL     1       1.262  11.350  21.188  0.00  0.00    +0.000 OA
ATOM      5  O   UNL     1       1.828  10.852  18.791  0.00  0.00    +0.000 OA
BRANCH   3   6
ATOM      6  C   UNL     1      -0.639  11.485  19.407  0.00  0.00    +0.000 A 
ATOM      7  C   UNL     1      -1.403  10.902  18.373  0.00  0.00    +0.000 A 
ATOM      8  C   UNL     1      -2.778  11.197  18.246  0.00  0.00    +0.000 A 
ATOM      9  C   UNL     1      -3.348  12.041  19.185  0.00  0.00    +0.000 A 
ATOM     10  C   UNL     1      -2.536  12.688  20.135  0.00  0.00    +0.000 A 
ATOM     11  C   UNL     1      -1.186  12.438  20.261  0.00  0.00    +0.000 A 
ATOM     12  C   UNL     1      -3.368  13.486  21.090  0.00  0.00    +0.000 C 
ATOM     13  C   UNL     1      -4.600  12.586  21.030  0.00  0.00    +0.000 C 
ATOM     14  C   UNL     1      -5.748  13.084  21.887  0.00  0.00    +0.000 C 
ATOM     15  N   UNL     1      -4.699  12.259  19.570  0.00  0.00    +0.000 N 
ATOM     16  C   UNL     1      -5.847  12.263  18.814  0.00  0.00    +0.000 C 
ATOM     17  C   UNL     1      -5.766  11.856  17.367  0.00  0.00    +0.000 C 
ATOM     18  O   UNL     1      -6.936  12.630  19.260  0.00  0.00    +0.000 OA
ENDBRANCH   3   6
ENDBRANCH   1   3
BRANCH   1  19
ATOM     19  C   UNL     1       1.791   8.295  20.504  0.00  0.00    +0.000 C 
BRANCH  19  21
ATOM     20  N   UNL     1       3.108   6.438  19.695  0.00  0.00    +0.000 N 
ATOM     21  C   UNL     1       2.243   7.461  19.318  0.00  0.00    +0.000 C 
ATOM     22  O   UNL     1       1.869   7.706  18.173  0.00  0.00    +0.000 OA
ATOM     23  H   UNL     1       3.711   6.744  20.453  0.00  0.00    +0.000 HD
BRANCH  20  27
ATOM     24  C   UNL     1       4.948   4.208  16.644  0.00  0.00    +0.000 A 
ATOM     25  C   UNL     1       5.417   5.478  16.987  0.00  0.00    +0.000 A 
ATOM     26  C   UNL     1       4.818   6.205  18.014  0.00  0.00    +0.000 A 
ATOM     27  C   UNL     1       3.719   5.668  18.684  0.00  0.00    +0.000 A 
ATOM     28  C   UNL     1       3.234   4.388  18.357  0.00  0.00    +0.000 A 
ATOM     29  C   UNL     1       3.861   3.661  17.336  0.00  0.00    +0.000 A 
BRANCH  24  31
ATOM     30  C   UNL     1       5.810   4.323  14.424  0.00  0.00    +0.000 C 
ATOM     31  O   UNL     1       5.649   3.600  15.638  0.00  0.00    +0.000 OA
ENDBRANCH  24  31
BRANCH  28  32
ATOM     32  O   UNL     1       2.218   3.903  19.143  0.00  0.00    +0.000 OA
ATOM     33  C   UNL     1       1.213   3.138  18.490  0.00  0.00    +0.000 C 
ENDBRANCH  28  32
ENDBRANCH  20  27
ENDBRANCH  19  21
ENDBRANCH   1  19
TORSDOF 7
ENDMDL
MODEL 7
REMARK VINA RESULT:      -7.1      1.999      8.911
REMARK  Name = 
REMARK  12 active torsions:
REMARK  status: ('A' for Active; 'I' for Inactive)
REMARK    1  A    between atoms: C_1  and  O_2
REMARK    2  A    between atoms: O_2  and  C_3
REMARK    3  A    between atoms: C_6  and  N_7
REMARK    4  A    between atoms: C_8  and  C_10
REMARK    5  A    between atoms: C_10  and  N_11
REMARK    6  A    between atoms: N_11  and  C_12
REMARK    7  A    between atoms: N_11  and  S_13
REMARK    8  A    between atoms: S_13  and  C_16
REMARK    9  A    between atoms: C_23  and  C_24
REMARK   10  A    between atoms: C_26  and  C_27
REMARK   11  A    between atoms: C_29  and  O_30
REMARK   12  A    between atoms: O_30  and  C_31
REMARK                            x       y       z     vdW  Elec       q    Type
REMARK                         _______ _______ _______ _____ _____    ______ ____
ROOT
ATOM      1  N   UNL     1       1.390   6.295  19.947  0.00  0.00    +0.000 NA
ATOM      2  C   UNL     1       2.229   6.859  18.842  0.00  0.00    +0.000 C 
ENDROOT
BRANCH   1   3
ATOM      3  S   UNL     1       1.804   4.648  20.190  0.00  0.00    +0.000 S 
ATOM      4  O   UNL     1       2.255   4.505  21.555  0.00  0.00    +0.000 OA
ATOM      5  O   UNL     1       0.693   3.855  19.697  0.00  0.00    +0.000 OA
BRANCH   3   6
ATOM      6  C   UNL     1       3.202   4.359  19.129  0.00  0.00    +0.000 A 
ATOM      7  C   UNL     1       3.026   3.872  17.816  0.00  0.00    +0.000 A 
ATOM      8  C   UNL     1       4.047   4.027  16.853  0.00  0.00    +0.000 A 
ATOM      9  C   UNL     1       5.198   4.698  17.233  0.00  0.00    +0.000 A 
ATOM     10  C   UNL     1       5.383   5.073  18.576  0.00  0.00    +0.000 A 
ATOM     11  C   UNL     1       4.411   4.908  19.541  0.00  0.00    +0.000 A 
ATOM     12  C   UNL     1       6.653   5.848  18.741  0.00  0.00    +0.000 C 
ATOM     13  C   UNL     1       6.652   6.471  17.347  0.00  0.00    +0.000 C 
ATOM     14  C   UNL     1       7.854   7.358  17.085  0.00  0.00    +0.000 C 
ATOM     15  N   UNL     1       6.223   5.328  16.476  0.00  0.00    +0.000 N 
ATOM     16  C   UNL     1       6.782   4.972  15.272  0.00  0.00    +0.000 C 
ATOM     17  C   UNL     1       6.187   3.821  14.505  0.00  0.00    +0.000 C 
ATOM     18  O   UNL     1       7.782   5.528  14.812  0.00  0.00    +0.000 OA
ENDBRANCH   3   6
ENDBRANCH   1   3
BRANCH   1  19
ATOM     19  C   UNL     1       1.515   7.136  21.185  0.00  0.00    +0.000 C 
BRANCH  19  21
ATOM     20  N   UNL     1       0.777   9.433  21.054  0.00  0.00    +0.000 N 
ATOM     21  C   UNL     1       0.367   8.125  21.298  0.00  0.00    +0.000 C 
ATOM     22  O   UNL     1      -0.773   7.766  21.582  0.00  0.00    +0.000 OA
ATOM     23  H   UNL     1       1.713   9.585  21.417  0.00  0.00    +0.000 HD
BRANCH  20  27
ATOM     24  C   UNL     1      -2.009  12.507  21.728  0.00  0.00    +0.000 A 
ATOM     25  C   UNL     1      -1.434  11.813  22.796  0.00  0.00    +0.000 A 
ATOM     26  C   UNL     1      -0.494  10.809  22.568  0.00  0.00    +0.000 A 
ATOM     27  C   UNL     1      -0.149  10.476  21.259  0.00  0.00    +0.000 A 
ATOM     28  C   UNL     1      -0.713  11.167  20.170  0.00  0.00    +0.000 A 
ATOM     29  C   UNL     1      -1.641  12.188  20.417  0.00  0.00    +0.000 A 
BRANCH  24  31
ATOM     30  C   UNL     1      -2.615  14.193  23.302  0.00  0.00    +0.000 C 
ATOM     31  O   UNL     1      -2.892  13.483  22.101  0.00  0.00    +0.000 OA
ENDBRANCH  24  31
BRANCH  28  32
ATOM     32  O   UNL     1      -0.231  10.840  18.926  0.00  0.00    +0.000 OA
ATOM     33  C   UNL     1      -1.167  10.307  17.998  0.00  0.00    +0.000 C 
ENDBRANCH  28  32
ENDBRANCH  20  27
ENDBRANCH  19  21
ENDBRANCH   1  19
TORSDOF 7
ENDMDL
MODEL 8
REMARK VINA RESULT:      -7.0      1.594      1.811
REMARK  Name = 
REMARK  12 active torsions:
REMARK  status: ('A' for Active; 'I' for Inactive)
REMARK    1  A    between atoms: C_1  and  O_2
REMARK    2  A    between atoms: O_2  and  C_3
REMARK    3  A    between atoms: C_6  and  N_7
REMARK    4  A    between atoms: C_8  and  C_10
REMARK    5  A    between atoms: C_10  and  N_11
REMARK    6  A    between atoms: N_11  and  C_12
REMARK    7  A    between atoms: N_11  and  S_13
REMARK    8  A    between atoms: S_13  and  C_16
REMARK    9  A    between atoms: C_23  and  C_24
REMARK   10  A    between atoms: C_26  and  C_27
REMARK   11  A    between atoms: C_29  and  O_30
REMARK   12  A    between atoms: O_30  and  C_31
REMARK                            x       y       z     vdW  Elec       q    Type
REMARK                         _______ _______ _______ _____ _____    ______ ____
ROOT
ATOM      1  N   UNL     1       1.642   3.423  18.626  0.00  0.00    +0.000 NA
ATOM      2  C   UNL     1       0.170   3.153  18.689  0.00  0.00    +0.000 C 
ENDROOT
BRANCH   1   3
ATOM      3  S   UNL     1       2.187   3.954  20.164  0.00  0.00    +0.000 S 
ATOM      4  O   UNL     1       1.138   3.682  21.119  0.00  0.00    +0.000 OA
ATOM      5  O   UNL     1       3.516   3.403  20.356  0.00  0.00    +0.000 OA
BRANCH   3   6
ATOM      6  C   UNL     1       2.338   5.720  20.019  0.00  0.00    +0.000 A 
ATOM      7  C   UNL     1       2.582   6.326  18.768  0.00  0.00    +0.000 A 
ATOM      8  C   UNL     1       2.299   7.695  18.570  0.00  0.00    +0.000 A 
ATOM      9  C   UNL     1       1.747   8.401  19.626  0.00  0.00    +0.000 A 
ATOM     10  C   UNL     1       1.619   7.794  20.888  0.00  0.00    +0.000 A 
ATOM     11  C   UNL     1       1.914   6.466  21.114  0.00  0.00    +0.000 A 
ATOM     12  C   UNL     1       0.932   8.711  21.852  0.00  0.00    +0.000 C 
ATOM     13  C   UNL     1       0.076   9.433  20.814  0.00  0.00    +0.000 C 
ATOM     14  C   UNL     1      -0.798  10.520  21.410  0.00  0.00    +0.000 C 
ATOM     15  N   UNL     1       1.033   9.629  19.677  0.00  0.00    +0.000 N 
ATOM     16  C   UNL     1       1.193  10.779  18.941  0.00  0.00    +0.000 C 
ATOM     17  C   UNL     1       2.170  10.780  17.796  0.00  0.00    +0.000 C 
ATOM     18  O   UNL     1       0.603  11.828  19.209  0.00  0.00    +0.000 OA
ENDBRANCH   3   6
ENDBRANCH   1   3
BRANCH   1  19
ATOM     19  C   UNL     1       2.377   2.220  18.110  0.00  0.00    +0.000 C 
BRANCH  19  21
ATOM     20  N   UNL     1       3.737   3.893  17.019  0.00  0.00    +0.000 N 
ATOM     21  C   UNL     1       3.734   2.604  17.544  0.00  0.00    +0.000 C 
ATOM     22  O   UNL     1       4.687   1.828  17.562  0.00  0.00    +0.000 OA
ATOM     23  H   UNL     1       2.845   4.100  16.580  0.00  0.00    +0.000 HD
BRANCH  20  27
ATOM     24  C   UNL     1       7.158   5.156  14.929  0.00  0.00    +0.000 A 
ATOM     25  C   UNL     1       6.111   4.510  14.267  0.00  0.00    +0.000 A 
ATOM     26  C   UNL     1       4.969   4.113  14.960  0.00  0.00    +0.000 A 
ATOM     27  C   UNL     1       4.887   4.336  16.334  0.00  0.00    +0.000 A 
ATOM     28  C   UNL     1       5.929   4.989  17.018  0.00  0.00    +0.000 A 
ATOM     29  C   UNL     1       7.062   5.401  16.303  0.00  0.00    +0.000 A 
BRANCH  24  31
ATOM     30  C   UNL     1       7.996   5.435  12.715  0.00  0.00    +0.000 C 
ATOM     31  O   UNL     1       8.202   5.514  14.120  0.00  0.00    +0.000 OA
ENDBRANCH  24  31
BRANCH  28  32
ATOM     32  O   UNL     1       5.710   5.258  18.348  0.00  0.00    +0.000 OA
ATOM     33  C   UNL     1       6.849   5.603  19.126  0.00  0.00    +0.000 C 
ENDBRANCH  28  32
ENDBRANCH  20  27
ENDBRANCH  19  21
ENDBRANCH   1  19
TORSDOF 7
ENDMDL
MODEL 9
REMARK VINA RESULT:      -7.0      1.464      2.436
REMARK  Name = 
REMARK  12 active torsions:
REMARK  status: ('A' for Active; 'I' for Inactive)
REMARK    1  A    between atoms: C_1  and  O_2
REMARK    2  A    between atoms: O_2  and  C_3
REMARK    3  A    between atoms: C_6  and  N_7
REMARK    4  A    between atoms: C_8  and  C_10
REMARK    5  A    between atoms: C_10  and  N_11
REMARK    6  A    between atoms: N_11  and  C_12
REMARK    7  A    between atoms: N_11  and  S_13
REMARK    8  A    between atoms: S_13  and  C_16
REMARK    9  A    between atoms: C_23  and  C_24
REMARK   10  A    between atoms: C_26  and  C_27
REMARK   11  A    between atoms: C_29  and  O_30
REMARK   12  A    between atoms: O_30  and  C_31
REMARK                            x       y       z     vdW  Elec       q    Type
REMARK                         _______ _______ _______ _____ _____    ______ ____
ROOT
ATOM      1  N   UNL     1       1.913   3.938  19.449  0.00  0.00    +0.000 NA
ATOM      2  C   UNL     1       0.921   3.203  20.297  0.00  0.00    +0.000 C 
ENDROOT
BRANCH   1   3
ATOM      3  S   UNL     1       2.686   5.142  20.396  0.00  0.00    +0.000 S 
ATOM      4  O   UNL     1       2.547   4.765  21.784  0.00  0.00    +0.000 OA
ATOM      5  O   UNL     1       4.001   5.353  19.821  0.00  0.00    +0.000 OA
BRANCH   3   6
ATOM      6  C   UNL     1       1.729   6.619  20.141  0.00  0.00    +0.000 A 
ATOM      7  C   UNL     1       1.038   7.227  21.212  0.00  0.00    +0.000 A 
ATOM      8  C   UNL     1       0.632   8.577  21.124  0.00  0.00    +0.000 A 
ATOM      9  C   UNL     1       0.965   9.280  19.978  0.00  0.00    +0.000 A 
ATOM     10  C   UNL     1       1.556   8.613  18.890  0.00  0.00    +0.000 A 
ATOM     11  C   UNL     1       1.938   7.289  18.941  0.00  0.00    +0.000 A 
ATOM     12  C   UNL     1       1.897   9.577  17.797  0.00  0.00    +0.000 C 
ATOM     13  C   UNL     1       2.152  10.777  18.706  0.00  0.00    +0.000 C 
ATOM     14  C   UNL     1       2.520  12.037  17.946  0.00  0.00    +0.000 C 
ATOM     15  N   UNL     1       1.041  10.674  19.707  0.00  0.00    +0.000 N 
ATOM     16  C   UNL     1       0.259  11.709  20.162  0.00  0.00    +0.000 C 
ATOM     17  C   UNL     1      -0.782  11.428  21.213  0.00  0.00    +0.000 C 
ATOM     18  O   UNL     1       0.344  12.853  19.711  0.00  0.00    +0.000 OA
ENDBRANCH   3   6
ENDBRANCH   1   3
BRANCH   1  19
ATOM     19  C   UNL     1       2.868   2.977  18.802  0.00  0.00    +0.000 C 
BRANCH  19  21
ATOM     20  N   UNL     1       4.861   3.195  17.454  0.00  0.00    +0.000 N 
ATOM     21  C   UNL     1       3.535   3.597  17.587  0.00  0.00    +0.000 C 
ATOM     22  O   UNL     1       2.936   4.369  16.841  0.00  0.00    +0.000 OA
ATOM     23  H   UNL     1       5.295   3.094  18.367  0.00  0.00    +0.000 HD
BRANCH  20  27
ATOM     24  C   UNL     1       7.190   4.939  14.420  0.00  0.00    +0.000 A 
ATOM     25  C   UNL     1       6.031   4.222  14.112  0.00  0.00    +0.000 A 
ATOM     26  C   UNL     1       5.250   3.664  15.123  0.00  0.00    +0.000 A 
ATOM     27  C   UNL     1       5.649   3.799  16.452  0.00  0.00    +0.000 A 
ATOM     28  C   UNL     1       6.810   4.521  16.783  0.00  0.00    +0.000 A 
ATOM     29  C   UNL     1       7.573   5.094  15.757  0.00  0.00    +0.000 A 
BRANCH  24  31
ATOM     30  C   UNL     1       7.494   4.931  12.055  0.00  0.00    +0.000 C 
ATOM     31  O   UNL     1       7.840   5.454  13.332  0.00  0.00    +0.000 OA
ENDBRANCH  24  31
BRANCH  28  32
ATOM     32  O   UNL     1       7.062   4.689  18.123  0.00  0.00    +0.000 OA
ATOM     33  C   UNL     1       7.433   5.995  18.546  0.00  0.00    +0.000 C 
ENDBRANCH  28  32
ENDBRANCH  20  27
ENDBRANCH  19  21
ENDBRANCH   1  19
TORSDOF 7
ENDMDL
