MODEL 1
REMARK VINA RESULT:      -7.7      0.000      0.000
REMARK  Name = 
REMARK  2 active torsions:
REMARK  status: ('A' for Active; 'I' for Inactive)
REMARK    1  A    between atoms: N_2  and  C_4
REMARK    2  A    between atoms: C_7  and  C_8
REMARK                            x       y       z     vdW  Elec       q    Type
REMARK                         _______ _______ _______ _____ _____    ______ ____
ROOT
ATOM      1  C   UNL     1       5.957   4.878  15.219  0.00  0.00    +0.000 A 
ATOM      2  C   UNL     1       5.393   6.084  15.656  0.00  0.00    +0.000 A 
ATOM      3  C   UNL     1       4.489   6.077  16.724  0.00  0.00    +0.000 A 
ATOM      4  C   UNL     1       4.146   4.872  17.355  0.00  0.00    +0.000 A 
ATOM      5  C   UNL     1       4.711   3.669  16.905  0.00  0.00    +0.000 A 
ATOM      6  C   UNL     1       5.617   3.669  15.839  0.00  0.00    +0.000 A 
ENDROOT
BRANCH   4   7
ATOM      7  C   UNL     1       3.188   4.868  18.469  0.00  0.00    +0.000 A 
ATOM      8  C   UNL     1       3.273   5.822  19.414  0.00  0.00    +0.000 A 
ATOM      9  C   UNL     1       2.265   5.740  20.508  0.00  0.00    +0.000 A 
ATOM     10  N   UNL     1       1.328   4.850  20.628  0.00  0.00    +0.000 NA
ATOM     11  C   UNL     1       1.277   3.903  19.643  0.00  0.00    +0.000 A 
ATOM     12  N   UNL     1       0.457   2.886  19.480  0.00  0.00    +0.000 NA
ATOM     13  N   UNL     1       0.842   2.251  18.329  0.00  0.00    +0.000 NA
ATOM     14  N   UNL     1       1.884   2.849  17.773  0.00  0.00    +0.000 NA
ATOM     15  N   UNL     1       2.185   3.897  18.575  0.00  0.00    +0.000 N 
ENDBRANCH   4   7
BRANCH   1  17
ATOM     16  O   UNL     1       6.673   4.151  13.135  0.00  0.00    +0.000 OA
ATOM     17  N   UNL     1       6.913   4.884  14.104  0.00  0.00    +0.000 N 
ATOM     18  O   UNL     1       7.909   5.615  14.204  0.00  0.00    +0.000 OA
ENDBRANCH   1  17
TORSDOF 2
ENDMDL
MODEL 2
REMARK VINA RESULT:      -7.7      0.045      1.145
REMARK  Name = 
REMARK  2 active torsions:
REMARK  status: ('A' for Active; 'I' for Inactive)
REMARK    1  A    between atoms: N_2  and  C_4
REMARK    2  A    between atoms: C_7  and  C_8
REMARK                            x       y       z     vdW  Elec       q    Type
REMARK                         _______ _______ _______ _____ _____    ______ ____
ROOT
ATOM      1  C   UNL     1       5.966   4.871  15.190  0.00  0.00    +0.000 A 
ATOM      2  C   UNL     1       5.607   3.665  15.806  0.00  0.00    +0.000 A 
ATOM      3  C   UNL     1       4.695   3.676  16.866  0.00  0.00    +0.000 A 
ATOM      4  C   UNL     1       4.142   4.885  17.315  0.00  0.00    +0.000 A 
ATOM      5  C   UNL     1       4.515   6.087  16.696  0.00  0.00    +0.000 A 
ATOM      6  C   UNL     1       5.425   6.084  15.634  0.00  0.00    +0.000 A 
ENDROOT
BRANCH   4   7
ATOM      7  C   UNL     1       3.194   4.893  18.436  0.00  0.00    +0.000 A 
ATOM      8  C   UNL     1       3.279   5.863  19.365  0.00  0.00    +0.000 A 
ATOM      9  C   UNL     1       2.280   5.792  20.468  0.00  0.00    +0.000 A 
ATOM     10  N   UNL     1       1.351   4.899  20.610  0.00  0.00    +0.000 NA
ATOM     11  C   UNL     1       1.298   3.936  19.641  0.00  0.00    +0.000 A 
ATOM     12  N   UNL     1       0.482   2.911  19.501  0.00  0.00    +0.000 NA
ATOM     13  N   UNL     1       0.863   2.259  18.357  0.00  0.00    +0.000 NA
ATOM     14  N   UNL     1       1.897   2.855  17.784  0.00  0.00    +0.000 NA
ATOM     15  N   UNL     1       2.197   3.918  18.566  0.00  0.00    +0.000 N 
ENDBRANCH   4   7
BRANCH   1  17
ATOM     16  O   UNL     1       6.683   4.098  13.122  0.00  0.00    +0.000 OA
ATOM     17  N   UNL     1       6.917   4.861  14.070  0.00  0.00    +0.000 N 
ATOM     18  O   UNL     1       7.901   5.611  14.143  0.00  0.00    +0.000 OA
ENDBRANCH   1  17
TORSDOF 2
ENDMDL
MODEL 3
REMARK VINA RESULT:      -7.5      3.615      6.208
REMARK  Name = 
REMARK  2 active torsions:
REMARK  status: ('A' for Active; 'I' for Inactive)
REMARK    1  A    between atoms: N_2  and  C_4
REMARK    2  A    between atoms: C_7  and  C_8
REMARK                            x       y       z     vdW  Elec       q    Type
REMARK                         _______ _______ _______ _____ _____    ______ ____
ROOT
ATOM      1  C   UNL     1       2.246   3.391  19.419  0.00  0.00    +0.000 A 
ATOM      2  C   UNL     1       2.033   4.386  18.456  0.00  0.00    +0.000 A 
ATOM      3  C   UNL     1       3.131   5.003  17.846  0.00  0.00    +0.000 A 
ATOM      4  C   UNL     1       4.438   4.632  18.196  0.00  0.00    +0.000 A 
ATOM      5  C   UNL     1       4.639   3.639  19.167  0.00  0.00    +0.000 A 
ATOM      6  C   UNL     1       3.547   3.017  19.779  0.00  0.00    +0.000 A 
ENDROOT
BRANCH   4   7
ATOM      7  C   UNL     1       5.587   5.290  17.561  0.00  0.00    +0.000 A 
ATOM      8  C   UNL     1       6.240   6.262  18.226  0.00  0.00    +0.000 A 
ATOM      9  C   UNL     1       7.390   6.877  17.507  0.00  0.00    +0.000 A 
ATOM     10  N   UNL     1       7.815   6.564  16.322  0.00  0.00    +0.000 NA
ATOM     11  C   UNL     1       7.126   5.569  15.686  0.00  0.00    +0.000 A 
ATOM     12  N   UNL     1       7.308   5.030  14.498  0.00  0.00    +0.000 NA
ATOM     13  N   UNL     1       6.340   4.072  14.348  0.00  0.00    +0.000 NA
ATOM     14  N   UNL     1       5.560   4.003  15.416  0.00  0.00    +0.000 NA
ATOM     15  N   UNL     1       6.028   4.933  16.281  0.00  0.00    +0.000 N 
ENDBRANCH   4   7
BRANCH   1  17
ATOM     16  O   UNL     1       1.081   2.663  21.290  0.00  0.00    +0.000 OA
ATOM     17  N   UNL     1       1.095   2.735  20.054  0.00  0.00    +0.000 N 
ATOM     18  O   UNL     1       0.209   2.284  19.313  0.00  0.00    +0.000 OA
ENDBRANCH   1  17
TORSDOF 2
ENDMDL
MODEL 4
REMARK VINA RESULT:      -7.5      3.754      6.455
REMARK  Name = 
REMARK  2 active torsions:
REMARK  status: ('A' for Active; 'I' for Inactive)
REMARK    1  A    between atoms: N_2  and  C_4
REMARK    2  A    between atoms: C_7  and  C_8
REMARK                            x       y       z     vdW  Elec       q    Type
REMARK                         _______ _______ _______ _____ _____    ______ ____
ROOT
ATOM      1  C   UNL     1       2.013   3.201  18.813  0.00  0.00    +0.000 A 
ATOM      2  C   UNL     1       2.072   4.534  18.386  0.00  0.00    +0.000 A 
ATOM      3  C   UNL     1       3.136   4.955  17.582  0.00  0.00    +0.000 A 
ATOM      4  C   UNL     1       4.142   4.053  17.205  0.00  0.00    +0.000 A 
ATOM      5  C   UNL     1       4.077   2.722  17.645  0.00  0.00    +0.000 A 
ATOM      6  C   UNL     1       3.015   2.293  18.447  0.00  0.00    +0.000 A 
ENDROOT
BRANCH   4   7
ATOM      7  C   UNL     1       5.263   4.502  16.370  0.00  0.00    +0.000 A 
ATOM      8  C   UNL     1       5.480   3.907  15.183  0.00  0.00    +0.000 A 
ATOM      9  C   UNL     1       6.641   4.423  14.404  0.00  0.00    +0.000 A 
ATOM     10  N   UNL     1       7.444   5.378  14.758  0.00  0.00    +0.000 NA
ATOM     11  C   UNL     1       7.184   5.956  15.969  0.00  0.00    +0.000 A 
ATOM     12  N   UNL     1       7.802   6.934  16.598  0.00  0.00    +0.000 NA
ATOM     13  N   UNL     1       7.135   7.126  17.779  0.00  0.00    +0.000 NA
ATOM     14  N   UNL     1       6.117   6.289  17.899  0.00  0.00    +0.000 NA
ATOM     15  N   UNL     1       6.116   5.536  16.775  0.00  0.00    +0.000 N 
ENDBRANCH   4   7
BRANCH   1  17
ATOM     16  O   UNL     1       0.936   3.011  20.861  0.00  0.00    +0.000 OA
ATOM     17  N   UNL     1       0.891   2.754  19.650  0.00  0.00    +0.000 N 
ATOM     18  O   UNL     1      -0.029   2.137  19.095  0.00  0.00    +0.000 OA
ENDBRANCH   1  17
TORSDOF 2
ENDMDL
MODEL 5
REMARK VINA RESULT:      -7.4      3.737      6.509
REMARK  Name = 
REMARK  2 active torsions:
REMARK  status: ('A' for Active; 'I' for Inactive)
REMARK    1  A    between atoms: N_2  and  C_4
REMARK    2  A    between atoms: C_7  and  C_8
REMARK                            x       y       z     vdW  Elec       q    Type
REMARK                         _______ _______ _______ _____ _____    ______ ____
ROOT
ATOM      1  C   UNL     1       1.973   3.275  18.701  0.00  0.00    +0.000 A 
ATOM      2  C   UNL     1       2.920   2.344  18.254  0.00  0.00    +0.000 A 
ATOM      3  C   UNL     1       4.000   2.776  17.478  0.00  0.00    +0.000 A 
ATOM      4  C   UNL     1       4.137   4.132  17.145  0.00  0.00    +0.000 A 
ATOM      5  C   UNL     1       3.179   5.054  17.593  0.00  0.00    +0.000 A 
ATOM      6  C   UNL     1       2.098   4.630  18.371  0.00  0.00    +0.000 A 
ENDROOT
BRANCH   4   7
ATOM      7  C   UNL     1       5.267   4.580  16.321  0.00  0.00    +0.000 A 
ATOM      8  C   UNL     1       5.471   4.012  15.118  0.00  0.00    +0.000 A 
ATOM      9  C   UNL     1       6.641   4.525  14.351  0.00  0.00    +0.000 A 
ATOM     10  N   UNL     1       7.464   5.453  14.729  0.00  0.00    +0.000 NA
ATOM     11  C   UNL     1       7.216   6.004  15.956  0.00  0.00    +0.000 A 
ATOM     12  N   UNL     1       7.855   6.952  16.609  0.00  0.00    +0.000 NA
ATOM     13  N   UNL     1       7.193   7.127  17.796  0.00  0.00    +0.000 NA
ATOM     14  N   UNL     1       6.158   6.308  17.896  0.00  0.00    +0.000 NA
ATOM     15  N   UNL     1       6.141   5.585  16.751  0.00  0.00    +0.000 N 
ENDBRANCH   4   7
BRANCH   1  17
ATOM     16  O   UNL     1       0.010   2.072  19.000  0.00  0.00    +0.000 OA
ATOM     17  N   UNL     1       0.842   2.825  19.525  0.00  0.00    +0.000 N 
ATOM     18  O   UNL     1       0.784   3.232  20.694  0.00  0.00    +0.000 OA
ENDBRANCH   1  17
TORSDOF 2
ENDMDL
MODEL 6
REMARK VINA RESULT:      -7.4      3.466      6.198
REMARK  Name = 
REMARK  2 active torsions:
REMARK  status: ('A' for Active; 'I' for Inactive)
REMARK    1  A    between atoms: N_2  and  C_4
REMARK    2  A    between atoms: C_7  and  C_8
REMARK                            x       y       z     vdW  Elec       q    Type
REMARK                         _______ _______ _______ _____ _____    ______ ____
ROOT
ATOM      1  C   UNL     1       1.982   3.363  18.797  0.00  0.00    +0.000 A 
ATOM      2  C   UNL     1       3.205   2.679  18.801  0.00  0.00    +0.000 A 
ATOM      3  C   UNL     1       4.354   3.317  18.322  0.00  0.00    +0.000 A 
ATOM      4  C   UNL     1       4.287   4.632  17.838  0.00  0.00    +0.000 A 
ATOM      5  C   UNL     1       3.055   5.305  17.833  0.00  0.00    +0.000 A 
ATOM      6  C   UNL     1       1.903   4.674  18.311  0.00  0.00    +0.000 A 
ENDROOT
BRANCH   4   7
ATOM      7  C   UNL     1       5.493   5.294  17.326  0.00  0.00    +0.000 A 
ATOM      8  C   UNL     1       6.117   6.211  18.090  0.00  0.00    +0.000 A 
ATOM      9  C   UNL     1       7.330   6.834  17.491  0.00  0.00    +0.000 A 
ATOM     10  N   UNL     1       7.833   6.576  16.324  0.00  0.00    +0.000 NA
ATOM     11  C   UNL     1       7.170   5.636  15.585  0.00  0.00    +0.000 A 
ATOM     12  N   UNL     1       7.426   5.159  14.384  0.00  0.00    +0.000 NA
ATOM     13  N   UNL     1       6.451   4.236  14.111  0.00  0.00    +0.000 NA
ATOM     14  N   UNL     1       5.595   4.129  15.115  0.00  0.00    +0.000 NA
ATOM     15  N   UNL     1       6.018   4.997  16.063  0.00  0.00    +0.000 N 
ENDBRANCH   4   7
BRANCH   1  17
ATOM     16  O   UNL     1       0.130   1.991  18.523  0.00  0.00    +0.000 OA
ATOM     17  N   UNL     1       0.775   2.699  19.308  0.00  0.00    +0.000 N 
ATOM     18  O   UNL     1       0.469   2.894  20.493  0.00  0.00    +0.000 OA
ENDBRANCH   1  17
TORSDOF 2
ENDMDL
MODEL 7
REMARK VINA RESULT:      -7.4      3.988      6.628
REMARK  Name = 
REMARK  2 active torsions:
REMARK  status: ('A' for Active; 'I' for Inactive)
REMARK    1  A    between atoms: N_2  and  C_4
REMARK    2  A    between atoms: C_7  and  C_8
REMARK                            x       y       z     vdW  Elec       q    Type
REMARK                         _______ _______ _______ _____ _____    ______ ____
ROOT
ATOM      1  C   UNL     1       2.494   3.334  19.901  0.00  0.00    +0.000 A 
ATOM      2  C   UNL     1       3.818   2.884  19.996  0.00  0.00    +0.000 A 
ATOM      3  C   UNL     1       4.747   3.259  19.020  0.00  0.00    +0.000 A 
ATOM      4  C   UNL     1       4.360   4.078  17.949  0.00  0.00    +0.000 A 
ATOM      5  C   UNL     1       3.030   4.517  17.860  0.00  0.00    +0.000 A 
ATOM      6  C   UNL     1       2.096   4.148  18.833  0.00  0.00    +0.000 A 
ENDROOT
BRANCH   4   7
ATOM      7  C   UNL     1       5.335   4.460  16.920  0.00  0.00    +0.000 A 
ATOM      8  C   UNL     1       5.384   3.766  15.768  0.00  0.00    +0.000 A 
ATOM      9  C   UNL     1       6.405   4.219  14.783  0.00  0.00    +0.000 A 
ATOM     10  N   UNL     1       7.234   5.206  14.931  0.00  0.00    +0.000 NA
ATOM     11  C   UNL     1       7.147   5.884  16.114  0.00  0.00    +0.000 A 
ATOM     12  N   UNL     1       7.834   6.917  16.558  0.00  0.00    +0.000 NA
ATOM     13  N   UNL     1       7.347   7.206  17.806  0.00  0.00    +0.000 NA
ATOM     14  N   UNL     1       6.374   6.377  18.148  0.00  0.00    +0.000 NA
ATOM     15  N   UNL     1       6.219   5.530  17.103  0.00  0.00    +0.000 N 
ENDBRANCH   4   7
BRANCH   1  17
ATOM     16  O   UNL     1       0.331   2.856  20.592  0.00  0.00    +0.000 OA
ATOM     17  N   UNL     1       1.519   2.950  20.930  0.00  0.00    +0.000 N 
ATOM     18  O   UNL     1       1.941   2.751  22.078  0.00  0.00    +0.000 OA
ENDBRANCH   1  17
TORSDOF 2
ENDMDL
MODEL 8
REMARK VINA RESULT:      -7.3      1.730      2.447
REMARK  Name = 
REMARK  2 active torsions:
REMARK  status: ('A' for Active; 'I' for Inactive)
REMARK    1  A    between atoms: N_2  and  C_4
REMARK    2  A    between atoms: C_7  and  C_8
REMARK                            x       y       z     vdW  Elec       q    Type
REMARK                         _______ _______ _______ _____ _____    ______ ____
ROOT
ATOM      1  C   UNL     1       6.319   4.643  15.466  0.00  0.00    +0.000 A 
ATOM      2  C   UNL     1       6.883   4.851  16.732  0.00  0.00    +0.000 A 
ATOM      3  C   UNL     1       6.106   4.650  17.877  0.00  0.00    +0.000 A 
ATOM      4  C   UNL     1       4.768   4.245  17.764  0.00  0.00    +0.000 A 
ATOM      5  C   UNL     1       4.210   4.046  16.491  0.00  0.00    +0.000 A 
ATOM      6  C   UNL     1       4.982   4.243  15.342  0.00  0.00    +0.000 A 
ENDROOT
BRANCH   4   7
ATOM      7  C   UNL     1       3.951   4.047  18.968  0.00  0.00    +0.000 A 
ATOM      8  C   UNL     1       3.961   2.848  19.581  0.00  0.00    +0.000 A 
ATOM      9  C   UNL     1       3.102   2.734  20.792  0.00  0.00    +0.000 A 
ATOM     10  N   UNL     1       2.362   3.668  21.303  0.00  0.00    +0.000 NA
ATOM     11  C   UNL     1       2.385   4.870  20.651  0.00  0.00    +0.000 A 
ATOM     12  N   UNL     1       1.758   5.997  20.917  0.00  0.00    +0.000 NA
ATOM     13  N   UNL     1       2.132   6.893  19.950  0.00  0.00    +0.000 NA
ATOM     14  N   UNL     1       2.977   6.348  19.089  0.00  0.00    +0.000 NA
ATOM     15  N   UNL     1       3.161   5.072  19.501  0.00  0.00    +0.000 N 
ENDBRANCH   4   7
BRANCH   1  17
ATOM     16  O   UNL     1       8.069   5.656  14.327  0.00  0.00    +0.000 OA
ATOM     17  N   UNL     1       7.136   4.843  14.262  0.00  0.00    +0.000 N 
ATOM     18  O   UNL     1       6.838   4.194  13.250  0.00  0.00    +0.000 OA
ENDBRANCH   1  17
TORSDOF 2
ENDMDL
MODEL 9
REMARK VINA RESULT:      -7.3      1.713      2.313
REMARK  Name = 
REMARK  2 active torsions:
REMARK  status: ('A' for Active; 'I' for Inactive)
REMARK    1  A    between atoms: N_2  and  C_4
REMARK    2  A    between atoms: C_7  and  C_8
REMARK                            x       y       z     vdW  Elec       q    Type
REMARK                         _______ _______ _______ _____ _____    ______ ____
ROOT
ATOM      1  C   UNL     1       5.936   4.754  15.662  0.00  0.00    +0.000 A 
ATOM      2  C   UNL     1       5.360   3.497  15.890  0.00  0.00    +0.000 A 
ATOM      3  C   UNL     1       4.468   3.329  16.954  0.00  0.00    +0.000 A 
ATOM      4  C   UNL     1       4.150   4.408  17.791  0.00  0.00    +0.000 A 
ATOM      5  C   UNL     1       4.737   5.661  17.558  0.00  0.00    +0.000 A 
ATOM      6  C   UNL     1       5.629   5.837  16.495  0.00  0.00    +0.000 A 
ENDROOT
BRANCH   4   7
ATOM      7  C   UNL     1       3.220   4.225  18.913  0.00  0.00    +0.000 A 
ATOM      8  C   UNL     1       2.076   4.933  18.944  0.00  0.00    +0.000 A 
ATOM      9  C   UNL     1       1.195   4.687  20.120  0.00  0.00    +0.000 A 
ATOM     10  N   UNL     1       1.425   3.865  21.097  0.00  0.00    +0.000 NA
ATOM     11  C   UNL     1       2.596   3.164  21.022  0.00  0.00    +0.000 A 
ATOM     12  N   UNL     1       3.106   2.266  21.840  0.00  0.00    +0.000 NA
ATOM     13  N   UNL     1       4.302   1.875  21.297  0.00  0.00    +0.000 NA
ATOM     14  N   UNL     1       4.547   2.509  20.161  0.00  0.00    +0.000 NA
ATOM     15  N   UNL     1       3.490   3.330  19.956  0.00  0.00    +0.000 N 
ENDBRANCH   4   7
BRANCH   1  17
ATOM     16  O   UNL     1       7.849   5.669  14.718  0.00  0.00    +0.000 OA
ATOM     17  N   UNL     1       6.866   4.935  14.540  0.00  0.00    +0.000 N 
ATOM     18  O   UNL     1       6.608   4.351  13.478  0.00  0.00    +0.000 OA
ENDBRANCH   1  17
TORSDOF 2
ENDMDL
