MODEL 1
REMARK VINA RESULT:      -8.6      0.000      0.000
REMARK  Name = 
REMARK  8 active torsions:
REMARK  status: ('A' for Active; 'I' for Inactive)
REMARK    1  A    between atoms: C_2  and  C_3
REMARK    2  A    between atoms: C_3  and  N_4
REMARK    3  A    between atoms: N_4  and  C_18
REMARK    4  A    between atoms: C_5  and  C_7
REMARK    5  A    between atoms: C_7  and  N_8
REMARK    6  A    between atoms: C_11  and  C_12
REMARK    7  A    between atoms: N_28  and  C_29
REMARK    8  A    between atoms: C_29  and  C_30
REMARK                            x       y       z     vdW  Elec       q    Type
REMARK                         _______ _______ _______ _____ _____    ______ ____
ROOT
ATOM      1  N   UNL     1       0.666  11.064  18.838  0.00  0.00    +0.000 N 
ATOM      2  C   UNL     1      -0.676  11.373  18.569  0.00  0.00    +0.000 C 
ATOM      3  O   UNL     1      -1.099  12.526  18.445  0.00  0.00    +0.000 OA
ENDROOT
BRANCH   1   4
ATOM      4  C   UNL     1       1.559  12.144  19.152  0.00  0.00    +0.000 A 
ATOM      5  C   UNL     1       2.364  12.695  18.145  0.00  0.00    +0.000 A 
ATOM      6  C   UNL     1       3.218  13.763  18.426  0.00  0.00    +0.000 A 
ATOM      7  C   UNL     1       3.318  14.259  19.724  0.00  0.00    +0.000 A 
ATOM      8  C   UNL     1       2.529  13.712  20.741  0.00  0.00    +0.000 A 
ATOM      9  C   UNL     1       1.649  12.665  20.455  0.00  0.00    +0.000 A 
ATOM     10  O   UNL     1       2.586  14.142  22.043  0.00  0.00    +0.000 OA
ATOM     11  C   UNL     1       3.283  15.388  22.169  0.00  0.00    +0.000 C 
ATOM     12  C   UNL     1       4.539  15.406  21.313  0.00  0.00    +0.000 C 
ATOM     13  O   UNL     1       4.214  15.273  19.929  0.00  0.00    +0.000 OA
ENDBRANCH   1   4
BRANCH   1  14
ATOM     14  C   UNL     1       1.157   9.714  19.233  0.00  0.00    +0.000 C 
BRANCH  14  16
ATOM     15  O   UNL     1       2.307   9.308  17.148  0.00  0.00    +0.000 OA
ATOM     16  C   UNL     1       1.963   8.847  18.241  0.00  0.00    +0.000 C 
ATOM     17  N   UNL     1       2.392   7.588  18.539  0.00  0.00    +0.000 N 
ATOM     18  H   UNL     1       2.990   7.197  17.819  0.00  0.00    +0.000 HD
BRANCH  17  19
ATOM     19  C   UNL     1       2.301   6.855  19.772  0.00  0.00    +0.000 C 
BRANCH  19  20
ATOM     20  C   UNL     1       1.908   5.421  19.591  0.00  0.00    +0.000 A 
ATOM     21  C   UNL     1       1.473   4.666  20.691  0.00  0.00    +0.000 A 
ATOM     22  C   UNL     1       1.098   3.334  20.532  0.00  0.00    +0.000 A 
ATOM     23  C   UNL     1       1.154   2.746  19.271  0.00  0.00    +0.000 A 
ATOM     24  C   UNL     1       1.579   3.489  18.169  0.00  0.00    +0.000 A 
ATOM     25  C   UNL     1       1.954   4.821  18.325  0.00  0.00    +0.000 A 
ENDBRANCH  19  20
ENDBRANCH  17  19
ENDBRANCH  14  16
ENDBRANCH   1  14
BRANCH   2  26
ATOM     26  C   UNL     1      -1.619  10.252  18.265  0.00  0.00    +0.000 C 
BRANCH  26  27
ATOM     27  N   UNL     1      -2.864  10.640  17.667  0.00  0.00    +0.000 N 
ATOM     28  N   UNL     1      -3.042  10.715  16.339  0.00  0.00    +0.000 NA
ATOM     29  N   UNL     1      -4.210  11.328  16.196  0.00  0.00    +0.000 NA
ATOM     30  C   UNL     1      -4.611  11.705  17.453  0.00  0.00    +0.000 A 
ATOM     31  N   UNL     1      -3.716  11.387  18.399  0.00  0.00    +0.000 NA
BRANCH  30  32
ATOM     32  C   UNL     1      -5.932  12.304  17.780  0.00  0.00    +0.000 A 
ATOM     33  C   UNL     1      -6.601  13.195  16.965  0.00  0.00    +0.000 A 
ATOM     34  C   UNL     1      -7.748  13.742  17.609  0.00  0.00    +0.000 A 
ATOM     35  C   UNL     1      -7.915  13.232  18.878  0.00  0.00    +0.000 A 
ATOM     36  S   UNL     1      -6.750  12.036  19.250  0.00  0.00    +0.000 S 
ENDBRANCH  30  32
ENDBRANCH  26  27
ENDBRANCH   2  26
TORSDOF 8
ENDMDL
MODEL 2
REMARK VINA RESULT:      -8.4      0.695      1.370
REMARK  Name = 
REMARK  8 active torsions:
REMARK  status: ('A' for Active; 'I' for Inactive)
REMARK    1  A    between atoms: C_2  and  C_3
REMARK    2  A    between atoms: C_3  and  N_4
REMARK    3  A    between atoms: N_4  and  C_18
REMARK    4  A    between atoms: C_5  and  C_7
REMARK    5  A    between atoms: C_7  and  N_8
REMARK    6  A    between atoms: C_11  and  C_12
REMARK    7  A    between atoms: N_28  and  C_29
REMARK    8  A    between atoms: C_29  and  C_30
REMARK                            x       y       z     vdW  Elec       q    Type
REMARK                         _______ _______ _______ _____ _____    ______ ____
ROOT
ATOM      1  N   UNL     1       0.660  10.956  18.750  0.00  0.00    +0.000 N 
ATOM      2  C   UNL     1      -0.647  11.237  18.323  0.00  0.00    +0.000 C 
ATOM      3  O   UNL     1      -1.082  12.382  18.168  0.00  0.00    +0.000 OA
ENDROOT
BRANCH   1   4
ATOM      4  C   UNL     1       1.478  12.050  19.190  0.00  0.00    +0.000 A 
ATOM      5  C   UNL     1       1.402  12.484  20.522  0.00  0.00    +0.000 A 
ATOM      6  C   UNL     1       2.210  13.529  20.974  0.00  0.00    +0.000 A 
ATOM      7  C   UNL     1       3.066  14.186  20.092  0.00  0.00    +0.000 A 
ATOM      8  C   UNL     1       3.145  13.771  18.759  0.00  0.00    +0.000 A 
ATOM      9  C   UNL     1       2.361  12.704  18.313  0.00  0.00    +0.000 A 
ATOM     10  O   UNL     1       3.955  14.380  17.835  0.00  0.00    +0.000 OA
ATOM     11  C   UNL     1       4.915  15.249  18.449  0.00  0.00    +0.000 C 
ATOM     12  C   UNL     1       4.283  16.074  19.558  0.00  0.00    +0.000 C 
ATOM     13  O   UNL     1       3.788  15.232  20.600  0.00  0.00    +0.000 OA
ENDBRANCH   1   4
BRANCH   1  14
ATOM     14  C   UNL     1       1.135   9.610  19.179  0.00  0.00    +0.000 C 
BRANCH  14  16
ATOM     15  O   UNL     1       2.395   9.197  17.160  0.00  0.00    +0.000 OA
ATOM     16  C   UNL     1       2.000   8.743  18.238  0.00  0.00    +0.000 C 
ATOM     17  N   UNL     1       2.425   7.491  18.570  0.00  0.00    +0.000 N 
ATOM     18  H   UNL     1       3.064   7.100  17.886  0.00  0.00    +0.000 HD
BRANCH  17  19
ATOM     19  C   UNL     1       2.277   6.769  19.804  0.00  0.00    +0.000 C 
BRANCH  19  20
ATOM     20  C   UNL     1       1.907   5.329  19.616  0.00  0.00    +0.000 A 
ATOM     21  C   UNL     1       1.496   4.559  20.715  0.00  0.00    +0.000 A 
ATOM     22  C   UNL     1       1.143   3.222  20.550  0.00  0.00    +0.000 A 
ATOM     23  C   UNL     1       1.197   2.643  19.285  0.00  0.00    +0.000 A 
ATOM     24  C   UNL     1       1.598   3.402  18.183  0.00  0.00    +0.000 A 
ATOM     25  C   UNL     1       1.952   4.739  18.346  0.00  0.00    +0.000 A 
ENDBRANCH  19  20
ENDBRANCH  17  19
ENDBRANCH  14  16
ENDBRANCH   1  14
BRANCH   2  26
ATOM     26  C   UNL     1      -1.515  10.099  17.887  0.00  0.00    +0.000 C 
BRANCH  26  27
ATOM     27  N   UNL     1      -2.797  10.471  17.360  0.00  0.00    +0.000 N 
ATOM     28  N   UNL     1      -3.064  10.500  16.046  0.00  0.00    +0.000 NA
ATOM     29  N   UNL     1      -4.239  11.112  15.960  0.00  0.00    +0.000 NA
ATOM     30  C   UNL     1      -4.554  11.533  17.227  0.00  0.00    +0.000 A 
ATOM     31  N   UNL     1      -3.598  11.245  18.122  0.00  0.00    +0.000 NA
BRANCH  30  32
ATOM     32  C   UNL     1      -5.849  12.148  17.622  0.00  0.00    +0.000 A 
ATOM     33  C   UNL     1      -6.418  13.231  16.983  0.00  0.00    +0.000 A 
ATOM     34  C   UNL     1      -7.560  13.718  17.683  0.00  0.00    +0.000 A 
ATOM     35  C   UNL     1      -7.824  12.974  18.813  0.00  0.00    +0.000 A 
ATOM     36  S   UNL     1      -6.757  11.647  18.974  0.00  0.00    +0.000 S 
ENDBRANCH  30  32
ENDBRANCH  26  27
ENDBRANCH   2  26
TORSDOF 8
ENDMDL
MODEL 3
REMARK VINA RESULT:      -8.3      8.312     11.271
REMARK  Name = 
REMARK  8 active torsions:
REMARK  status: ('A' for Active; 'I' for Inactive)
REMARK    1  A    between atoms: C_2  and  C_3
REMARK    2  A    between atoms: C_3  and  N_4
REMARK    3  A    between atoms: N_4  and  C_18
REMARK    4  A    between atoms: C_5  and  C_7
REMARK    5  A    between atoms: C_7  and  N_8
REMARK    6  A    between atoms: C_11  and  C_12
REMARK    7  A    between atoms: N_28  and  C_29
REMARK    8  A    between atoms: C_29  and  C_30
REMARK                            x       y       z     vdW  Elec       q    Type
REMARK                         _______ _______ _______ _____ _____    ______ ____
ROOT
ATOM      1  N   UNL     1       5.057   5.275  17.011  0.00  0.00    +0.000 N 
ATOM      2  C   UNL     1       5.134   6.654  17.260  0.00  0.00    +0.000 C 
ATOM      3  O   UNL     1       4.486   7.226  18.142  0.00  0.00    +0.000 OA
ENDROOT
BRANCH   1   4
ATOM      4  C   UNL     1       4.052   4.518  17.704  0.00  0.00    +0.000 A 
ATOM      5  C   UNL     1       3.147   3.734  16.974  0.00  0.00    +0.000 A 
ATOM      6  C   UNL     1       2.181   2.970  17.632  0.00  0.00    +0.000 A 
ATOM      7  C   UNL     1       2.074   3.020  19.021  0.00  0.00    +0.000 A 
ATOM      8  C   UNL     1       2.962   3.806  19.760  0.00  0.00    +0.000 A 
ATOM      9  C   UNL     1       3.952   4.545  19.106  0.00  0.00    +0.000 A 
ATOM     10  O   UNL     1       2.906   3.911  21.127  0.00  0.00    +0.000 OA
ATOM     11  C   UNL     1       2.068   2.905  21.711  0.00  0.00    +0.000 C 
ATOM     12  C   UNL     1       0.786   2.725  20.914  0.00  0.00    +0.000 C 
ATOM     13  O   UNL     1       1.070   2.282  19.586  0.00  0.00    +0.000 OA
ENDBRANCH   1   4
BRANCH   1  14
ATOM     14  C   UNL     1       5.629   4.601  15.813  0.00  0.00    +0.000 C 
BRANCH  14  16
ATOM     15  O   UNL     1       7.940   4.309  16.453  0.00  0.00    +0.000 OA
ATOM     16  C   UNL     1       7.151   4.613  15.552  0.00  0.00    +0.000 C 
ATOM     17  N   UNL     1       7.690   4.878  14.329  0.00  0.00    +0.000 N 
ATOM     18  H   UNL     1       8.695   4.748  14.306  0.00  0.00    +0.000 HD
BRANCH  17  19
ATOM     19  C   UNL     1       7.037   5.093  13.066  0.00  0.00    +0.000 C 
BRANCH  19  20
ATOM     20  C   UNL     1       6.667   3.825  12.358  0.00  0.00    +0.000 A 
ATOM     21  C   UNL     1       5.318   3.456  12.237  0.00  0.00    +0.000 A 
ATOM     22  C   UNL     1       4.963   2.283  11.575  0.00  0.00    +0.000 A 
ATOM     23  C   UNL     1       5.952   1.470  11.028  0.00  0.00    +0.000 A 
ATOM     24  C   UNL     1       7.296   1.831  11.138  0.00  0.00    +0.000 A 
ATOM     25  C   UNL     1       7.654   3.003  11.799  0.00  0.00    +0.000 A 
ENDBRANCH  19  20
ENDBRANCH  17  19
ENDBRANCH  14  16
ENDBRANCH   1  14
BRANCH   2  26
ATOM     26  C   UNL     1       6.161   7.455  16.523  0.00  0.00    +0.000 C 
BRANCH  26  27
ATOM     27  N   UNL     1       7.285   7.883  17.307  0.00  0.00    +0.000 N 
ATOM     28  N   UNL     1       7.863   7.107  18.236  0.00  0.00    +0.000 NA
ATOM     29  N   UNL     1       8.678   7.926  18.890  0.00  0.00    +0.000 NA
ATOM     30  C   UNL     1       8.447   9.185  18.396  0.00  0.00    +0.000 A 
ATOM     31  N   UNL     1       7.477   9.209  17.470  0.00  0.00    +0.000 NA
BRANCH  30  32
ATOM     32  C   UNL     1       9.237  10.395  18.748  0.00  0.00    +0.000 A 
ATOM     33  C   UNL     1       9.929  11.161  17.831  0.00  0.00    +0.000 A 
ATOM     34  C   UNL     1      10.739  12.144  18.469  0.00  0.00    +0.000 A 
ATOM     35  C   UNL     1      10.616  12.099  19.841  0.00  0.00    +0.000 A 
ATOM     36  S   UNL     1       9.463  10.941  20.346  0.00  0.00    +0.000 S 
ENDBRANCH  30  32
ENDBRANCH  26  27
ENDBRANCH   2  26
TORSDOF 8
ENDMDL
MODEL 4
REMARK VINA RESULT:      -8.3      3.238      7.120
REMARK  Name = 
REMARK  8 active torsions:
REMARK  status: ('A' for Active; 'I' for Inactive)
REMARK    1  A    between atoms: C_2  and  C_3
REMARK    2  A    between atoms: C_3  and  N_4
REMARK    3  A    between atoms: N_4  and  C_18
REMARK    4  A    between atoms: C_5  and  C_7
REMARK    5  A    between atoms: C_7  and  N_8
REMARK    6  A    between atoms: C_11  and  C_12
REMARK    7  A    between atoms: N_28  and  C_29
REMARK    8  A    between atoms: C_29  and  C_30
REMARK                            x       y       z     vdW  Elec       q    Type
REMARK                         _______ _______ _______ _____ _____    ______ ____
ROOT
ATOM      1  N   UNL     1       1.446   8.758  19.534  0.00  0.00    +0.000 N 
ATOM      2  C   UNL     1       1.351   9.656  18.460  0.00  0.00    +0.000 C 
ATOM      3  O   UNL     1       1.745   9.397  17.318  0.00  0.00    +0.000 OA
ENDROOT
BRANCH   1   4
ATOM      4  C   UNL     1       2.188   7.544  19.338  0.00  0.00    +0.000 A 
ATOM      5  C   UNL     1       2.072   6.501  20.269  0.00  0.00    +0.000 A 
ATOM      6  C   UNL     1       2.765   5.304  20.080  0.00  0.00    +0.000 A 
ATOM      7  C   UNL     1       3.619   5.151  18.990  0.00  0.00    +0.000 A 
ATOM      8  C   UNL     1       3.752   6.187  18.060  0.00  0.00    +0.000 A 
ATOM      9  C   UNL     1       3.034   7.374  18.229  0.00  0.00    +0.000 A 
ATOM     10  O   UNL     1       4.584   6.110  16.972  0.00  0.00    +0.000 OA
ATOM     11  C   UNL     1       5.036   4.771  16.733  0.00  0.00    +0.000 C 
ATOM     12  C   UNL     1       5.425   4.080  18.029  0.00  0.00    +0.000 C 
ATOM     13  O   UNL     1       4.300   3.968  18.903  0.00  0.00    +0.000 OA
ENDBRANCH   1   4
BRANCH   1  14
ATOM     14  C   UNL     1       1.211   9.121  20.960  0.00  0.00    +0.000 C 
BRANCH  14  16
ATOM     15  O   UNL     1      -0.769   7.939  21.680  0.00  0.00    +0.000 OA
ATOM     16  C   UNL     1      -0.204   9.033  21.573  0.00  0.00    +0.000 C 
ATOM     17  N   UNL     1      -0.857  10.114  22.085  0.00  0.00    +0.000 N 
ATOM     18  H   UNL     1      -1.731   9.866  22.537  0.00  0.00    +0.000 HD
BRANCH  17  19
ATOM     19  C   UNL     1      -0.398  11.464  22.261  0.00  0.00    +0.000 C 
BRANCH  19  20
ATOM     20  C   UNL     1      -1.392  12.352  22.945  0.00  0.00    +0.000 A 
ATOM     21  C   UNL     1      -1.098  13.709  23.151  0.00  0.00    +0.000 A 
ATOM     22  C   UNL     1      -2.019  14.545  23.780  0.00  0.00    +0.000 A 
ATOM     23  C   UNL     1      -3.240  14.031  24.206  0.00  0.00    +0.000 A 
ATOM     24  C   UNL     1      -3.546  12.685  24.000  0.00  0.00    +0.000 A 
ATOM     25  C   UNL     1      -2.627  11.847  23.372  0.00  0.00    +0.000 A 
ENDBRANCH  19  20
ENDBRANCH  17  19
ENDBRANCH  14  16
ENDBRANCH   1  14
BRANCH   2  26
ATOM     26  C   UNL     1       0.602  10.934  18.663  0.00  0.00    +0.000 C 
BRANCH  26  27
ATOM     27  N   UNL     1      -0.825  10.836  18.548  0.00  0.00    +0.000 N 
ATOM     28  N   UNL     1      -1.431  10.129  17.582  0.00  0.00    +0.000 NA
ATOM     29  N   UNL     1      -2.708  10.479  17.668  0.00  0.00    +0.000 NA
ATOM     30  C   UNL     1      -2.778  11.480  18.604  0.00  0.00    +0.000 A 
ATOM     31  N   UNL     1      -1.576  11.814  19.096  0.00  0.00    +0.000 NA
BRANCH  30  32
ATOM     32  C   UNL     1      -4.039  12.078  19.118  0.00  0.00    +0.000 A 
ATOM     33  C   UNL     1      -4.131  12.804  20.288  0.00  0.00    +0.000 A 
ATOM     34  C   UNL     1      -5.484  13.096  20.624  0.00  0.00    +0.000 A 
ATOM     35  C   UNL     1      -6.364  12.598  19.688  0.00  0.00    +0.000 A 
ATOM     36  S   UNL     1      -5.555  11.866  18.370  0.00  0.00    +0.000 S 
ENDBRANCH  30  32
ENDBRANCH  26  27
ENDBRANCH   2  26
TORSDOF 8
ENDMDL
MODEL 5
REMARK VINA RESULT:      -8.1      3.747      8.424
REMARK  Name = 
REMARK  8 active torsions:
REMARK  status: ('A' for Active; 'I' for Inactive)
REMARK    1  A    between atoms: C_2  and  C_3
REMARK    2  A    between atoms: C_3  and  N_4
REMARK    3  A    between atoms: N_4  and  C_18
REMARK    4  A    between atoms: C_5  and  C_7
REMARK    5  A    between atoms: C_7  and  N_8
REMARK    6  A    between atoms: C_11  and  C_12
REMARK    7  A    between atoms: N_28  and  C_29
REMARK    8  A    between atoms: C_29  and  C_30
REMARK                            x       y       z     vdW  Elec       q    Type
REMARK                         _______ _______ _______ _____ _____    ______ ____
ROOT
ATOM      1  N   UNL     1      -0.641  11.126  20.059  0.00  0.00    +0.000 N 
ATOM      2  C   UNL     1       0.760  11.202  20.010  0.00  0.00    +0.000 C 
ATOM      3  O   UNL     1       1.447  11.698  20.908  0.00  0.00    +0.000 OA
ENDROOT
BRANCH   1   4
ATOM      4  C   UNL     1      -1.319  11.808  21.126  0.00  0.00    +0.000 A 
ATOM      5  C   UNL     1      -1.494  11.165  22.360  0.00  0.00    +0.000 A 
ATOM      6  C   UNL     1      -2.127  11.823  23.417  0.00  0.00    +0.000 A 
ATOM      7  C   UNL     1      -2.636  13.108  23.240  0.00  0.00    +0.000 A 
ATOM      8  C   UNL     1      -2.478  13.756  22.012  0.00  0.00    +0.000 A 
ATOM      9  C   UNL     1      -1.815  13.113  20.963  0.00  0.00    +0.000 A 
ATOM     10  O   UNL     1      -2.965  15.015  21.764  0.00  0.00    +0.000 OA
ATOM     11  C   UNL     1      -3.355  15.688  22.968  0.00  0.00    +0.000 C 
ATOM     12  C   UNL     1      -4.112  14.756  23.900  0.00  0.00    +0.000 C 
ATOM     13  O   UNL     1      -3.286  13.664  24.308  0.00  0.00    +0.000 OA
ENDBRANCH   1   4
BRANCH   1  14
ATOM     14  C   UNL     1      -1.507  10.764  18.902  0.00  0.00    +0.000 C 
BRANCH  14  16
ATOM     15  O   UNL     1      -1.155  12.683  17.479  0.00  0.00    +0.000 OA
ATOM     16  C   UNL     1      -1.957  11.837  17.887  0.00  0.00    +0.000 C 
ATOM     17  N   UNL     1      -3.206  11.863  17.344  0.00  0.00    +0.000 N 
ATOM     18  H   UNL     1      -3.306  12.570  16.623  0.00  0.00    +0.000 HD
BRANCH  17  19
ATOM     19  C   UNL     1      -4.288  10.927  17.486  0.00  0.00    +0.000 C 
BRANCH  19  20
ATOM     20  C   UNL     1      -5.220  11.253  18.613  0.00  0.00    +0.000 A 
ATOM     21  C   UNL     1      -6.384  10.494  18.804  0.00  0.00    +0.000 A 
ATOM     22  C   UNL     1      -7.254  10.784  19.854  0.00  0.00    +0.000 A 
ATOM     23  C   UNL     1      -6.965  11.834  20.720  0.00  0.00    +0.000 A 
ATOM     24  C   UNL     1      -5.806  12.592  20.543  0.00  0.00    +0.000 A 
ATOM     25  C   UNL     1      -4.936  12.304  19.495  0.00  0.00    +0.000 A 
ENDBRANCH  19  20
ENDBRANCH  17  19
ENDBRANCH  14  16
ENDBRANCH   1  14
BRANCH   2  26
ATOM     26  C   UNL     1       1.472  10.516  18.888  0.00  0.00    +0.000 C 
BRANCH  26  27
ATOM     27  N   UNL     1       1.649   9.101  19.046  0.00  0.00    +0.000 N 
ATOM     28  N   UNL     1       1.527   8.479  20.228  0.00  0.00    +0.000 NA
ATOM     29  N   UNL     1       1.995   7.256  20.008  0.00  0.00    +0.000 NA
ATOM     30  C   UNL     1       2.494   7.252  18.730  0.00  0.00    +0.000 A 
ATOM     31  N   UNL     1       2.398   8.448  18.132  0.00  0.00    +0.000 NA
BRANCH  30  32
ATOM     32  C   UNL     1       2.996   6.047  18.017  0.00  0.00    +0.000 A 
ATOM     33  C   UNL     1       2.367   4.819  18.036  0.00  0.00    +0.000 A 
ATOM     34  C   UNL     1       3.162   3.808  17.422  0.00  0.00    +0.000 A 
ATOM     35  C   UNL     1       4.352   4.313  16.944  0.00  0.00    +0.000 A 
ATOM     36  S   UNL     1       4.464   6.007  17.155  0.00  0.00    +0.000 S 
ENDBRANCH  30  32
ENDBRANCH  26  27
ENDBRANCH   2  26
TORSDOF 8
ENDMDL
MODEL 6
REMARK VINA RESULT:      -8.0      4.116      7.198
REMARK  Name = 
REMARK  8 active torsions:
REMARK  status: ('A' for Active; 'I' for Inactive)
REMARK    1  A    between atoms: C_2  and  C_3
REMARK    2  A    between atoms: C_3  and  N_4
REMARK    3  A    between atoms: N_4  and  C_18
REMARK    4  A    between atoms: C_5  and  C_7
REMARK    5  A    between atoms: C_7  and  N_8
REMARK    6  A    between atoms: C_11  and  C_12
REMARK    7  A    between atoms: N_28  and  C_29
REMARK    8  A    between atoms: C_29  and  C_30
REMARK                            x       y       z     vdW  Elec       q    Type
REMARK                         _______ _______ _______ _____ _____    ______ ____
ROOT
ATOM      1  N   UNL     1       4.074   6.459  17.924  0.00  0.00    +0.000 N 
ATOM      2  C   UNL     1       3.257   7.585  17.734  0.00  0.00    +0.000 C 
ATOM      3  O   UNL     1       3.217   8.229  16.682  0.00  0.00    +0.000 OA
ENDROOT
BRANCH   1   4
ATOM      4  C   UNL     1       5.035   6.141  16.905  0.00  0.00    +0.000 A 
ATOM      5  C   UNL     1       6.314   6.713  16.954  0.00  0.00    +0.000 A 
ATOM      6  C   UNL     1       7.270   6.394  15.988  0.00  0.00    +0.000 A 
ATOM      7  C   UNL     1       6.945   5.542  14.934  0.00  0.00    +0.000 A 
ATOM      8  C   UNL     1       5.669   4.973  14.866  0.00  0.00    +0.000 A 
ATOM      9  C   UNL     1       4.722   5.265  15.851  0.00  0.00    +0.000 A 
ATOM     10  O   UNL     1       5.278   4.137  13.851  0.00  0.00    +0.000 OA
ATOM     11  C   UNL     1       6.389   3.676  13.074  0.00  0.00    +0.000 C 
ATOM     12  C   UNL     1       7.368   4.803  12.788  0.00  0.00    +0.000 C 
ATOM     13  O   UNL     1       7.920   5.318  14.000  0.00  0.00    +0.000 OA
ENDBRANCH   1   4
BRANCH   1  14
ATOM     14  C   UNL     1       4.327   5.814  19.242  0.00  0.00    +0.000 C 
BRANCH  14  16
ATOM     15  O   UNL     1       6.554   5.220  19.964  0.00  0.00    +0.000 OA
ATOM     16  C   UNL     1       5.508   4.837  19.429  0.00  0.00    +0.000 C 
ATOM     17  N   UNL     1       5.438   3.519  19.093  0.00  0.00    +0.000 N 
ATOM     18  H   UNL     1       6.263   2.998  19.371  0.00  0.00    +0.000 HD
BRANCH  17  19
ATOM     19  C   UNL     1       4.319   2.751  18.619  0.00  0.00    +0.000 C 
BRANCH  19  20
ATOM     20  C   UNL     1       3.128   2.803  19.528  0.00  0.00    +0.000 A 
ATOM     21  C   UNL     1       1.853   3.060  19.001  0.00  0.00    +0.000 A 
ATOM     22  C   UNL     1       0.738   3.104  19.836  0.00  0.00    +0.000 A 
ATOM     23  C   UNL     1       0.889   2.888  21.203  0.00  0.00    +0.000 A 
ATOM     24  C   UNL     1       2.152   2.624  21.736  0.00  0.00    +0.000 A 
ATOM     25  C   UNL     1       3.268   2.581  20.904  0.00  0.00    +0.000 A 
ENDBRANCH  19  20
ENDBRANCH  17  19
ENDBRANCH  14  16
ENDBRANCH   1  14
BRANCH   2  26
ATOM     26  C   UNL     1       2.271   7.938  18.802  0.00  0.00    +0.000 C 
BRANCH  26  27
ATOM     27  N   UNL     1       1.477   9.105  18.545  0.00  0.00    +0.000 N 
ATOM     28  N   UNL     1       1.844  10.335  18.933  0.00  0.00    +0.000 NA
ATOM     29  N   UNL     1       0.764  11.081  18.736  0.00  0.00    +0.000 NA
ATOM     30  C   UNL     1      -0.239  10.224  18.358  0.00  0.00    +0.000 A 
ATOM     31  N   UNL     1       0.153   8.942  18.343  0.00  0.00    +0.000 NA
BRANCH  30  32
ATOM     32  C   UNL     1      -1.591  10.645  17.903  0.00  0.00    +0.000 A 
ATOM     33  C   UNL     1      -2.399  11.529  18.591  0.00  0.00    +0.000 A 
ATOM     34  C   UNL     1      -3.702  11.606  18.022  0.00  0.00    +0.000 A 
ATOM     35  C   UNL     1      -3.827  10.795  16.915  0.00  0.00    +0.000 A 
ATOM     36  S   UNL     1      -2.356  10.019  16.516  0.00  0.00    +0.000 S 
ENDBRANCH  30  32
ENDBRANCH  26  27
ENDBRANCH   2  26
TORSDOF 8
ENDMDL
MODEL 7
REMARK VINA RESULT:      -8.0      4.153      7.412
REMARK  Name = 
REMARK  8 active torsions:
REMARK  status: ('A' for Active; 'I' for Inactive)
REMARK    1  A    between atoms: C_2  and  C_3
REMARK    2  A    between atoms: C_3  and  N_4
REMARK    3  A    between atoms: N_4  and  C_18
REMARK    4  A    between atoms: C_5  and  C_7
REMARK    5  A    between atoms: C_7  and  N_8
REMARK    6  A    between atoms: C_11  and  C_12
REMARK    7  A    between atoms: N_28  and  C_29
REMARK    8  A    between atoms: C_29  and  C_30
REMARK                            x       y       z     vdW  Elec       q    Type
REMARK                         _______ _______ _______ _____ _____    ______ ____
ROOT
ATOM      1  N   UNL     1       4.115   6.360  18.015  0.00  0.00    +0.000 N 
ATOM      2  C   UNL     1       3.223   7.428  17.830  0.00  0.00    +0.000 C 
ATOM      3  O   UNL     1       3.110   8.046  16.767  0.00  0.00    +0.000 OA
ENDROOT
BRANCH   1   4
ATOM      4  C   UNL     1       5.061   6.081  16.972  0.00  0.00    +0.000 A 
ATOM      5  C   UNL     1       6.324   6.690  16.998  0.00  0.00    +0.000 A 
ATOM      6  C   UNL     1       7.267   6.408  16.007  0.00  0.00    +0.000 A 
ATOM      7  C   UNL     1       6.943   5.558  14.952  0.00  0.00    +0.000 A 
ATOM      8  C   UNL     1       5.684   4.952  14.907  0.00  0.00    +0.000 A 
ATOM      9  C   UNL     1       4.751   5.206  15.916  0.00  0.00    +0.000 A 
ATOM     10  O   UNL     1       5.294   4.115  13.892  0.00  0.00    +0.000 OA
ATOM     11  C   UNL     1       6.401   3.695  13.085  0.00  0.00    +0.000 C 
ATOM     12  C   UNL     1       7.340   4.853  12.789  0.00  0.00    +0.000 C 
ATOM     13  O   UNL     1       7.903   5.372  13.995  0.00  0.00    +0.000 OA
ENDBRANCH   1   4
BRANCH   1  14
ATOM     14  C   UNL     1       4.449   5.760  19.337  0.00  0.00    +0.000 C 
BRANCH  14  16
ATOM     15  O   UNL     1       6.665   5.075  20.009  0.00  0.00    +0.000 OA
ATOM     16  C   UNL     1       5.604   4.743  19.472  0.00  0.00    +0.000 C 
ATOM     17  N   UNL     1       5.491   3.441  19.087  0.00  0.00    +0.000 N 
ATOM     18  H   UNL     1       6.303   2.887  19.336  0.00  0.00    +0.000 HD
BRANCH  17  19
ATOM     19  C   UNL     1       4.344   2.725  18.598  0.00  0.00    +0.000 C 
BRANCH  19  20
ATOM     20  C   UNL     1       3.158   2.797  19.511  0.00  0.00    +0.000 A 
ATOM     21  C   UNL     1       1.887   3.086  18.990  0.00  0.00    +0.000 A 
ATOM     22  C   UNL     1       0.776   3.148  19.828  0.00  0.00    +0.000 A 
ATOM     23  C   UNL     1       0.926   2.920  21.193  0.00  0.00    +0.000 A 
ATOM     24  C   UNL     1       2.184   2.624  21.721  0.00  0.00    +0.000 A 
ATOM     25  C   UNL     1       3.297   2.562  20.885  0.00  0.00    +0.000 A 
ENDBRANCH  19  20
ENDBRANCH  17  19
ENDBRANCH  14  16
ENDBRANCH   1  14
BRANCH   2  26
ATOM     26  C   UNL     1       2.251   7.742  18.922  0.00  0.00    +0.000 C 
BRANCH  26  27
ATOM     27  N   UNL     1       1.634   9.035  18.844  0.00  0.00    +0.000 N 
ATOM     28  N   UNL     1       2.187  10.068  18.189  0.00  0.00    +0.000 NA
ATOM     29  N   UNL     1       1.456  11.116  18.548  0.00  0.00    +0.000 NA
ATOM     30  C   UNL     1       0.578  10.673  19.505  0.00  0.00    +0.000 A 
ATOM     31  N   UNL     1       0.748   9.377  19.803  0.00  0.00    +0.000 NA
BRANCH  30  32
ATOM     32  C   UNL     1      -0.522  11.484  20.091  0.00  0.00    +0.000 A 
ATOM     33  C   UNL     1      -0.607  11.823  21.426  0.00  0.00    +0.000 A 
ATOM     34  C   UNL     1      -1.852  12.443  21.736  0.00  0.00    +0.000 A 
ATOM     35  C   UNL     1      -2.653  12.569  20.621  0.00  0.00    +0.000 A 
ATOM     36  S   UNL     1      -1.870  12.025  19.201  0.00  0.00    +0.000 S 
ENDBRANCH  30  32
ENDBRANCH  26  27
ENDBRANCH   2  26
TORSDOF 8
ENDMDL
MODEL 8
REMARK VINA RESULT:      -8.0      4.199      7.332
REMARK  Name = 
REMARK  8 active torsions:
REMARK  status: ('A' for Active; 'I' for Inactive)
REMARK    1  A    between atoms: C_2  and  C_3
REMARK    2  A    between atoms: C_3  and  N_4
REMARK    3  A    between atoms: N_4  and  C_18
REMARK    4  A    between atoms: C_5  and  C_7
REMARK    5  A    between atoms: C_7  and  N_8
REMARK    6  A    between atoms: C_11  and  C_12
REMARK    7  A    between atoms: N_28  and  C_29
REMARK    8  A    between atoms: C_29  and  C_30
REMARK                            x       y       z     vdW  Elec       q    Type
REMARK                         _______ _______ _______ _____ _____    ______ ____
ROOT
ATOM      1  N   UNL     1       4.075   6.342  18.030  0.00  0.00    +0.000 N 
ATOM      2  C   UNL     1       3.226   7.449  17.883  0.00  0.00    +0.000 C 
ATOM      3  O   UNL     1       3.151   8.119  16.849  0.00  0.00    +0.000 OA
ENDROOT
BRANCH   1   4
ATOM      4  C   UNL     1       5.026   6.075  16.988  0.00  0.00    +0.000 A 
ATOM      5  C   UNL     1       6.276   6.709  17.010  0.00  0.00    +0.000 A 
ATOM      6  C   UNL     1       7.223   6.440  16.019  0.00  0.00    +0.000 A 
ATOM      7  C   UNL     1       6.916   5.577  14.970  0.00  0.00    +0.000 A 
ATOM      8  C   UNL     1       5.669   4.946  14.930  0.00  0.00    +0.000 A 
ATOM      9  C   UNL     1       4.732   5.187  15.938  0.00  0.00    +0.000 A 
ATOM     10  O   UNL     1       5.295   4.095  13.920  0.00  0.00    +0.000 OA
ATOM     11  C   UNL     1       6.409   3.692  13.115  0.00  0.00    +0.000 C 
ATOM     12  C   UNL     1       7.324   4.867  12.811  0.00  0.00    +0.000 C 
ATOM     13  O   UNL     1       7.878   5.405  14.013  0.00  0.00    +0.000 OA
ENDBRANCH   1   4
BRANCH   1  14
ATOM     14  C   UNL     1       4.367   5.670  19.328  0.00  0.00    +0.000 C 
BRANCH  14  16
ATOM     15  O   UNL     1       6.610   5.054  19.976  0.00  0.00    +0.000 OA
ATOM     16  C   UNL     1       5.551   4.687  19.458  0.00  0.00    +0.000 C 
ATOM     17  N   UNL     1       5.470   3.378  19.088  0.00  0.00    +0.000 N 
ATOM     18  H   UNL     1       6.301   2.849  19.331  0.00  0.00    +0.000 HD
BRANCH  17  19
ATOM     19  C   UNL     1       4.338   2.625  18.623  0.00  0.00    +0.000 C 
BRANCH  19  20
ATOM     20  C   UNL     1       3.144   2.716  19.524  0.00  0.00    +0.000 A 
ATOM     21  C   UNL     1       3.284   2.487  20.901  0.00  0.00    +0.000 A 
ATOM     22  C   UNL     1       2.182   2.577  21.749  0.00  0.00    +0.000 A 
ATOM     23  C   UNL     1       0.932   2.897  21.227  0.00  0.00    +0.000 A 
ATOM     24  C   UNL     1       0.783   3.134  19.860  0.00  0.00    +0.000 A 
ATOM     25  C   UNL     1       1.883   3.044  19.010  0.00  0.00    +0.000 A 
ENDBRANCH  19  20
ENDBRANCH  17  19
ENDBRANCH  14  16
ENDBRANCH   1  14
BRANCH   2  26
ATOM     26  C   UNL     1       2.249   7.749  18.976  0.00  0.00    +0.000 C 
BRANCH  26  27
ATOM     27  N   UNL     1       1.577   9.013  18.871  0.00  0.00    +0.000 N 
ATOM     28  N   UNL     1       2.066  10.041  18.161  0.00  0.00    +0.000 NA
ATOM     29  N   UNL     1       1.303  11.072  18.505  0.00  0.00    +0.000 NA
ATOM     30  C   UNL     1       0.475  10.630  19.506  0.00  0.00    +0.000 A 
ATOM     31  N   UNL     1       0.708   9.354  19.845  0.00  0.00    +0.000 NA
BRANCH  30  32
ATOM     32  C   UNL     1      -0.639  11.417  20.097  0.00  0.00    +0.000 A 
ATOM     33  C   UNL     1      -1.724  11.882  19.381  0.00  0.00    +0.000 A 
ATOM     34  C   UNL     1      -2.537  12.755  20.160  0.00  0.00    +0.000 A 
ATOM     35  C   UNL     1      -2.049  12.903  21.440  0.00  0.00    +0.000 A 
ATOM     36  S   UNL     1      -0.675  11.925  21.723  0.00  0.00    +0.000 S 
ENDBRANCH  30  32
ENDBRANCH  26  27
ENDBRANCH   2  26
TORSDOF 8
ENDMDL
MODEL 9
REMARK VINA RESULT:      -7.9      3.816      8.592
REMARK  Name = 
REMARK  8 active torsions:
REMARK  status: ('A' for Active; 'I' for Inactive)
REMARK    1  A    between atoms: C_2  and  C_3
REMARK    2  A    between atoms: C_3  and  N_4
REMARK    3  A    between atoms: N_4  and  C_18
REMARK    4  A    between atoms: C_5  and  C_7
REMARK    5  A    between atoms: C_7  and  N_8
REMARK    6  A    between atoms: C_11  and  C_12
REMARK    7  A    between atoms: N_28  and  C_29
REMARK    8  A    between atoms: C_29  and  C_30
REMARK                            x       y       z     vdW  Elec       q    Type
REMARK                         _______ _______ _______ _____ _____    ______ ____
ROOT
ATOM      1  N   UNL     1      -0.759  11.574  19.762  0.00  0.00    +0.000 N 
ATOM      2  C   UNL     1       0.555  11.155  20.018  0.00  0.00    +0.000 C 
ATOM      3  O   UNL     1       1.125  11.321  21.101  0.00  0.00    +0.000 OA
ENDROOT
BRANCH   1   4
ATOM      4  C   UNL     1      -1.416  12.383  20.749  0.00  0.00    +0.000 A 
ATOM      5  C   UNL     1      -1.373  13.781  20.642  0.00  0.00    +0.000 A 
ATOM      6  C   UNL     1      -2.029  14.584  21.578  0.00  0.00    +0.000 A 
ATOM      7  C   UNL     1      -2.691  14.003  22.658  0.00  0.00    +0.000 A 
ATOM      8  C   UNL     1      -2.733  12.612  22.783  0.00  0.00    +0.000 A 
ATOM      9  C   UNL     1      -2.106  11.806  21.829  0.00  0.00    +0.000 A 
ATOM     10  O   UNL     1      -3.356  11.975  23.827  0.00  0.00    +0.000 OA
ATOM     11  C   UNL     1      -4.203  12.860  24.570  0.00  0.00    +0.000 C 
ATOM     12  C   UNL     1      -3.531  14.204  24.800  0.00  0.00    +0.000 C 
ATOM     13  O   UNL     1      -3.266  14.859  23.558  0.00  0.00    +0.000 OA
ENDBRANCH   1   4
BRANCH   1  14
ATOM     14  C   UNL     1      -1.384  11.610  18.410  0.00  0.00    +0.000 C 
BRANCH  14  16
ATOM     15  O   UNL     1      -2.378   9.538  17.667  0.00  0.00    +0.000 OA
ATOM     16  C   UNL     1      -2.576  10.690  18.066  0.00  0.00    +0.000 C 
ATOM     17  N   UNL     1      -3.874  11.062  18.250  0.00  0.00    +0.000 N 
ATOM     18  H   UNL     1      -4.527  10.307  18.070  0.00  0.00    +0.000 HD
BRANCH  17  19
ATOM     19  C   UNL     1      -4.411  12.252  18.851  0.00  0.00    +0.000 C 
BRANCH  19  20
ATOM     20  C   UNL     1      -5.576  11.993  19.759  0.00  0.00    +0.000 A 
ATOM     21  C   UNL     1      -6.476  10.957  19.469  0.00  0.00    +0.000 A 
ATOM     22  C   UNL     1      -7.558  10.703  20.309  0.00  0.00    +0.000 A 
ATOM     23  C   UNL     1      -7.747  11.482  21.447  0.00  0.00    +0.000 A 
ATOM     24  C   UNL     1      -6.853  12.512  21.748  0.00  0.00    +0.000 A 
ATOM     25  C   UNL     1      -5.771  12.768  20.909  0.00  0.00    +0.000 A 
ENDBRANCH  19  20
ENDBRANCH  17  19
ENDBRANCH  14  16
ENDBRANCH   1  14
BRANCH   2  26
ATOM     26  C   UNL     1       1.256  10.332  18.983  0.00  0.00    +0.000 C 
BRANCH  26  27
ATOM     27  N   UNL     1       1.457   8.953  19.326  0.00  0.00    +0.000 N 
ATOM     28  N   UNL     1       1.241   8.471  20.559  0.00  0.00    +0.000 NA
ATOM     29  N   UNL     1       1.761   7.250  20.532  0.00  0.00    +0.000 NA
ATOM     30  C   UNL     1       2.379   7.114  19.315  0.00  0.00    +0.000 A 
ATOM     31  N   UNL     1       2.306   8.227  18.570  0.00  0.00    +0.000 NA
BRANCH  30  32
ATOM     32  C   UNL     1       2.980   5.855  18.801  0.00  0.00    +0.000 A 
ATOM     33  C   UNL     1       4.305   5.505  18.967  0.00  0.00    +0.000 A 
ATOM     34  C   UNL     1       4.642   4.340  18.219  0.00  0.00    +0.000 A 
ATOM     35  C   UNL     1       3.556   3.841  17.531  0.00  0.00    +0.000 A 
ATOM     36  S   UNL     1       2.126   4.719  17.861  0.00  0.00    +0.000 S 
ENDBRANCH  30  32
ENDBRANCH  26  27
ENDBRANCH   2  26
TORSDOF 8
ENDMDL
