MODEL 1
REMARK VINA RESULT:      -6.8      0.000      0.000
REMARK  Name = 
REMARK  8 active torsions:
REMARK  status: ('A' for Active; 'I' for Inactive)
REMARK    1  A    between atoms: C_1  and  O_2
REMARK    2  A    between atoms: O_2  and  C_3
REMARK    3  A    between atoms: C_10  and  C_11
REMARK    4  A    between atoms: C_12  and  C_13
REMARK    5  A    between atoms: C_16  and  N_17
REMARK    6  A    between atoms: N_17  and  C_18
REMARK    7  A    between atoms: N_17  and  C_19
REMARK    8  A    between atoms: N_22  and  C_23
REMARK                            x       y       z     vdW  Elec       q    Type
REMARK                         _______ _______ _______ _____ _____    ______ ____
ROOT
ATOM      1  C   UNL     1       5.653   4.655  15.578  0.00  0.00    +0.000 A 
ATOM      2  C   UNL     1       5.206   3.582  16.345  0.00  0.00    +0.000 A 
ATOM      3  C   UNL     1       4.366   3.789  17.445  0.00  0.00    +0.000 A 
ATOM      4  C   UNL     1       3.963   5.099  17.773  0.00  0.00    +0.000 A 
ATOM      5  C   UNL     1       4.421   6.165  17.009  0.00  0.00    +0.000 A 
ATOM      6  C   UNL     1       5.267   5.962  15.905  0.00  0.00    +0.000 A 
ATOM      7  S   UNL     1       3.770   7.628  17.635  0.00  0.00    +0.000 S 
ATOM      8  C   UNL     1       2.894   6.802  18.876  0.00  0.00    +0.000 A 
ATOM      9  N   UNL     1       3.103   5.494  18.792  0.00  0.00    +0.000 N 
ATOM     10  C   UNL     1       2.446   4.484  19.615  0.00  0.00    +0.000 C 
ENDROOT
BRANCH   1  12
ATOM     11  C   UNL     1       5.995   3.762  13.394  0.00  0.00    +0.000 C 
ATOM     12  O   UNL     1       6.465   4.555  14.482  0.00  0.00    +0.000 OA
ENDBRANCH   1  12
BRANCH   8  13
ATOM     13  C   UNL     1       2.021   7.533  19.734  0.00  0.00    +0.000 C 
ATOM     14  C   UNL     1       1.474   8.719  19.419  0.00  0.00    +0.000 C 
BRANCH  14  15
ATOM     15  C   UNL     1       0.686   9.533  20.366  0.00  0.00    +0.000 A 
ATOM     16  C   UNL     1       0.171  10.753  19.929  0.00  0.00    +0.000 A 
ATOM     17  C   UNL     1      -0.543  11.592  20.803  0.00  0.00    +0.000 A 
ATOM     18  C   UNL     1      -0.804  11.250  22.139  0.00  0.00    +0.000 A 
ATOM     19  C   UNL     1      -0.306  10.000  22.543  0.00  0.00    +0.000 A 
ATOM     20  C   UNL     1       0.423   9.155  21.682  0.00  0.00    +0.000 A 
BRANCH  18  21
ATOM     21  N   UNL     1      -1.448  12.127  23.004  0.00  0.00    +0.000 N 
ATOM     22  C   UNL     1      -1.007  13.518  23.142  0.00  0.00    +0.000 C 
ATOM     23  C   UNL     1      -2.828  11.913  23.442  0.00  0.00    +0.000 C 
ENDBRANCH  18  21
ENDBRANCH  14  15
ENDBRANCH   8  13
TORSDOF 4
ENDMDL
MODEL 2
REMARK VINA RESULT:      -6.7      6.285      8.284
REMARK  Name = 
REMARK  8 active torsions:
REMARK  status: ('A' for Active; 'I' for Inactive)
REMARK    1  A    between atoms: C_1  and  O_2
REMARK    2  A    between atoms: O_2  and  C_3
REMARK    3  A    between atoms: C_10  and  C_11
REMARK    4  A    between atoms: C_12  and  C_13
REMARK    5  A    between atoms: C_16  and  N_17
REMARK    6  A    between atoms: N_17  and  C_18
REMARK    7  A    between atoms: N_17  and  C_19
REMARK    8  A    between atoms: N_22  and  C_23
REMARK                            x       y       z     vdW  Elec       q    Type
REMARK                         _______ _______ _______ _____ _____    ______ ____
ROOT
ATOM      1  C   UNL     1       3.479   4.068  17.851  0.00  0.00    +0.000 A 
ATOM      2  C   UNL     1       4.411   3.505  18.718  0.00  0.00    +0.000 A 
ATOM      3  C   UNL     1       5.636   4.139  18.963  0.00  0.00    +0.000 A 
ATOM      4  C   UNL     1       5.921   5.364  18.329  0.00  0.00    +0.000 A 
ATOM      5  C   UNL     1       4.989   5.915  17.459  0.00  0.00    +0.000 A 
ATOM      6  C   UNL     1       3.760   5.282  17.207  0.00  0.00    +0.000 A 
ATOM      7  S   UNL     1       5.602   7.399  16.843  0.00  0.00    +0.000 S 
ATOM      8  C   UNL     1       7.061   7.271  17.760  0.00  0.00    +0.000 A 
ATOM      9  N   UNL     1       7.053   6.158  18.482  0.00  0.00    +0.000 N 
ATOM     10  C   UNL     1       8.077   5.775  19.448  0.00  0.00    +0.000 C 
ENDROOT
BRANCH   1  12
ATOM     11  C   UNL     1       1.829   2.415  18.330  0.00  0.00    +0.000 C 
ATOM     12  O   UNL     1       2.255   3.534  17.556  0.00  0.00    +0.000 OA
ENDBRANCH   1  12
BRANCH   8  13
ATOM     13  C   UNL     1       8.010   8.335  17.736  0.00  0.00    +0.000 C 
ATOM     14  C   UNL     1       8.409   9.012  18.826  0.00  0.00    +0.000 C 
BRANCH  14  15
ATOM     15  C   UNL     1       9.282  10.202  18.774  0.00  0.00    +0.000 A 
ATOM     16  C   UNL     1       9.717  10.763  19.975  0.00  0.00    +0.000 A 
ATOM     17  C   UNL     1      10.508  11.925  19.986  0.00  0.00    +0.000 A 
ATOM     18  C   UNL     1      10.929  12.568  18.811  0.00  0.00    +0.000 A 
ATOM     19  C   UNL     1      10.507  11.963  17.616  0.00  0.00    +0.000 A 
ATOM     20  C   UNL     1       9.703  10.805  17.589  0.00  0.00    +0.000 A 
BRANCH  18  21
ATOM     21  N   UNL     1      11.647  13.757  18.847  0.00  0.00    +0.000 N 
ATOM     22  C   UNL     1      12.331  14.269  17.657  0.00  0.00    +0.000 C 
ATOM     23  C   UNL     1      11.389  14.790  19.853  0.00  0.00    +0.000 C 
ENDBRANCH  18  21
ENDBRANCH  14  15
ENDBRANCH   8  13
TORSDOF 4
ENDMDL
MODEL 3
REMARK VINA RESULT:      -6.6      1.061      1.474
REMARK  Name = 
REMARK  8 active torsions:
REMARK  status: ('A' for Active; 'I' for Inactive)
REMARK    1  A    between atoms: C_1  and  O_2
REMARK    2  A    between atoms: O_2  and  C_3
REMARK    3  A    between atoms: C_10  and  C_11
REMARK    4  A    between atoms: C_12  and  C_13
REMARK    5  A    between atoms: C_16  and  N_17
REMARK    6  A    between atoms: N_17  and  C_18
REMARK    7  A    between atoms: N_17  and  C_19
REMARK    8  A    between atoms: N_22  and  C_23
REMARK                            x       y       z     vdW  Elec       q    Type
REMARK                         _______ _______ _______ _____ _____    ______ ____
ROOT
ATOM      1  C   UNL     1       5.128   4.279  17.014  0.00  0.00    +0.000 A 
ATOM      2  C   UNL     1       4.665   3.537  18.097  0.00  0.00    +0.000 A 
ATOM      3  C   UNL     1       3.794   4.105  19.035  0.00  0.00    +0.000 A 
ATOM      4  C   UNL     1       3.376   5.440  18.872  0.00  0.00    +0.000 A 
ATOM      5  C   UNL     1       3.849   6.177  17.794  0.00  0.00    +0.000 A 
ATOM      6  C   UNL     1       4.727   5.613  16.853  0.00  0.00    +0.000 A 
ATOM      7  S   UNL     1       3.174   7.757  17.851  0.00  0.00    +0.000 S 
ATOM      8  C   UNL     1       2.269   7.407  19.281  0.00  0.00    +0.000 A 
ATOM      9  N   UNL     1       2.486   6.156  19.666  0.00  0.00    +0.000 N 
ATOM     10  C   UNL     1       1.812   5.489  20.776  0.00  0.00    +0.000 C 
ENDROOT
BRANCH   1  12
ATOM     11  C   UNL     1       5.723   4.244  14.706  0.00  0.00    +0.000 C 
ATOM     12  O   UNL     1       5.970   3.813  16.043  0.00  0.00    +0.000 OA
ENDBRANCH   1  12
BRANCH   8  13
ATOM     13  C   UNL     1       1.369   8.380  19.807  0.00  0.00    +0.000 C 
ATOM     14  C   UNL     1       1.590   9.080  20.932  0.00  0.00    +0.000 C 
BRANCH  14  15
ATOM     15  C   UNL     1       0.592   9.979  21.544  0.00  0.00    +0.000 A 
ATOM     16  C   UNL     1       0.475  11.280  21.051  0.00  0.00    +0.000 A 
ATOM     17  C   UNL     1      -0.424  12.194  21.627  0.00  0.00    +0.000 A 
ATOM     18  C   UNL     1      -1.267  11.857  22.698  0.00  0.00    +0.000 A 
ATOM     19  C   UNL     1      -1.155  10.533  23.152  0.00  0.00    +0.000 A 
ATOM     20  C   UNL     1      -0.250   9.609  22.592  0.00  0.00    +0.000 A 
BRANCH  18  21
ATOM     21  N   UNL     1      -2.093  12.799  23.299  0.00  0.00    +0.000 N 
ATOM     22  C   UNL     1      -3.395  12.422  23.858  0.00  0.00    +0.000 C 
ATOM     23  C   UNL     1      -1.571  14.052  23.848  0.00  0.00    +0.000 C 
ENDBRANCH  18  21
ENDBRANCH  14  15
ENDBRANCH   8  13
TORSDOF 4
ENDMDL
MODEL 4
REMARK VINA RESULT:      -6.4      1.053      1.541
REMARK  Name = 
REMARK  8 active torsions:
REMARK  status: ('A' for Active; 'I' for Inactive)
REMARK    1  A    between atoms: C_1  and  O_2
REMARK    2  A    between atoms: O_2  and  C_3
REMARK    3  A    between atoms: C_10  and  C_11
REMARK    4  A    between atoms: C_12  and  C_13
REMARK    5  A    between atoms: C_16  and  N_17
REMARK    6  A    between atoms: N_17  and  C_18
REMARK    7  A    between atoms: N_17  and  C_19
REMARK    8  A    between atoms: N_22  and  C_23
REMARK                            x       y       z     vdW  Elec       q    Type
REMARK                         _______ _______ _______ _____ _____    ______ ____
ROOT
ATOM      1  C   UNL     1       5.073   4.352  16.851  0.00  0.00    +0.000 A 
ATOM      2  C   UNL     1       4.755   3.509  17.912  0.00  0.00    +0.000 A 
ATOM      3  C   UNL     1       3.946   3.954  18.964  0.00  0.00    +0.000 A 
ATOM      4  C   UNL     1       3.443   5.270  18.942  0.00  0.00    +0.000 A 
ATOM      5  C   UNL     1       3.772   6.108  17.884  0.00  0.00    +0.000 A 
ATOM      6  C   UNL     1       4.586   5.667  16.828  0.00  0.00    +0.000 A 
ATOM      7  S   UNL     1       3.020   7.637  18.123  0.00  0.00    +0.000 S 
ATOM      8  C   UNL     1       2.274   7.131  19.597  0.00  0.00    +0.000 A 
ATOM      9  N   UNL     1       2.594   5.871  19.865  0.00  0.00    +0.000 N 
ATOM     10  C   UNL     1       2.065   5.088  20.977  0.00  0.00    +0.000 C 
ENDROOT
BRANCH   1  12
ATOM     11  C   UNL     1       5.751   4.837  14.617  0.00  0.00    +0.000 C 
ATOM     12  O   UNL     1       5.843   4.009  15.775  0.00  0.00    +0.000 OA
ENDBRANCH   1  12
BRANCH   8  13
ATOM     13  C   UNL     1       1.376   8.008  20.275  0.00  0.00    +0.000 C 
ATOM     14  C   UNL     1       0.932   9.170  19.768  0.00  0.00    +0.000 C 
BRANCH  14  15
ATOM     15  C   UNL     1       0.117  10.135  20.532  0.00  0.00    +0.000 A 
ATOM     16  C   UNL     1       0.186  10.111  21.925  0.00  0.00    +0.000 A 
ATOM     17  C   UNL     1      -0.606  10.974  22.704  0.00  0.00    +0.000 A 
ATOM     18  C   UNL     1      -1.479  11.918  22.141  0.00  0.00    +0.000 A 
ATOM     19  C   UNL     1      -1.502  11.946  20.737  0.00  0.00    +0.000 A 
ATOM     20  C   UNL     1      -0.724  11.079  19.943  0.00  0.00    +0.000 A 
BRANCH  18  21
ATOM     21  N   UNL     1      -2.305  12.708  22.930  0.00  0.00    +0.000 N 
ATOM     22  C   UNL     1      -1.775  13.847  23.685  0.00  0.00    +0.000 C 
ATOM     23  C   UNL     1      -3.750  12.790  22.703  0.00  0.00    +0.000 C 
ENDBRANCH  18  21
ENDBRANCH  14  15
ENDBRANCH   8  13
TORSDOF 4
ENDMDL
MODEL 5
REMARK VINA RESULT:      -6.4      3.733      9.768
REMARK  Name = 
REMARK  8 active torsions:
REMARK  status: ('A' for Active; 'I' for Inactive)
REMARK    1  A    between atoms: C_1  and  O_2
REMARK    2  A    between atoms: O_2  and  C_3
REMARK    3  A    between atoms: C_10  and  C_11
REMARK    4  A    between atoms: C_12  and  C_13
REMARK    5  A    between atoms: C_16  and  N_17
REMARK    6  A    between atoms: N_17  and  C_18
REMARK    7  A    between atoms: N_17  and  C_19
REMARK    8  A    between atoms: N_22  and  C_23
REMARK                            x       y       z     vdW  Elec       q    Type
REMARK                         _______ _______ _______ _____ _____    ______ ____
ROOT
ATOM      1  C   UNL     1      -2.136  12.919  21.920  0.00  0.00    +0.000 A 
ATOM      2  C   UNL     1      -1.646  12.186  22.997  0.00  0.00    +0.000 A 
ATOM      3  C   UNL     1      -0.755  11.125  22.796  0.00  0.00    +0.000 A 
ATOM      4  C   UNL     1      -0.345  10.803  21.487  0.00  0.00    +0.000 A 
ATOM      5  C   UNL     1      -0.845  11.533  20.417  0.00  0.00    +0.000 A 
ATOM      6  C   UNL     1      -1.742  12.597  20.613  0.00  0.00    +0.000 A 
ATOM      7  S   UNL     1      -0.174  10.923  18.956  0.00  0.00    +0.000 S 
ATOM      8  C   UNL     1       0.765   9.734  19.789  0.00  0.00    +0.000 A 
ATOM      9  N   UNL     1       0.560   9.822  21.097  0.00  0.00    +0.000 N 
ATOM     10  C   UNL     1       1.262   9.042  22.111  0.00  0.00    +0.000 C 
ENDROOT
BRANCH   1  12
ATOM     11  C   UNL     1      -3.516  14.282  23.307  0.00  0.00    +0.000 C 
ATOM     12  O   UNL     1      -2.998  13.976  22.013  0.00  0.00    +0.000 OA
ENDBRANCH   1  12
BRANCH   8  13
ATOM     13  C   UNL     1       1.674   8.911  19.061  0.00  0.00    +0.000 C 
ATOM     14  C   UNL     1       1.956   7.637  19.380  0.00  0.00    +0.000 C 
BRANCH  14  15
ATOM     15  C   UNL     1       3.001   6.840  18.708  0.00  0.00    +0.000 A 
ATOM     16  C   UNL     1       3.383   5.625  19.279  0.00  0.00    +0.000 A 
ATOM     17  C   UNL     1       4.408   4.848  18.709  0.00  0.00    +0.000 A 
ATOM     18  C   UNL     1       5.081   5.223  17.536  0.00  0.00    +0.000 A 
ATOM     19  C   UNL     1       4.653   6.432  16.962  0.00  0.00    +0.000 A 
ATOM     20  C   UNL     1       3.637   7.227  17.529  0.00  0.00    +0.000 A 
BRANCH  18  21
ATOM     21  N   UNL     1       6.140   4.478  17.033  0.00  0.00    +0.000 N 
ATOM     22  C   UNL     1       6.078   3.869  15.701  0.00  0.00    +0.000 C 
ATOM     23  C   UNL     1       7.509   4.640  17.529  0.00  0.00    +0.000 C 
ENDBRANCH  18  21
ENDBRANCH  14  15
ENDBRANCH   8  13
TORSDOF 4
ENDMDL
MODEL 6
REMARK VINA RESULT:      -6.4      3.922      9.822
REMARK  Name = 
REMARK  8 active torsions:
REMARK  status: ('A' for Active; 'I' for Inactive)
REMARK    1  A    between atoms: C_1  and  O_2
REMARK    2  A    between atoms: O_2  and  C_3
REMARK    3  A    between atoms: C_10  and  C_11
REMARK    4  A    between atoms: C_12  and  C_13
REMARK    5  A    between atoms: C_16  and  N_17
REMARK    6  A    between atoms: N_17  and  C_18
REMARK    7  A    between atoms: N_17  and  C_19
REMARK    8  A    between atoms: N_22  and  C_23
REMARK                            x       y       z     vdW  Elec       q    Type
REMARK                         _______ _______ _______ _____ _____    ______ ____
ROOT
ATOM      1  C   UNL     1      -2.397  13.020  21.417  0.00  0.00    +0.000 A 
ATOM      2  C   UNL     1      -3.179  12.722  20.305  0.00  0.00    +0.000 A 
ATOM      3  C   UNL     1      -2.687  11.906  19.279  0.00  0.00    +0.000 A 
ATOM      4  C   UNL     1      -1.386  11.374  19.382  0.00  0.00    +0.000 A 
ATOM      5  C   UNL     1      -0.608  11.683  20.490  0.00  0.00    +0.000 A 
ATOM      6  C   UNL     1      -1.096  12.505  21.520  0.00  0.00    +0.000 A 
ATOM      7  S   UNL     1       0.915  10.898  20.345  0.00  0.00    +0.000 S 
ATOM      8  C   UNL     1       0.487  10.166  18.839  0.00  0.00    +0.000 A 
ATOM      9  N   UNL     1      -0.747  10.514  18.495  0.00  0.00    +0.000 N 
ATOM     10  C   UNL     1      -1.471  10.004  17.335  0.00  0.00    +0.000 C 
ENDROOT
BRANCH   1  12
ATOM     11  C   UNL     1      -2.497  15.190  22.398  0.00  0.00    +0.000 C 
ATOM     12  O   UNL     1      -2.789  13.796  22.472  0.00  0.00    +0.000 OA
ENDBRANCH   1  12
BRANCH   8  13
ATOM     13  C   UNL     1       1.383   9.250  18.215  0.00  0.00    +0.000 C 
ATOM     14  C   UNL     1       1.752   8.074  18.750  0.00  0.00    +0.000 C 
BRANCH  14  15
ATOM     15  C   UNL     1       2.787   7.199  18.164  0.00  0.00    +0.000 A 
ATOM     16  C   UNL     1       2.689   5.822  18.366  0.00  0.00    +0.000 A 
ATOM     17  C   UNL     1       3.672   4.946  17.873  0.00  0.00    +0.000 A 
ATOM     18  C   UNL     1       4.782   5.389  17.136  0.00  0.00    +0.000 A 
ATOM     19  C   UNL     1       4.839   6.775  16.917  0.00  0.00    +0.000 A 
ATOM     20  C   UNL     1       3.867   7.666  17.416  0.00  0.00    +0.000 A 
BRANCH  18  21
ATOM     21  N   UNL     1       5.779   4.514  16.724  0.00  0.00    +0.000 N 
ATOM     22  C   UNL     1       5.750   3.898  15.394  0.00  0.00    +0.000 C 
ATOM     23  C   UNL     1       7.114   4.516  17.328  0.00  0.00    +0.000 C 
ENDBRANCH  18  21
ENDBRANCH  14  15
ENDBRANCH   8  13
TORSDOF 4
ENDMDL
MODEL 7
REMARK VINA RESULT:      -6.4      0.825      1.320
REMARK  Name = 
REMARK  8 active torsions:
REMARK  status: ('A' for Active; 'I' for Inactive)
REMARK    1  A    between atoms: C_1  and  O_2
REMARK    2  A    between atoms: O_2  and  C_3
REMARK    3  A    between atoms: C_10  and  C_11
REMARK    4  A    between atoms: C_12  and  C_13
REMARK    5  A    between atoms: C_16  and  N_17
REMARK    6  A    between atoms: N_17  and  C_18
REMARK    7  A    between atoms: N_17  and  C_19
REMARK    8  A    between atoms: N_22  and  C_23
REMARK                            x       y       z     vdW  Elec       q    Type
REMARK                         _______ _______ _______ _____ _____    ______ ____
ROOT
ATOM      1  C   UNL     1       5.933   4.387  15.382  0.00  0.00    +0.000 A 
ATOM      2  C   UNL     1       5.350   3.387  16.155  0.00  0.00    +0.000 A 
ATOM      3  C   UNL     1       4.428   3.703  17.161  0.00  0.00    +0.000 A 
ATOM      4  C   UNL     1       4.083   5.051  17.384  0.00  0.00    +0.000 A 
ATOM      5  C   UNL     1       4.676   6.044  16.615  0.00  0.00    +0.000 A 
ATOM      6  C   UNL     1       5.604   5.732  15.608  0.00  0.00    +0.000 A 
ATOM      7  S   UNL     1       4.066   7.575  17.106  0.00  0.00    +0.000 S 
ATOM      8  C   UNL     1       3.031   6.873  18.298  0.00  0.00    +0.000 A 
ATOM      9  N   UNL     1       3.161   5.552  18.298  0.00  0.00    +0.000 N 
ATOM     10  C   UNL     1       2.369   4.629  19.104  0.00  0.00    +0.000 C 
ENDROOT
BRANCH   1  12
ATOM     11  C   UNL     1       6.306   3.863  13.087  0.00  0.00    +0.000 C 
ATOM     12  O   UNL     1       6.833   4.180  14.374  0.00  0.00    +0.000 OA
ENDBRANCH   1  12
BRANCH   8  13
ATOM     13  C   UNL     1       2.132   7.700  19.034  0.00  0.00    +0.000 C 
ATOM     14  C   UNL     1       1.598   8.838  18.560  0.00  0.00    +0.000 C 
BRANCH  14  15
ATOM     15  C   UNL     1       0.783   9.759  19.378  0.00  0.00    +0.000 A 
ATOM     16  C   UNL     1       0.581   9.454  20.724  0.00  0.00    +0.000 A 
ATOM     17  C   UNL     1      -0.227  10.269  21.537  0.00  0.00    +0.000 A 
ATOM     18  C   UNL     1      -0.849  11.435  21.063  0.00  0.00    +0.000 A 
ATOM     19  C   UNL     1      -0.601  11.737  19.715  0.00  0.00    +0.000 A 
ATOM     20  C   UNL     1       0.196  10.923  18.884  0.00  0.00    +0.000 A 
BRANCH  18  21
ATOM     21  N   UNL     1      -1.702  12.183  21.865  0.00  0.00    +0.000 N 
ATOM     22  C   UNL     1      -1.208  12.891  23.049  0.00  0.00    +0.000 C 
ATOM     23  C   UNL     1      -2.972  12.714  21.364  0.00  0.00    +0.000 C 
ENDBRANCH  18  21
ENDBRANCH  14  15
ENDBRANCH   8  13
TORSDOF 4
ENDMDL
MODEL 8
REMARK VINA RESULT:      -6.3      4.360      9.939
REMARK  Name = 
REMARK  8 active torsions:
REMARK  status: ('A' for Active; 'I' for Inactive)
REMARK    1  A    between atoms: C_1  and  O_2
REMARK    2  A    between atoms: O_2  and  C_3
REMARK    3  A    between atoms: C_10  and  C_11
REMARK    4  A    between atoms: C_12  and  C_13
REMARK    5  A    between atoms: C_16  and  N_17
REMARK    6  A    between atoms: N_17  and  C_18
REMARK    7  A    between atoms: N_17  and  C_19
REMARK    8  A    between atoms: N_22  and  C_23
REMARK                            x       y       z     vdW  Elec       q    Type
REMARK                         _______ _______ _______ _____ _____    ______ ____
ROOT
ATOM      1  C   UNL     1      -2.354  13.801  22.633  0.00  0.00    +0.000 A 
ATOM      2  C   UNL     1      -2.295  13.896  21.246  0.00  0.00    +0.000 A 
ATOM      3  C   UNL     1      -1.722  12.873  20.480  0.00  0.00    +0.000 A 
ATOM      4  C   UNL     1      -1.206  11.731  21.126  0.00  0.00    +0.000 A 
ATOM      5  C   UNL     1      -1.260  11.648  22.511  0.00  0.00    +0.000 A 
ATOM      6  C   UNL     1      -1.830  12.673  23.283  0.00  0.00    +0.000 A 
ATOM      7  S   UNL     1      -0.565  10.157  23.012  0.00  0.00    +0.000 S 
ATOM      8  C   UNL     1      -0.238   9.668  21.387  0.00  0.00    +0.000 A 
ATOM      9  N   UNL     1      -0.646  10.602  20.537  0.00  0.00    +0.000 N 
ATOM     10  C   UNL     1      -0.619  10.484  19.083  0.00  0.00    +0.000 C 
ENDROOT
BRANCH   1  12
ATOM     11  C   UNL     1      -2.939  16.083  22.994  0.00  0.00    +0.000 C 
ATOM     12  O   UNL     1      -2.900  14.738  23.465  0.00  0.00    +0.000 OA
ENDBRANCH   1  12
BRANCH   8  13
ATOM     13  C   UNL     1       0.297   8.372  21.130  0.00  0.00    +0.000 C 
ATOM     14  C   UNL     1       1.493   8.151  20.561  0.00  0.00    +0.000 C 
BRANCH  14  15
ATOM     15  C   UNL     1       1.976   6.811  20.170  0.00  0.00    +0.000 A 
ATOM     16  C   UNL     1       2.625   6.668  18.943  0.00  0.00    +0.000 A 
ATOM     17  C   UNL     1       3.062   5.407  18.498  0.00  0.00    +0.000 A 
ATOM     18  C   UNL     1       2.901   4.237  19.257  0.00  0.00    +0.000 A 
ATOM     19  C   UNL     1       2.277   4.415  20.503  0.00  0.00    +0.000 A 
ATOM     20  C   UNL     1       1.823   5.670  20.956  0.00  0.00    +0.000 A 
BRANCH  18  21
ATOM     21  N   UNL     1       3.273   2.993  18.765  0.00  0.00    +0.000 N 
ATOM     22  C   UNL     1       4.122   2.088  19.546  0.00  0.00    +0.000 C 
ATOM     23  C   UNL     1       2.502   2.306  17.727  0.00  0.00    +0.000 C 
ENDBRANCH  18  21
ENDBRANCH  14  15
ENDBRANCH   8  13
TORSDOF 4
ENDMDL
MODEL 9
REMARK VINA RESULT:      -6.2      3.874      9.593
REMARK  Name = 
REMARK  8 active torsions:
REMARK  status: ('A' for Active; 'I' for Inactive)
REMARK    1  A    between atoms: C_1  and  O_2
REMARK    2  A    between atoms: O_2  and  C_3
REMARK    3  A    between atoms: C_10  and  C_11
REMARK    4  A    between atoms: C_12  and  C_13
REMARK    5  A    between atoms: C_16  and  N_17
REMARK    6  A    between atoms: N_17  and  C_18
REMARK    7  A    between atoms: N_17  and  C_19
REMARK    8  A    between atoms: N_22  and  C_23
REMARK                            x       y       z     vdW  Elec       q    Type
REMARK                         _______ _______ _______ _____ _____    ______ ____
ROOT
ATOM      1  C   UNL     1      -0.623  14.501  21.280  0.00  0.00    +0.000 A 
ATOM      2  C   UNL     1      -1.169  13.954  22.438  0.00  0.00    +0.000 A 
ATOM      3  C   UNL     1      -1.013  12.594  22.731  0.00  0.00    +0.000 A 
ATOM      4  C   UNL     1      -0.286  11.774  21.846  0.00  0.00    +0.000 A 
ATOM      5  C   UNL     1       0.248  12.325  20.688  0.00  0.00    +0.000 A 
ATOM      6  C   UNL     1       0.091  13.688  20.388  0.00  0.00    +0.000 A 
ATOM      7  S   UNL     1       1.076  11.099  19.811  0.00  0.00    +0.000 S 
ATOM      8  C   UNL     1       0.717   9.894  20.997  0.00  0.00    +0.000 A 
ATOM      9  N   UNL     1       0.011  10.423  21.989  0.00  0.00    +0.000 N 
ATOM     10  C   UNL     1      -0.381   9.722  23.207  0.00  0.00    +0.000 C 
ENDROOT
BRANCH   1  12
ATOM     11  C   UNL     1      -1.813  16.562  21.423  0.00  0.00    +0.000 C 
ATOM     12  O   UNL     1      -0.711  15.815  20.912  0.00  0.00    +0.000 OA
ENDBRANCH   1  12
BRANCH   8  13
ATOM     13  C   UNL     1       1.258   8.582  20.861  0.00  0.00    +0.000 C 
ATOM     14  C   UNL     1       1.836   8.118  19.740  0.00  0.00    +0.000 C 
BRANCH  14  15
ATOM     15  C   UNL     1       2.265   6.716  19.563  0.00  0.00    +0.000 A 
ATOM     16  C   UNL     1       1.786   5.755  20.453  0.00  0.00    +0.000 A 
ATOM     17  C   UNL     1       2.200   4.414  20.362  0.00  0.00    +0.000 A 
ATOM     18  C   UNL     1       3.083   3.958  19.370  0.00  0.00    +0.000 A 
ATOM     19  C   UNL     1       3.522   4.939  18.466  0.00  0.00    +0.000 A 
ATOM     20  C   UNL     1       3.126   6.289  18.553  0.00  0.00    +0.000 A 
BRANCH  18  21
ATOM     21  N   UNL     1       3.535   2.645  19.346  0.00  0.00    +0.000 N 
ATOM     22  C   UNL     1       3.400   1.816  18.144  0.00  0.00    +0.000 C 
ATOM     23  C   UNL     1       4.567   2.161  20.266  0.00  0.00    +0.000 C 
ENDBRANCH  18  21
ENDBRANCH  14  15
ENDBRANCH   8  13
TORSDOF 4
ENDMDL
