MODEL 1
REMARK VINA RESULT:      -8.2      0.000      0.000
REMARK  Name = 
REMARK  5 active torsions:
REMARK  status: ('A' for Active; 'I' for Inactive)
REMARK    1  A    between atoms: C_1  and  C_2
REMARK    2  A    between atoms: C_7  and  C_8
REMARK    3  A    between atoms: C_10  and  C_11
REMARK    4  A    between atoms: C_11  and  N_12
REMARK    5  A    between atoms: N_15  and  C_16
REMARK                            x       y       z     vdW  Elec       q    Type
REMARK                         _______ _______ _______ _____ _____    ______ ____
ROOT
ATOM      1  C   UNL     1       4.923   6.852  17.684  0.00  0.00    +0.000 C 
ENDROOT
BRANCH   1   2
ATOM      2  N   UNL     1       4.589   5.988  18.826  0.00  0.00    +0.000 NA
ATOM      3  C   UNL     1       3.151   6.006  19.159  0.00  0.00    +0.000 C 
ATOM      4  C   UNL     1       2.197   5.209  18.224  0.00  0.00    +0.000 C 
ATOM      5  N   UNL     1       2.635   3.882  17.784  0.00  0.00    +0.000 NA
ATOM      6  C   UNL     1       4.078   3.867  17.493  0.00  0.00    +0.000 C 
ATOM      7  C   UNL     1       4.972   4.589  18.530  0.00  0.00    +0.000 C 
BRANCH   5   8
ATOM      8  C   UNL     1       2.130   2.662  18.439  0.00  0.00    +0.000 C 
ATOM      9  C   UNL     1       3.036   1.944  19.448  0.00  0.00    +0.000 C 
ATOM     10  C   UNL     1       3.061   2.562  20.840  0.00  0.00    +0.000 C 
ATOM     11  C   UNL     1       1.680   2.853  21.419  0.00  0.00    +0.000 C 
ATOM     12  C   UNL     1       0.665   3.435  20.440  0.00  0.00    +0.000 C 
ATOM     13  C   UNL     1       0.719   2.823  19.046  0.00  0.00    +0.000 C 
ENDBRANCH   5   8
ENDBRANCH   1   2
BRANCH   1  16
ATOM     14  C   UNL     1       6.529   5.235  14.966  0.00  0.00    +0.000 A 
ATOM     15  N   UNL     1       5.522   5.927  15.459  0.00  0.00    +0.000 NA
ATOM     16  C   UNL     1       5.913   6.248  16.741  0.00  0.00    +0.000 A 
ATOM     17  C   UNL     1       7.195   5.788  16.947  0.00  0.00    +0.000 A 
ATOM     18  O   UNL     1       7.600   5.133  15.821  0.00  0.00    +0.000 OA
BRANCH  14  25
ATOM     19  C   UNL     1       8.532   5.941  12.839  0.00  0.00    +0.000 C 
ATOM     20  C   UNL     1       7.520   4.835  12.685  0.00  0.00    +0.000 A 
ATOM     21  C   UNL     1       7.452   4.177  11.443  0.00  0.00    +0.000 A 
ATOM     22  C   UNL     1       6.506   3.182  11.209  0.00  0.00    +0.000 A 
ATOM     23  C   UNL     1       5.617   2.823  12.217  0.00  0.00    +0.000 A 
ATOM     24  C   UNL     1       5.673   3.466  13.457  0.00  0.00    +0.000 A 
ATOM     25  C   UNL     1       6.600   4.488  13.709  0.00  0.00    +0.000 A 
ENDBRANCH  14  25
ENDBRANCH   1  16
TORSDOF 4
ENDMDL
MODEL 2
REMARK VINA RESULT:      -8.2      4.634      6.827
REMARK  Name = 
REMARK  5 active torsions:
REMARK  status: ('A' for Active; 'I' for Inactive)
REMARK    1  A    between atoms: C_1  and  C_2
REMARK    2  A    between atoms: C_7  and  C_8
REMARK    3  A    between atoms: C_10  and  C_11
REMARK    4  A    between atoms: C_11  and  N_12
REMARK    5  A    between atoms: N_15  and  C_16
REMARK                            x       y       z     vdW  Elec       q    Type
REMARK                         _______ _______ _______ _____ _____    ______ ____
ROOT
ATOM      1  C   UNL     1       7.675   6.715  18.306  0.00  0.00    +0.000 C 
ENDROOT
BRANCH   1   2
ATOM      2  N   UNL     1       6.963   6.154  17.148  0.00  0.00    +0.000 NA
ATOM      3  C   UNL     1       6.921   4.677  17.160  0.00  0.00    +0.000 C 
ATOM      4  C   UNL     1       5.926   4.005  18.150  0.00  0.00    +0.000 C 
ATOM      5  N   UNL     1       4.586   4.588  18.262  0.00  0.00    +0.000 NA
ATOM      6  C   UNL     1       4.639   6.058  18.208  0.00  0.00    +0.000 C 
ATOM      7  C   UNL     1       5.570   6.651  17.122  0.00  0.00    +0.000 C 
BRANCH   5   8
ATOM      8  C   UNL     1       3.440   3.990  17.554  0.00  0.00    +0.000 C 
ATOM      9  C   UNL     1       3.256   2.469  17.612  0.00  0.00    +0.000 C 
ATOM     10  C   UNL     1       2.609   1.951  18.890  0.00  0.00    +0.000 C 
ATOM     11  C   UNL     1       1.340   2.694  19.293  0.00  0.00    +0.000 C 
ATOM     12  C   UNL     1       1.385   4.210  19.127  0.00  0.00    +0.000 C 
ATOM     13  C   UNL     1       2.092   4.679  17.862  0.00  0.00    +0.000 C 
ENDBRANCH   5   8
ENDBRANCH   1   2
BRANCH   1  16
ATOM     14  C   UNL     1       8.882  10.019  18.760  0.00  0.00    +0.000 A 
ATOM     15  N   UNL     1       8.930   8.730  19.031  0.00  0.00    +0.000 NA
ATOM     16  C   UNL     1       8.045   8.154  18.145  0.00  0.00    +0.000 A 
ATOM     17  C   UNL     1       7.544   9.130  17.313  0.00  0.00    +0.000 A 
ATOM     18  O   UNL     1       8.067  10.330  17.698  0.00  0.00    +0.000 OA
BRANCH  14  25
ATOM     19  C   UNL     1      11.116  11.654  17.590  0.00  0.00    +0.000 C 
ATOM     20  C   UNL     1      10.555  11.891  18.968  0.00  0.00    +0.000 A 
ATOM     21  C   UNL     1      11.182  12.858  19.774  0.00  0.00    +0.000 A 
ATOM     22  C   UNL     1      10.754  13.093  21.078  0.00  0.00    +0.000 A 
ATOM     23  C   UNL     1       9.684  12.370  21.594  0.00  0.00    +0.000 A 
ATOM     24  C   UNL     1       9.048  11.407  20.805  0.00  0.00    +0.000 A 
ATOM     25  C   UNL     1       9.478  11.134  19.499  0.00  0.00    +0.000 A 
ENDBRANCH  14  25
ENDBRANCH   1  16
TORSDOF 4
ENDMDL
MODEL 3
REMARK VINA RESULT:      -8.2      5.194      7.134
REMARK  Name = 
REMARK  5 active torsions:
REMARK  status: ('A' for Active; 'I' for Inactive)
REMARK    1  A    between atoms: C_1  and  C_2
REMARK    2  A    between atoms: C_7  and  C_8
REMARK    3  A    between atoms: C_10  and  C_11
REMARK    4  A    between atoms: C_11  and  N_12
REMARK    5  A    between atoms: N_15  and  C_16
REMARK                            x       y       z     vdW  Elec       q    Type
REMARK                         _______ _______ _______ _____ _____    ______ ____
ROOT
ATOM      1  C   UNL     1       1.226   6.942  20.663  0.00  0.00    +0.000 C 
ENDROOT
BRANCH   1   2
ATOM      2  N   UNL     1       1.753   8.313  20.722  0.00  0.00    +0.000 NA
ATOM      3  C   UNL     1       1.164   9.200  19.697  0.00  0.00    +0.000 C 
ATOM      4  C   UNL     1      -0.287   9.702  19.944  0.00  0.00    +0.000 C 
ATOM      5  N   UNL     1      -0.630  10.137  21.301  0.00  0.00    +0.000 NA
ATOM      6  C   UNL     1      -0.005   9.270  22.312  0.00  0.00    +0.000 C 
ATOM      7  C   UNL     1       1.476   8.904  22.050  0.00  0.00    +0.000 C 
BRANCH   5   8
ATOM      8  C   UNL     1      -0.655  11.569  21.651  0.00  0.00    +0.000 C 
ATOM      9  C   UNL     1      -1.229  12.562  20.634  0.00  0.00    +0.000 C 
ATOM     10  C   UNL     1      -2.749  12.646  20.607  0.00  0.00    +0.000 C 
ATOM     11  C   UNL     1      -3.390  12.803  21.982  0.00  0.00    +0.000 C 
ATOM     12  C   UNL     1      -2.781  11.954  23.093  0.00  0.00    +0.000 C 
ATOM     13  C   UNL     1      -1.261  11.857  23.042  0.00  0.00    +0.000 C 
ENDBRANCH   5   8
ENDBRANCH   1   2
BRANCH   1  16
ATOM     14  C   UNL     1       3.782   5.028  19.117  0.00  0.00    +0.000 A 
ATOM     15  N   UNL     1       3.169   6.178  19.320  0.00  0.00    +0.000 NA
ATOM     16  C   UNL     1       2.257   5.916  20.320  0.00  0.00    +0.000 A 
ATOM     17  C   UNL     1       2.410   4.612  20.736  0.00  0.00    +0.000 A 
ATOM     18  O   UNL     1       3.379   4.030  19.972  0.00  0.00    +0.000 OA
BRANCH  14  25
ATOM     19  C   UNL     1       6.741   5.449  19.436  0.00  0.00    +0.000 C 
ATOM     20  C   UNL     1       6.117   4.890  18.183  0.00  0.00    +0.000 A 
ATOM     21  C   UNL     1       6.959   4.655  17.081  0.00  0.00    +0.000 A 
ATOM     22  C   UNL     1       6.445   4.190  15.873  0.00  0.00    +0.000 A 
ATOM     23  C   UNL     1       5.082   3.946  15.749  0.00  0.00    +0.000 A 
ATOM     24  C   UNL     1       4.233   4.174  16.836  0.00  0.00    +0.000 A 
ATOM     25  C   UNL     1       4.721   4.665  18.055  0.00  0.00    +0.000 A 
ENDBRANCH  14  25
ENDBRANCH   1  16
TORSDOF 4
ENDMDL
MODEL 4
REMARK VINA RESULT:      -8.2      4.213      8.001
REMARK  Name = 
REMARK  5 active torsions:
REMARK  status: ('A' for Active; 'I' for Inactive)
REMARK    1  A    between atoms: C_1  and  C_2
REMARK    2  A    between atoms: C_7  and  C_8
REMARK    3  A    between atoms: C_10  and  C_11
REMARK    4  A    between atoms: C_11  and  N_12
REMARK    5  A    between atoms: N_15  and  C_16
REMARK                            x       y       z     vdW  Elec       q    Type
REMARK                         _______ _______ _______ _____ _____    ______ ____
ROOT
ATOM      1  C   UNL     1       3.441   7.538  17.853  0.00  0.00    +0.000 C 
ENDROOT
BRANCH   1   2
ATOM      2  N   UNL     1       2.950   6.184  17.556  0.00  0.00    +0.000 NA
ATOM      3  C   UNL     1       4.037   5.233  17.248  0.00  0.00    +0.000 C 
ATOM      4  C   UNL     1       4.881   4.710  18.445  0.00  0.00    +0.000 C 
ATOM      5  N   UNL     1       4.163   4.336  19.667  0.00  0.00    +0.000 NA
ATOM      6  C   UNL     1       3.057   5.267  19.941  0.00  0.00    +0.000 C 
ATOM      7  C   UNL     1       2.195   5.655  18.714  0.00  0.00    +0.000 C 
BRANCH   5   8
ATOM      8  C   UNL     1       3.862   2.924  19.964  0.00  0.00    +0.000 C 
ATOM      9  C   UNL     1       2.801   2.609  21.026  0.00  0.00    +0.000 C 
ATOM     10  C   UNL     1       1.360   2.710  20.543  0.00  0.00    +0.000 C 
ATOM     11  C   UNL     1       1.089   1.980  19.232  0.00  0.00    +0.000 C 
ATOM     12  C   UNL     1       2.170   2.119  18.165  0.00  0.00    +0.000 C 
ATOM     13  C   UNL     1       3.593   2.068  18.707  0.00  0.00    +0.000 C 
ENDBRANCH   5   8
ENDBRANCH   1   2
BRANCH   1  16
ATOM     14  C   UNL     1       1.042   9.461  19.622  0.00  0.00    +0.000 A 
ATOM     15  N   UNL     1       2.168   8.777  19.588  0.00  0.00    +0.000 NA
ATOM     16  C   UNL     1       2.364   8.494  18.253  0.00  0.00    +0.000 A 
ATOM     17  C   UNL     1       1.365   9.092  17.516  0.00  0.00    +0.000 A 
ATOM     18  O   UNL     1       0.509   9.710  18.380  0.00  0.00    +0.000 OA
BRANCH  14  25
ATOM     19  C   UNL     1       0.175  12.315  19.994  0.00  0.00    +0.000 C 
ATOM     20  C   UNL     1      -0.131  11.223  20.987  0.00  0.00    +0.000 A 
ATOM     21  C   UNL     1      -0.763  11.590  22.189  0.00  0.00    +0.000 A 
ATOM     22  C   UNL     1      -1.029  10.645  23.177  0.00  0.00    +0.000 A 
ATOM     23  C   UNL     1      -0.673   9.316  22.975  0.00  0.00    +0.000 A 
ATOM     24  C   UNL     1      -0.046   8.935  21.785  0.00  0.00    +0.000 A 
ATOM     25  C   UNL     1       0.255   9.872  20.786  0.00  0.00    +0.000 A 
ENDBRANCH  14  25
ENDBRANCH   1  16
TORSDOF 4
ENDMDL
MODEL 5
REMARK VINA RESULT:      -8.1      5.413      7.458
REMARK  Name = 
REMARK  5 active torsions:
REMARK  status: ('A' for Active; 'I' for Inactive)
REMARK    1  A    between atoms: C_1  and  C_2
REMARK    2  A    between atoms: C_7  and  C_8
REMARK    3  A    between atoms: C_10  and  C_11
REMARK    4  A    between atoms: C_11  and  N_12
REMARK    5  A    between atoms: N_15  and  C_16
REMARK                            x       y       z     vdW  Elec       q    Type
REMARK                         _______ _______ _______ _____ _____    ______ ____
ROOT
ATOM      1  C   UNL     1       1.069   7.207  20.853  0.00  0.00    +0.000 C 
ENDROOT
BRANCH   1   2
ATOM      2  N   UNL     1       1.575   8.585  20.918  0.00  0.00    +0.000 NA
ATOM      3  C   UNL     1       1.042   9.445  19.841  0.00  0.00    +0.000 C 
ATOM      4  C   UNL     1      -0.427   9.934  19.987  0.00  0.00    +0.000 C 
ATOM      5  N   UNL     1      -0.859  10.391  21.311  0.00  0.00    +0.000 NA
ATOM      6  C   UNL     1      -0.289   9.551  22.376  0.00  0.00    +0.000 C 
ATOM      7  C   UNL     1       1.210   9.198  22.214  0.00  0.00    +0.000 C 
BRANCH   5   8
ATOM      8  C   UNL     1      -0.921  11.828  21.631  0.00  0.00    +0.000 C 
ATOM      9  C   UNL     1      -1.662  12.762  20.666  0.00  0.00    +0.000 C 
ATOM     10  C   UNL     1      -3.178  12.766  20.815  0.00  0.00    +0.000 C 
ATOM     11  C   UNL     1      -3.664  12.928  22.251  0.00  0.00    +0.000 C 
ATOM     12  C   UNL     1      -2.885  12.143  23.302  0.00  0.00    +0.000 C 
ATOM     13  C   UNL     1      -1.378  12.123  23.077  0.00  0.00    +0.000 C 
ENDBRANCH   5   8
ENDBRANCH   1   2
BRANCH   1  16
ATOM     14  C   UNL     1       3.672   5.375  19.287  0.00  0.00    +0.000 A 
ATOM     15  N   UNL     1       3.052   6.513  19.531  0.00  0.00    +0.000 NA
ATOM     16  C   UNL     1       2.110   6.199  20.487  0.00  0.00    +0.000 A 
ATOM     17  C   UNL     1       2.252   4.875  20.839  0.00  0.00    +0.000 A 
ATOM     18  O   UNL     1       3.244   4.334  20.075  0.00  0.00    +0.000 OA
BRANCH  14  25
ATOM     19  C   UNL     1       2.944   3.639  16.944  0.00  0.00    +0.000 C 
ATOM     20  C   UNL     1       4.318   4.223  17.143  0.00  0.00    +0.000 A 
ATOM     21  C   UNL     1       5.327   3.846  16.237  0.00  0.00    +0.000 A 
ATOM     22  C   UNL     1       6.634   4.302  16.389  0.00  0.00    +0.000 A 
ATOM     23  C   UNL     1       6.952   5.149  17.446  0.00  0.00    +0.000 A 
ATOM     24  C   UNL     1       5.961   5.534  18.353  0.00  0.00    +0.000 A 
ATOM     25  C   UNL     1       4.643   5.068  18.236  0.00  0.00    +0.000 A 
ENDBRANCH  14  25
ENDBRANCH   1  16
TORSDOF 4
ENDMDL
MODEL 6
REMARK VINA RESULT:      -8.0      0.803      1.519
REMARK  Name = 
REMARK  5 active torsions:
REMARK  status: ('A' for Active; 'I' for Inactive)
REMARK    1  A    between atoms: C_1  and  C_2
REMARK    2  A    between atoms: C_7  and  C_8
REMARK    3  A    between atoms: C_10  and  C_11
REMARK    4  A    between atoms: C_11  and  N_12
REMARK    5  A    between atoms: N_15  and  C_16
REMARK                            x       y       z     vdW  Elec       q    Type
REMARK                         _______ _______ _______ _____ _____    ______ ____
ROOT
ATOM      1  C   UNL     1       4.931   6.837  17.625  0.00  0.00    +0.000 C 
ENDROOT
BRANCH   1   2
ATOM      2  N   UNL     1       3.665   6.106  17.784  0.00  0.00    +0.000 NA
ATOM      3  C   UNL     1       3.689   4.772  17.152  0.00  0.00    +0.000 C 
ATOM      4  C   UNL     1       4.476   3.652  17.891  0.00  0.00    +0.000 C 
ATOM      5  N   UNL     1       4.318   3.561  19.345  0.00  0.00    +0.000 NA
ATOM      6  C   UNL     1       4.256   4.898  19.958  0.00  0.00    +0.000 C 
ATOM      7  C   UNL     1       3.363   5.926  19.222  0.00  0.00    +0.000 C 
BRANCH   5   8
ATOM      8  C   UNL     1       3.409   2.569  19.947  0.00  0.00    +0.000 C 
ATOM      9  C   UNL     1       2.628   2.960  21.207  0.00  0.00    +0.000 C 
ATOM     10  C   UNL     1       1.382   3.799  20.954  0.00  0.00    +0.000 C 
ATOM     11  C   UNL     1       0.468   3.248  19.865  0.00  0.00    +0.000 C 
ATOM     12  C   UNL     1       1.174   2.698  18.629  0.00  0.00    +0.000 C 
ATOM     13  C   UNL     1       2.445   1.915  18.933  0.00  0.00    +0.000 C 
ENDBRANCH   5   8
ENDBRANCH   1   2
BRANCH   1  16
ATOM     14  C   UNL     1       6.544   5.112  14.978  0.00  0.00    +0.000 A 
ATOM     15  N   UNL     1       5.583   5.898  15.421  0.00  0.00    +0.000 NA
ATOM     16  C   UNL     1       5.915   6.149  16.735  0.00  0.00    +0.000 A 
ATOM     17  C   UNL     1       7.124   5.551  17.014  0.00  0.00    +0.000 A 
ATOM     18  O   UNL     1       7.535   4.879  15.900  0.00  0.00    +0.000 OA
BRANCH  14  25
ATOM     19  C   UNL     1       8.499   5.912  12.841  0.00  0.00    +0.000 C 
ATOM     20  C   UNL     1       7.520   4.778  12.680  0.00  0.00    +0.000 A 
ATOM     21  C   UNL     1       7.458   4.138  11.429  0.00  0.00    +0.000 A 
ATOM     22  C   UNL     1       6.540   3.119  11.190  0.00  0.00    +0.000 A 
ATOM     23  C   UNL     1       5.674   2.717  12.201  0.00  0.00    +0.000 A 
ATOM     24  C   UNL     1       5.725   3.342  13.450  0.00  0.00    +0.000 A 
ATOM     25  C   UNL     1       6.622   4.388  13.708  0.00  0.00    +0.000 A 
ENDBRANCH  14  25
ENDBRANCH   1  16
TORSDOF 4
ENDMDL
MODEL 7
REMARK VINA RESULT:      -7.8      6.534      8.450
REMARK  Name = 
REMARK  5 active torsions:
REMARK  status: ('A' for Active; 'I' for Inactive)
REMARK    1  A    between atoms: C_1  and  C_2
REMARK    2  A    between atoms: C_7  and  C_8
REMARK    3  A    between atoms: C_10  and  C_11
REMARK    4  A    between atoms: C_11  and  N_12
REMARK    5  A    between atoms: N_15  and  C_16
REMARK                            x       y       z     vdW  Elec       q    Type
REMARK                         _______ _______ _______ _____ _____    ______ ____
ROOT
ATOM      1  C   UNL     1       0.484   9.890  18.765  0.00  0.00    +0.000 C 
ENDROOT
BRANCH   1   2
ATOM      2  N   UNL     1       0.847  11.163  19.405  0.00  0.00    +0.000 NA
ATOM      3  C   UNL     1       0.054  12.304  18.905  0.00  0.00    +0.000 C 
ATOM      4  C   UNL     1      -1.413  12.421  19.410  0.00  0.00    +0.000 C 
ATOM      5  N   UNL     1      -1.661  12.168  20.832  0.00  0.00    +0.000 NA
ATOM      6  C   UNL     1      -0.835  11.055  21.326  0.00  0.00    +0.000 C 
ATOM      7  C   UNL     1       0.643  11.070  20.867  0.00  0.00    +0.000 C 
BRANCH   5   8
ATOM      8  C   UNL     1      -1.819  13.283  21.782  0.00  0.00    +0.000 C 
ATOM      9  C   UNL     1      -2.852  14.373  21.468  0.00  0.00    +0.000 C 
ATOM     10  C   UNL     1      -4.290  14.010  21.811  0.00  0.00    +0.000 C 
ATOM     11  C   UNL     1      -4.473  13.438  23.213  0.00  0.00    +0.000 C 
ATOM     12  C   UNL     1      -3.402  12.451  23.666  0.00  0.00    +0.000 C 
ATOM     13  C   UNL     1      -1.987  12.830  23.249  0.00  0.00    +0.000 C 
ENDBRANCH   5   8
ENDBRANCH   1   2
BRANCH   1  16
ATOM     14  C   UNL     1       2.820   7.249  18.377  0.00  0.00    +0.000 A 
ATOM     15  N   UNL     1       2.202   8.315  17.909  0.00  0.00    +0.000 NA
ATOM     16  C   UNL     1       1.485   8.801  18.981  0.00  0.00    +0.000 A 
ATOM     17  C   UNL     1       1.761   8.033  20.091  0.00  0.00    +0.000 A 
ATOM     18  O   UNL     1       2.611   7.033  19.717  0.00  0.00    +0.000 OA
BRANCH  14  25
ATOM     19  C   UNL     1       1.778   4.450  18.044  0.00  0.00    +0.000 C 
ATOM     20  C   UNL     1       3.112   4.903  17.508  0.00  0.00    +0.000 A 
ATOM     21  C   UNL     1       3.944   3.935  16.917  0.00  0.00    +0.000 A 
ATOM     22  C   UNL     1       5.212   4.268  16.449  0.00  0.00    +0.000 A 
ATOM     23  C   UNL     1       5.667   5.578  16.558  0.00  0.00    +0.000 A 
ATOM     24  C   UNL     1       4.851   6.552  17.141  0.00  0.00    +0.000 A 
ATOM     25  C   UNL     1       3.580   6.236  17.643  0.00  0.00    +0.000 A 
ENDBRANCH  14  25
ENDBRANCH   1  16
TORSDOF 4
ENDMDL
MODEL 8
REMARK VINA RESULT:      -7.7      4.430      6.461
REMARK  Name = 
REMARK  5 active torsions:
REMARK  status: ('A' for Active; 'I' for Inactive)
REMARK    1  A    between atoms: C_1  and  C_2
REMARK    2  A    between atoms: C_7  and  C_8
REMARK    3  A    between atoms: C_10  and  C_11
REMARK    4  A    between atoms: C_11  and  N_12
REMARK    5  A    between atoms: N_15  and  C_16
REMARK                            x       y       z     vdW  Elec       q    Type
REMARK                         _______ _______ _______ _____ _____    ______ ____
ROOT
ATOM      1  C   UNL     1       6.674   7.390  16.975  0.00  0.00    +0.000 C 
ENDROOT
BRANCH   1   2
ATOM      2  N   UNL     1       6.856   5.931  16.974  0.00  0.00    +0.000 NA
ATOM      3  C   UNL     1       6.863   5.352  18.333  0.00  0.00    +0.000 C 
ATOM      4  C   UNL     1       5.492   5.222  19.055  0.00  0.00    +0.000 C 
ATOM      5  N   UNL     1       4.354   4.741  18.265  0.00  0.00    +0.000 NA
ATOM      6  C   UNL     1       4.381   5.293  16.902  0.00  0.00    +0.000 C 
ATOM      7  C   UNL     1       5.765   5.286  16.209  0.00  0.00    +0.000 C 
BRANCH   5   8
ATOM      8  C   UNL     1       3.918   3.336  18.349  0.00  0.00    +0.000 C 
ATOM      9  C   UNL     1       3.856   2.668  19.728  0.00  0.00    +0.000 C 
ATOM     10  C   UNL     1       2.614   2.998  20.545  0.00  0.00    +0.000 C 
ATOM     11  C   UNL     1       1.304   2.845  19.779  0.00  0.00    +0.000 C 
ATOM     12  C   UNL     1       1.320   3.353  18.340  0.00  0.00    +0.000 C 
ATOM     13  C   UNL     1       2.607   3.047  17.584  0.00  0.00    +0.000 C 
ENDBRANCH   5   8
ENDBRANCH   1   2
BRANCH   1  16
ATOM     14  C   UNL     1       8.828   9.749  18.516  0.00  0.00    +0.000 A 
ATOM     15  N   UNL     1       7.820   9.464  17.717  0.00  0.00    +0.000 NA
ATOM     16  C   UNL     1       7.608   8.112  17.890  0.00  0.00    +0.000 A 
ATOM     17  C   UNL     1       8.468   7.645  18.859  0.00  0.00    +0.000 A 
ATOM     18  O   UNL     1       9.258   8.681  19.266  0.00  0.00    +0.000 OA
BRANCH  14  25
ATOM     19  C   UNL     1       9.044  11.251  21.111  0.00  0.00    +0.000 C 
ATOM     20  C   UNL     1       9.676  11.725  19.828  0.00  0.00    +0.000 A 
ATOM     21  C   UNL     1      10.307  12.982  19.834  0.00  0.00    +0.000 A 
ATOM     22  C   UNL     1      10.866  13.510  18.673  0.00  0.00    +0.000 A 
ATOM     23  C   UNL     1      10.810  12.785  17.488  0.00  0.00    +0.000 A 
ATOM     24  C   UNL     1      10.188  11.534  17.465  0.00  0.00    +0.000 A 
ATOM     25  C   UNL     1       9.595  10.992  18.615  0.00  0.00    +0.000 A 
ENDBRANCH  14  25
ENDBRANCH   1  16
TORSDOF 4
ENDMDL
MODEL 9
REMARK VINA RESULT:      -7.7      4.557      8.355
REMARK  Name = 
REMARK  5 active torsions:
REMARK  status: ('A' for Active; 'I' for Inactive)
REMARK    1  A    between atoms: C_1  and  C_2
REMARK    2  A    between atoms: C_7  and  C_8
REMARK    3  A    between atoms: C_10  and  C_11
REMARK    4  A    between atoms: C_11  and  N_12
REMARK    5  A    between atoms: N_15  and  C_16
REMARK                            x       y       z     vdW  Elec       q    Type
REMARK                         _______ _______ _______ _____ _____    ______ ____
ROOT
ATOM      1  C   UNL     1       3.053   7.901  18.120  0.00  0.00    +0.000 C 
ENDROOT
BRANCH   1   2
ATOM      2  N   UNL     1       2.615   6.546  17.755  0.00  0.00    +0.000 NA
ATOM      3  C   UNL     1       3.735   5.666  17.363  0.00  0.00    +0.000 C 
ATOM      4  C   UNL     1       4.635   5.113  18.504  0.00  0.00    +0.000 C 
ATOM      5  N   UNL     1       3.968   4.635  19.719  0.00  0.00    +0.000 NA
ATOM      6  C   UNL     1       2.830   5.497  20.076  0.00  0.00    +0.000 C 
ATOM      7  C   UNL     1       1.918   5.916  18.898  0.00  0.00    +0.000 C 
BRANCH   5   8
ATOM      8  C   UNL     1       3.739   3.195  19.938  0.00  0.00    +0.000 C 
ATOM      9  C   UNL     1       2.646   2.770  20.927  0.00  0.00    +0.000 C 
ATOM     10  C   UNL     1       1.229   2.809  20.371  0.00  0.00    +0.000 C 
ATOM     11  C   UNL     1       1.070   2.126  19.017  0.00  0.00    +0.000 C 
ATOM     12  C   UNL     1       2.194   2.378  18.017  0.00  0.00    +0.000 C 
ATOM     13  C   UNL     1       3.588   2.385  18.632  0.00  0.00    +0.000 C 
ENDBRANCH   5   8
ENDBRANCH   1   2
BRANCH   1  16
ATOM     14  C   UNL     1       0.619  10.022  19.588  0.00  0.00    +0.000 A 
ATOM     15  N   UNL     1       1.795   9.428  19.620  0.00  0.00    +0.000 NA
ATOM     16  C   UNL     1       1.927   8.850  18.375  0.00  0.00    +0.000 A 
ATOM     17  C   UNL     1       0.835   9.186  17.606  0.00  0.00    +0.000 A 
ATOM     18  O   UNL     1      -0.013   9.932  18.372  0.00  0.00    +0.000 OA
BRANCH  14  25
ATOM     19  C   UNL     1       0.831   8.987  22.402  0.00  0.00    +0.000 C 
ATOM     20  C   UNL     1      -0.054  10.143  22.013  0.00  0.00    +0.000 A 
ATOM     21  C   UNL     1      -0.893  10.687  23.002  0.00  0.00    +0.000 A 
ATOM     22  C   UNL     1      -1.778  11.720  22.702  0.00  0.00    +0.000 A 
ATOM     23  C   UNL     1      -1.833  12.231  21.410  0.00  0.00    +0.000 A 
ATOM     24  C   UNL     1      -1.004  11.702  20.417  0.00  0.00    +0.000 A 
ATOM     25  C   UNL     1      -0.123  10.644  20.687  0.00  0.00    +0.000 A 
ENDBRANCH  14  25
ENDBRANCH   1  16
TORSDOF 4
ENDMDL
