MODEL 1
REMARK VINA RESULT:      -8.7      0.000      0.000
REMARK  Name = 
REMARK  11 active torsions:
REMARK  status: ('A' for Active; 'I' for Inactive)
REMARK    1  A    between atoms: C_1  and  C_2
REMARK    2  A    between atoms: C_2  and  C_3
REMARK    3  A    between atoms: C_4  and  C_5
REMARK    4  A    between atoms: C_5  and  C_6
REMARK    5  A    between atoms: C_6  and  C_7
REMARK    6  A    between atoms: C_7  and  C_8
REMARK    7  A    between atoms: C_9  and  C_10
REMARK    8  A    between atoms: C_10  and  C_11
REMARK    9  A    between atoms: C_12  and  O_13
REMARK   10  A    between atoms: C_14  and  C_15
REMARK   11  A    between atoms: C_22  and  O_23
REMARK                            x       y       z     vdW  Elec       q    Type
REMARK                         _______ _______ _______ _____ _____    ______ ____
ROOT
ATOM      1  C   UNL     1       2.465   5.402  19.227  0.00  0.00    +0.000 A 
ATOM      2  C   UNL     1       1.544   4.334  19.366  0.00  0.00    +0.000 A 
ATOM      3  C   UNL     1       1.597   3.181  18.573  0.00  0.00    +0.000 A 
ATOM      4  C   UNL     1       0.640   2.035  18.754  0.00  0.00    +0.000 C 
ATOM      5  C   UNL     1       2.588   3.071  17.584  0.00  0.00    +0.000 A 
ATOM      6  C   UNL     1       3.512   4.114  17.387  0.00  0.00    +0.000 A 
ATOM      7  C   UNL     1       3.423   5.246  18.197  0.00  0.00    +0.000 A 
ATOM      8  N   UNL     1       4.433   6.093  17.786  0.00  0.00    +0.000 N 
ATOM      9  C   UNL     1       5.184   5.537  16.780  0.00  0.00    +0.000 A 
ATOM     10  C   UNL     1       6.307   6.042  16.111  0.00  0.00    +0.000 A 
ATOM     11  C   UNL     1       6.871   5.230  15.125  0.00  0.00    +0.000 A 
ATOM     12  C   UNL     1       6.347   3.981  14.817  0.00  0.00    +0.000 A 
ATOM     13  C   UNL     1       5.223   3.500  15.498  0.00  0.00    +0.000 A 
ATOM     14  C   UNL     1       4.627   4.292  16.503  0.00  0.00    +0.000 A 
ATOM     15  H   UNL     1       4.617   6.997  18.191  0.00  0.00    +0.000 HD
ENDROOT
BRANCH   2  16
ATOM     16  O   UNL     1       0.544   4.377  20.306  0.00  0.00    +0.000 OA
ATOM     17  H   UNL     1       0.540   5.241  20.740  0.00  0.00    +0.000 HD
ENDBRANCH   2  16
BRANCH  11  18
ATOM     18  O   UNL     1       7.972   5.640  14.427  0.00  0.00    +0.000 OA
ATOM     19  H   UNL     1       7.746   6.444  13.939  0.00  0.00    +0.000 HD
ENDBRANCH  11  18
BRANCH   1  20
ATOM     20  C   UNL     1       2.475   6.597  20.157  0.00  0.00    +0.000 C 
BRANCH  20  23
ATOM     21  C   UNL     1       1.177   8.786  19.921  0.00  0.00    +0.000 C 
ATOM     22  C   UNL     1       0.519   8.629  21.265  0.00  0.00    +0.000 C 
ATOM     23  C   UNL     1       2.053   7.866  19.461  0.00  0.00    +0.000 C 
BRANCH  21  24
ATOM     24  C   UNL     1       0.819   9.959  19.018  0.00  0.00    +0.000 C 
BRANCH  24  25
ATOM     25  C   UNL     1      -0.673  10.277  18.885  0.00  0.00    +0.000 C 
BRANCH  25  29
ATOM     26  C   UNL     1      -2.947   9.856  15.750  0.00  0.00    +0.000 C 
ATOM     27  C   UNL     1      -2.476  10.285  17.110  0.00  0.00    +0.000 C 
ATOM     28  C   UNL     1      -3.447  11.044  17.972  0.00  0.00    +0.000 C 
ATOM     29  C   UNL     1      -1.226   9.992  17.516  0.00  0.00    +0.000 C 
ENDBRANCH  25  29
ENDBRANCH  24  25
ENDBRANCH  21  24
ENDBRANCH  20  23
ENDBRANCH   1  20
TORSDOF 7
ENDMDL
MODEL 2
REMARK VINA RESULT:      -8.6      2.700      7.388
REMARK  Name = 
REMARK  11 active torsions:
REMARK  status: ('A' for Active; 'I' for Inactive)
REMARK    1  A    between atoms: C_1  and  C_2
REMARK    2  A    between atoms: C_2  and  C_3
REMARK    3  A    between atoms: C_4  and  C_5
REMARK    4  A    between atoms: C_5  and  C_6
REMARK    5  A    between atoms: C_6  and  C_7
REMARK    6  A    between atoms: C_7  and  C_8
REMARK    7  A    between atoms: C_9  and  C_10
REMARK    8  A    between atoms: C_10  and  C_11
REMARK    9  A    between atoms: C_12  and  O_13
REMARK   10  A    between atoms: C_14  and  C_15
REMARK   11  A    between atoms: C_22  and  O_23
REMARK                            x       y       z     vdW  Elec       q    Type
REMARK                         _______ _______ _______ _____ _____    ______ ____
ROOT
ATOM      1  C   UNL     1       2.775   4.452  18.465  0.00  0.00    +0.000 A 
ATOM      2  C   UNL     1       2.740   3.445  19.462  0.00  0.00    +0.000 A 
ATOM      3  C   UNL     1       2.325   3.695  20.776  0.00  0.00    +0.000 A 
ATOM      4  C   UNL     1       2.253   2.611  21.816  0.00  0.00    +0.000 C 
ATOM      5  C   UNL     1       1.942   4.995  21.141  0.00  0.00    +0.000 A 
ATOM      6  C   UNL     1       1.982   6.038  20.196  0.00  0.00    +0.000 A 
ATOM      7  C   UNL     1       2.403   5.747  18.899  0.00  0.00    +0.000 A 
ATOM      8  N   UNL     1       2.350   6.937  18.202  0.00  0.00    +0.000 N 
ATOM      9  C   UNL     1       1.878   7.963  18.983  0.00  0.00    +0.000 A 
ATOM     10  C   UNL     1       1.641   9.306  18.660  0.00  0.00    +0.000 A 
ATOM     11  C   UNL     1       1.142  10.121  19.678  0.00  0.00    +0.000 A 
ATOM     12  C   UNL     1       0.891   9.630  20.952  0.00  0.00    +0.000 A 
ATOM     13  C   UNL     1       1.138   8.284  21.252  0.00  0.00    +0.000 A 
ATOM     14  C   UNL     1       1.640   7.430  20.247  0.00  0.00    +0.000 A 
ATOM     15  H   UNL     1       2.599   7.039  17.231  0.00  0.00    +0.000 HD
ENDROOT
BRANCH   2  16
ATOM     16  O   UNL     1       3.110   2.154  19.179  0.00  0.00    +0.000 OA
ATOM     17  H   UNL     1       3.060   2.000  18.225  0.00  0.00    +0.000 HD
ENDBRANCH   2  16
BRANCH  11  18
ATOM     18  O   UNL     1       0.876  11.441  19.448  0.00  0.00    +0.000 OA
ATOM     19  H   UNL     1       1.695  11.879  19.179  0.00  0.00    +0.000 HD
ENDBRANCH  11  18
BRANCH   1  20
ATOM     20  C   UNL     1       3.118   4.159  17.020  0.00  0.00    +0.000 C 
BRANCH  20  23
ATOM     21  C   UNL     1       5.408   5.105  16.393  0.00  0.00    +0.000 C 
ATOM     22  C   UNL     1       4.858   6.485  16.158  0.00  0.00    +0.000 C 
ATOM     23  C   UNL     1       4.606   4.092  16.787  0.00  0.00    +0.000 C 
BRANCH  21  24
ATOM     24  C   UNL     1       6.877   4.803  16.129  0.00  0.00    +0.000 C 
BRANCH  24  25
ATOM     25  C   UNL     1       7.266   4.577  14.665  0.00  0.00    +0.000 C 
BRANCH  25  29
ATOM     26  C   UNL     1       5.040   3.077  11.842  0.00  0.00    +0.000 C 
ATOM     27  C   UNL     1       6.200   3.740  12.529  0.00  0.00    +0.000 C 
ATOM     28  C   UNL     1       7.316   4.255  11.663  0.00  0.00    +0.000 C 
ATOM     29  C   UNL     1       6.216   3.850  13.871  0.00  0.00    +0.000 C 
ENDBRANCH  25  29
ENDBRANCH  24  25
ENDBRANCH  21  24
ENDBRANCH  20  23
ENDBRANCH   1  20
TORSDOF 7
ENDMDL
MODEL 3
REMARK VINA RESULT:      -8.3      4.211      7.931
REMARK  Name = 
REMARK  11 active torsions:
REMARK  status: ('A' for Active; 'I' for Inactive)
REMARK    1  A    between atoms: C_1  and  C_2
REMARK    2  A    between atoms: C_2  and  C_3
REMARK    3  A    between atoms: C_4  and  C_5
REMARK    4  A    between atoms: C_5  and  C_6
REMARK    5  A    between atoms: C_6  and  C_7
REMARK    6  A    between atoms: C_7  and  C_8
REMARK    7  A    between atoms: C_9  and  C_10
REMARK    8  A    between atoms: C_10  and  C_11
REMARK    9  A    between atoms: C_12  and  O_13
REMARK   10  A    between atoms: C_14  and  C_15
REMARK   11  A    between atoms: C_22  and  O_23
REMARK                            x       y       z     vdW  Elec       q    Type
REMARK                         _______ _______ _______ _____ _____    ______ ____
ROOT
ATOM      1  C   UNL     1       5.525   5.659  16.532  0.00  0.00    +0.000 A 
ATOM      2  C   UNL     1       6.734   5.988  17.194  0.00  0.00    +0.000 A 
ATOM      3  C   UNL     1       6.953   5.718  18.551  0.00  0.00    +0.000 A 
ATOM      4  C   UNL     1       8.254   6.035  19.235  0.00  0.00    +0.000 C 
ATOM      5  C   UNL     1       5.934   5.113  19.305  0.00  0.00    +0.000 A 
ATOM      6  C   UNL     1       4.704   4.788  18.702  0.00  0.00    +0.000 A 
ATOM      7  C   UNL     1       4.527   5.075  17.349  0.00  0.00    +0.000 A 
ATOM      8  N   UNL     1       3.249   4.663  17.033  0.00  0.00    +0.000 N 
ATOM      9  C   UNL     1       2.618   4.092  18.110  0.00  0.00    +0.000 A 
ATOM     10  C   UNL     1       1.341   3.521  18.209  0.00  0.00    +0.000 A 
ATOM     11  C   UNL     1       0.976   3.005  19.453  0.00  0.00    +0.000 A 
ATOM     12  C   UNL     1       1.832   3.051  20.545  0.00  0.00    +0.000 A 
ATOM     13  C   UNL     1       3.102   3.628  20.423  0.00  0.00    +0.000 A 
ATOM     14  C   UNL     1       3.507   4.159  19.179  0.00  0.00    +0.000 A 
ATOM     15  H   UNL     1       2.835   4.743  16.117  0.00  0.00    +0.000 HD
ENDROOT
BRANCH   2  16
ATOM     16  O   UNL     1       7.770   6.589  16.522  0.00  0.00    +0.000 OA
ATOM     17  H   UNL     1       8.574   6.059  16.617  0.00  0.00    +0.000 HD
ENDBRANCH   2  16
BRANCH  11  18
ATOM     18  O   UNL     1      -0.248   2.424  19.636  0.00  0.00    +0.000 OA
ATOM     19  H   UNL     1      -0.439   1.860  18.874  0.00  0.00    +0.000 HD
ENDBRANCH  11  18
BRANCH   1  20
ATOM     20  C   UNL     1       5.332   5.849  15.043  0.00  0.00    +0.000 C 
BRANCH  20  23
ATOM     21  C   UNL     1       6.449   4.328  13.319  0.00  0.00    +0.000 C 
ATOM     22  C   UNL     1       7.453   5.378  12.931  0.00  0.00    +0.000 C 
ATOM     23  C   UNL     1       5.522   4.567  14.273  0.00  0.00    +0.000 C 
BRANCH  21  24
ATOM     24  C   UNL     1       6.414   2.987  12.597  0.00  0.00    +0.000 C 
BRANCH  24  25
ATOM     25  C   UNL     1       5.073   2.592  11.972  0.00  0.00    +0.000 C 
BRANCH  25  29
ATOM     26  C   UNL     1       2.928   4.633   9.441  0.00  0.00    +0.000 C 
ATOM     27  C   UNL     1       3.363   3.526  10.359  0.00  0.00    +0.000 C 
ATOM     28  C   UNL     1       2.503   2.293  10.415  0.00  0.00    +0.000 C 
ATOM     29  C   UNL     1       4.482   3.662  11.096  0.00  0.00    +0.000 C 
ENDBRANCH  25  29
ENDBRANCH  24  25
ENDBRANCH  21  24
ENDBRANCH  20  23
ENDBRANCH   1  20
TORSDOF 7
ENDMDL
MODEL 4
REMARK VINA RESULT:      -8.3      3.297      7.161
REMARK  Name = 
REMARK  11 active torsions:
REMARK  status: ('A' for Active; 'I' for Inactive)
REMARK    1  A    between atoms: C_1  and  C_2
REMARK    2  A    between atoms: C_2  and  C_3
REMARK    3  A    between atoms: C_4  and  C_5
REMARK    4  A    between atoms: C_5  and  C_6
REMARK    5  A    between atoms: C_6  and  C_7
REMARK    6  A    between atoms: C_7  and  C_8
REMARK    7  A    between atoms: C_9  and  C_10
REMARK    8  A    between atoms: C_10  and  C_11
REMARK    9  A    between atoms: C_12  and  O_13
REMARK   10  A    between atoms: C_14  and  C_15
REMARK   11  A    between atoms: C_22  and  O_23
REMARK                            x       y       z     vdW  Elec       q    Type
REMARK                         _______ _______ _______ _____ _____    ______ ____
ROOT
ATOM      1  C   UNL     1       3.885   4.996  18.626  0.00  0.00    +0.000 A 
ATOM      2  C   UNL     1       3.565   4.033  19.614  0.00  0.00    +0.000 A 
ATOM      3  C   UNL     1       2.622   4.267  20.623  0.00  0.00    +0.000 A 
ATOM      4  C   UNL     1       2.259   3.224  21.644  0.00  0.00    +0.000 C 
ATOM      5  C   UNL     1       1.970   5.510  20.680  0.00  0.00    +0.000 A 
ATOM      6  C   UNL     1       2.270   6.511  19.737  0.00  0.00    +0.000 A 
ATOM      7  C   UNL     1       3.216   6.237  18.751  0.00  0.00    +0.000 A 
ATOM      8  N   UNL     1       3.312   7.380  17.982  0.00  0.00    +0.000 N 
ATOM      9  C   UNL     1       2.443   8.353  18.409  0.00  0.00    +0.000 A 
ATOM     10  C   UNL     1       2.202   9.634  17.894  0.00  0.00    +0.000 A 
ATOM     11  C   UNL     1       1.237  10.404  18.546  0.00  0.00    +0.000 A 
ATOM     12  C   UNL     1       0.546   9.930  19.653  0.00  0.00    +0.000 A 
ATOM     13  C   UNL     1       0.807   8.647  20.151  0.00  0.00    +0.000 A 
ATOM     14  C   UNL     1       1.775   7.839  19.516  0.00  0.00    +0.000 A 
ATOM     15  H   UNL     1       3.923   7.481  17.187  0.00  0.00    +0.000 HD
ENDROOT
BRANCH   2  16
ATOM     16  O   UNL     1       4.169   2.799  19.626  0.00  0.00    +0.000 OA
ATOM     17  H   UNL     1       4.201   2.458  20.530  0.00  0.00    +0.000 HD
ENDBRANCH   2  16
BRANCH  11  18
ATOM     18  O   UNL     1       0.933  11.662  18.106  0.00  0.00    +0.000 OA
ATOM     19  H   UNL     1       1.390  12.304  18.667  0.00  0.00    +0.000 HD
ENDBRANCH  11  18
BRANCH   1  20
ATOM     20  C   UNL     1       4.821   4.702  17.473  0.00  0.00    +0.000 C 
BRANCH  20  23
ATOM     21  C   UNL     1       6.830   6.275  17.617  0.00  0.00    +0.000 C 
ATOM     22  C   UNL     1       7.488   5.460  18.697  0.00  0.00    +0.000 C 
ATOM     23  C   UNL     1       5.646   5.904  17.085  0.00  0.00    +0.000 C 
BRANCH  21  24
ATOM     24  C   UNL     1       7.459   7.579  17.143  0.00  0.00    +0.000 C 
BRANCH  24  25
ATOM     25  C   UNL     1       8.188   8.403  18.208  0.00  0.00    +0.000 C 
BRANCH  25  29
ATOM     26  C   UNL     1       9.277  12.138  18.008  0.00  0.00    +0.000 C 
ATOM     27  C   UNL     1       9.096  10.742  18.532  0.00  0.00    +0.000 C 
ATOM     28  C   UNL     1       9.592  10.455  19.922  0.00  0.00    +0.000 C 
ATOM     29  C   UNL     1       8.514   9.802  17.763  0.00  0.00    +0.000 C 
ENDBRANCH  25  29
ENDBRANCH  24  25
ENDBRANCH  21  24
ENDBRANCH  20  23
ENDBRANCH   1  20
TORSDOF 7
ENDMDL
MODEL 5
REMARK VINA RESULT:      -8.2      4.200      7.899
REMARK  Name = 
REMARK  11 active torsions:
REMARK  status: ('A' for Active; 'I' for Inactive)
REMARK    1  A    between atoms: C_1  and  C_2
REMARK    2  A    between atoms: C_2  and  C_3
REMARK    3  A    between atoms: C_4  and  C_5
REMARK    4  A    between atoms: C_5  and  C_6
REMARK    5  A    between atoms: C_6  and  C_7
REMARK    6  A    between atoms: C_7  and  C_8
REMARK    7  A    between atoms: C_9  and  C_10
REMARK    8  A    between atoms: C_10  and  C_11
REMARK    9  A    between atoms: C_12  and  O_13
REMARK   10  A    between atoms: C_14  and  C_15
REMARK   11  A    between atoms: C_22  and  O_23
REMARK                            x       y       z     vdW  Elec       q    Type
REMARK                         _______ _______ _______ _____ _____    ______ ____
ROOT
ATOM      1  C   UNL     1       6.566   5.666  17.268  0.00  0.00    +0.000 A 
ATOM      2  C   UNL     1       6.816   5.394  15.900  0.00  0.00    +0.000 A 
ATOM      3  C   UNL     1       5.948   4.633  15.108  0.00  0.00    +0.000 A 
ATOM      4  C   UNL     1       6.202   4.383  13.647  0.00  0.00    +0.000 C 
ATOM      5  C   UNL     1       4.786   4.094  15.684  0.00  0.00    +0.000 A 
ATOM      6  C   UNL     1       4.502   4.313  17.045  0.00  0.00    +0.000 A 
ATOM      7  C   UNL     1       5.394   5.076  17.798  0.00  0.00    +0.000 A 
ATOM      8  N   UNL     1       4.877   5.120  19.077  0.00  0.00    +0.000 N 
ATOM      9  C   UNL     1       3.679   4.455  19.164  0.00  0.00    +0.000 A 
ATOM     10  C   UNL     1       2.817   4.290  20.257  0.00  0.00    +0.000 A 
ATOM     11  C   UNL     1       1.649   3.560  20.034  0.00  0.00    +0.000 A 
ATOM     12  C   UNL     1       1.348   3.021  18.790  0.00  0.00    +0.000 A 
ATOM     13  C   UNL     1       2.226   3.197  17.714  0.00  0.00    +0.000 A 
ATOM     14  C   UNL     1       3.417   3.932  17.901  0.00  0.00    +0.000 A 
ATOM     15  H   UNL     1       5.308   5.604  19.849  0.00  0.00    +0.000 HD
ENDROOT
BRANCH   2  16
ATOM     16  O   UNL     1       7.937   5.880  15.273  0.00  0.00    +0.000 OA
ATOM     17  H   UNL     1       8.726   5.640  15.780  0.00  0.00    +0.000 HD
ENDBRANCH   2  16
BRANCH  11  18
ATOM     18  O   UNL     1       0.749   3.356  21.042  0.00  0.00    +0.000 OA
ATOM     19  H   UNL     1       0.112   2.687  20.757  0.00  0.00    +0.000 HD
ENDBRANCH  11  18
BRANCH   1  20
ATOM     20  C   UNL     1       7.447   6.580  18.093  0.00  0.00    +0.000 C 
BRANCH  20  23
ATOM     21  C   UNL     1       8.199   9.022  18.035  0.00  0.00    +0.000 C 
ATOM     22  C   UNL     1       9.041   8.871  19.273  0.00  0.00    +0.000 C 
ATOM     23  C   UNL     1       7.510   7.977  17.528  0.00  0.00    +0.000 C 
BRANCH  21  24
ATOM     24  C   UNL     1       8.057  10.379  17.358  0.00  0.00    +0.000 C 
BRANCH  24  25
ATOM     25  C   UNL     1       8.618  11.579  18.127  0.00  0.00    +0.000 C 
BRANCH  25  29
ATOM     26  C   UNL     1      12.006  13.180  17.063  0.00  0.00    +0.000 C 
ATOM     27  C   UNL     1      11.007  12.352  17.820  0.00  0.00    +0.000 C 
ATOM     28  C   UNL     1      11.498  11.612  19.034  0.00  0.00    +0.000 C 
ATOM     29  C   UNL     1       9.728  12.288  17.402  0.00  0.00    +0.000 C 
ENDBRANCH  25  29
ENDBRANCH  24  25
ENDBRANCH  21  24
ENDBRANCH  20  23
ENDBRANCH   1  20
TORSDOF 7
ENDMDL
MODEL 6
REMARK VINA RESULT:      -8.2      0.975      1.336
REMARK  Name = 
REMARK  11 active torsions:
REMARK  status: ('A' for Active; 'I' for Inactive)
REMARK    1  A    between atoms: C_1  and  C_2
REMARK    2  A    between atoms: C_2  and  C_3
REMARK    3  A    between atoms: C_4  and  C_5
REMARK    4  A    between atoms: C_5  and  C_6
REMARK    5  A    between atoms: C_6  and  C_7
REMARK    6  A    between atoms: C_7  and  C_8
REMARK    7  A    between atoms: C_9  and  C_10
REMARK    8  A    between atoms: C_10  and  C_11
REMARK    9  A    between atoms: C_12  and  O_13
REMARK   10  A    between atoms: C_14  and  C_15
REMARK   11  A    between atoms: C_22  and  O_23
REMARK                            x       y       z     vdW  Elec       q    Type
REMARK                         _______ _______ _______ _____ _____    ______ ____
ROOT
ATOM      1  C   UNL     1       2.407   5.327  19.250  0.00  0.00    +0.000 A 
ATOM      2  C   UNL     1       1.510   4.240  19.397  0.00  0.00    +0.000 A 
ATOM      3  C   UNL     1       1.598   3.075  18.625  0.00  0.00    +0.000 A 
ATOM      4  C   UNL     1       0.666   1.911  18.816  0.00  0.00    +0.000 C 
ATOM      5  C   UNL     1       2.602   2.972  17.648  0.00  0.00    +0.000 A 
ATOM      6  C   UNL     1       3.504   4.033  17.443  0.00  0.00    +0.000 A 
ATOM      7  C   UNL     1       3.380   5.175  18.233  0.00  0.00    +0.000 A 
ATOM      8  N   UNL     1       4.374   6.039  17.817  0.00  0.00    +0.000 N 
ATOM      9  C   UNL     1       5.149   5.484  16.829  0.00  0.00    +0.000 A 
ATOM     10  C   UNL     1       6.267   6.003  16.163  0.00  0.00    +0.000 A 
ATOM     11  C   UNL     1       6.860   5.188  15.197  0.00  0.00    +0.000 A 
ATOM     12  C   UNL     1       6.369   3.922  14.905  0.00  0.00    +0.000 A 
ATOM     13  C   UNL     1       5.248   3.426  15.583  0.00  0.00    +0.000 A 
ATOM     14  C   UNL     1       4.624   4.221  16.568  0.00  0.00    +0.000 A 
ATOM     15  H   UNL     1       4.533   6.954  18.209  0.00  0.00    +0.000 HD
ENDROOT
BRANCH   2  16
ATOM     16  O   UNL     1       0.499   4.276  20.325  0.00  0.00    +0.000 OA
ATOM     17  H   UNL     1       0.430   3.418  20.768  0.00  0.00    +0.000 HD
ENDBRANCH   2  16
BRANCH  11  18
ATOM     18  O   UNL     1       7.959   5.612  14.504  0.00  0.00    +0.000 OA
ATOM     19  H   UNL     1       7.662   6.122  13.737  0.00  0.00    +0.000 HD
ENDBRANCH  11  18
BRANCH   1  20
ATOM     20  C   UNL     1       2.379   6.537  20.158  0.00  0.00    +0.000 C 
BRANCH  20  23
ATOM     21  C   UNL     1       1.312   8.837  19.829  0.00  0.00    +0.000 C 
ATOM     22  C   UNL     1       0.658   8.811  21.183  0.00  0.00    +0.000 C 
ATOM     23  C   UNL     1       2.082   7.810  19.406  0.00  0.00    +0.000 C 
BRANCH  21  24
ATOM     24  C   UNL     1       1.068   9.998  18.874  0.00  0.00    +0.000 C 
BRANCH  24  25
ATOM     25  C   UNL     1      -0.265   9.980  18.118  0.00  0.00    +0.000 C 
BRANCH  25  29
ATOM     26  C   UNL     1      -2.676  12.461  19.908  0.00  0.00    +0.000 C 
ATOM     27  C   UNL     1      -1.567  11.945  19.037  0.00  0.00    +0.000 C 
ATOM     28  C   UNL     1      -0.685  12.961  18.363  0.00  0.00    +0.000 C 
ATOM     29  C   UNL     1      -1.393  10.619  18.880  0.00  0.00    +0.000 C 
ENDBRANCH  25  29
ENDBRANCH  24  25
ENDBRANCH  21  24
ENDBRANCH  20  23
ENDBRANCH   1  20
TORSDOF 7
ENDMDL
MODEL 7
REMARK VINA RESULT:      -8.1      1.609      2.057
REMARK  Name = 
REMARK  11 active torsions:
REMARK  status: ('A' for Active; 'I' for Inactive)
REMARK    1  A    between atoms: C_1  and  C_2
REMARK    2  A    between atoms: C_2  and  C_3
REMARK    3  A    between atoms: C_4  and  C_5
REMARK    4  A    between atoms: C_5  and  C_6
REMARK    5  A    between atoms: C_6  and  C_7
REMARK    6  A    between atoms: C_7  and  C_8
REMARK    7  A    between atoms: C_9  and  C_10
REMARK    8  A    between atoms: C_10  and  C_11
REMARK    9  A    between atoms: C_12  and  O_13
REMARK   10  A    between atoms: C_14  and  C_15
REMARK   11  A    between atoms: C_22  and  O_23
REMARK                            x       y       z     vdW  Elec       q    Type
REMARK                         _______ _______ _______ _____ _____    ______ ____
ROOT
ATOM      1  C   UNL     1       2.485   5.393  19.317  0.00  0.00    +0.000 A 
ATOM      2  C   UNL     1       1.546   4.339  19.438  0.00  0.00    +0.000 A 
ATOM      3  C   UNL     1       1.573   3.203  18.621  0.00  0.00    +0.000 A 
ATOM      4  C   UNL     1       0.596   2.071  18.783  0.00  0.00    +0.000 C 
ATOM      5  C   UNL     1       2.556   3.096  17.623  0.00  0.00    +0.000 A 
ATOM      6  C   UNL     1       3.498   4.126  17.443  0.00  0.00    +0.000 A 
ATOM      7  C   UNL     1       3.434   5.241  18.278  0.00  0.00    +0.000 A 
ATOM      8  N   UNL     1       4.457   6.078  17.878  0.00  0.00    +0.000 N 
ATOM      9  C   UNL     1       5.192   5.531  16.856  0.00  0.00    +0.000 A 
ATOM     10  C   UNL     1       6.320   6.029  16.190  0.00  0.00    +0.000 A 
ATOM     11  C   UNL     1       6.863   5.228  15.184  0.00  0.00    +0.000 A 
ATOM     12  C   UNL     1       6.315   3.997  14.853  0.00  0.00    +0.000 A 
ATOM     13  C   UNL     1       5.186   3.521  15.530  0.00  0.00    +0.000 A 
ATOM     14  C   UNL     1       4.611   4.302  16.556  0.00  0.00    +0.000 A 
ATOM     15  H   UNL     1       4.660   6.970  18.302  0.00  0.00    +0.000 HD
ENDROOT
BRANCH   2  16
ATOM     16  O   UNL     1       0.552   4.380  20.385  0.00  0.00    +0.000 OA
ATOM     17  H   UNL     1      -0.277   4.667  19.977  0.00  0.00    +0.000 HD
ENDBRANCH   2  16
BRANCH  11  18
ATOM     18  O   UNL     1       7.967   5.634  14.488  0.00  0.00    +0.000 OA
ATOM     19  H   UNL     1       8.746   5.517  15.050  0.00  0.00    +0.000 HD
ENDBRANCH  11  18
BRANCH   1  20
ATOM     20  C   UNL     1       2.523   6.567  20.271  0.00  0.00    +0.000 C 
BRANCH  20  23
ATOM     21  C   UNL     1       1.184   8.739  20.425  0.00  0.00    +0.000 C 
ATOM     22  C   UNL     1       1.146   8.698  21.929  0.00  0.00    +0.000 C 
ATOM     23  C   UNL     1       1.816   7.778  19.717  0.00  0.00    +0.000 C 
BRANCH  21  24
ATOM     24  C   UNL     1       0.453   9.837  19.663  0.00  0.00    +0.000 C 
BRANCH  24  25
ATOM     25  C   UNL     1       0.567  11.250  20.242  0.00  0.00    +0.000 C 
BRANCH  25  29
ATOM     26  C   UNL     1      -2.862  12.697  21.393  0.00  0.00    +0.000 C 
ATOM     27  C   UNL     1      -1.511  12.042  21.448  0.00  0.00    +0.000 C 
ATOM     28  C   UNL     1      -1.060  11.493  22.774  0.00  0.00    +0.000 C 
ATOM     29  C   UNL     1      -0.752  11.966  20.338  0.00  0.00    +0.000 C 
ENDBRANCH  25  29
ENDBRANCH  24  25
ENDBRANCH  21  24
ENDBRANCH  20  23
ENDBRANCH   1  20
TORSDOF 7
ENDMDL
MODEL 8
REMARK VINA RESULT:      -8.0      1.514      2.113
REMARK  Name = 
REMARK  11 active torsions:
REMARK  status: ('A' for Active; 'I' for Inactive)
REMARK    1  A    between atoms: C_1  and  C_2
REMARK    2  A    between atoms: C_2  and  C_3
REMARK    3  A    between atoms: C_4  and  C_5
REMARK    4  A    between atoms: C_5  and  C_6
REMARK    5  A    between atoms: C_6  and  C_7
REMARK    6  A    between atoms: C_7  and  C_8
REMARK    7  A    between atoms: C_9  and  C_10
REMARK    8  A    between atoms: C_10  and  C_11
REMARK    9  A    between atoms: C_12  and  O_13
REMARK   10  A    between atoms: C_14  and  C_15
REMARK   11  A    between atoms: C_22  and  O_23
REMARK                            x       y       z     vdW  Elec       q    Type
REMARK                         _______ _______ _______ _____ _____    ______ ____
ROOT
ATOM      1  C   UNL     1       2.475   5.437  19.309  0.00  0.00    +0.000 A 
ATOM      2  C   UNL     1       1.541   4.380  19.441  0.00  0.00    +0.000 A 
ATOM      3  C   UNL     1       1.576   3.233  18.638  0.00  0.00    +0.000 A 
ATOM      4  C   UNL     1       0.604   2.098  18.813  0.00  0.00    +0.000 C 
ATOM      5  C   UNL     1       2.562   3.119  17.645  0.00  0.00    +0.000 A 
ATOM      6  C   UNL     1       3.499   4.151  17.455  0.00  0.00    +0.000 A 
ATOM      7  C   UNL     1       3.428   5.277  18.274  0.00  0.00    +0.000 A 
ATOM      8  N   UNL     1       4.447   6.114  17.867  0.00  0.00    +0.000 N 
ATOM      9  C   UNL     1       5.188   5.557  16.854  0.00  0.00    +0.000 A 
ATOM     10  C   UNL     1       6.316   6.053  16.185  0.00  0.00    +0.000 A 
ATOM     11  C   UNL     1       6.865   5.242  15.190  0.00  0.00    +0.000 A 
ATOM     12  C   UNL     1       6.325   4.003  14.874  0.00  0.00    +0.000 A 
ATOM     13  C   UNL     1       5.196   3.531  15.554  0.00  0.00    +0.000 A 
ATOM     14  C   UNL     1       4.614   4.322  16.568  0.00  0.00    +0.000 A 
ATOM     15  H   UNL     1       4.644   7.013  18.280  0.00  0.00    +0.000 HD
ENDROOT
BRANCH   2  16
ATOM     16  O   UNL     1       0.544   4.428  20.384  0.00  0.00    +0.000 OA
ATOM     17  H   UNL     1       0.889   4.803  21.207  0.00  0.00    +0.000 HD
ENDBRANCH   2  16
BRANCH  11  18
ATOM     18  O   UNL     1       7.969   5.645  14.493  0.00  0.00    +0.000 OA
ATOM     19  H   UNL     1       7.688   5.954  13.621  0.00  0.00    +0.000 HD
ENDBRANCH  11  18
BRANCH   1  20
ATOM     20  C   UNL     1       2.503   6.623  20.248  0.00  0.00    +0.000 C 
BRANCH  20  23
ATOM     21  C   UNL     1       1.128   8.765  20.489  0.00  0.00    +0.000 C 
ATOM     22  C   UNL     1       1.358   8.835  21.974  0.00  0.00    +0.000 C 
ATOM     23  C   UNL     1       1.662   7.770  19.747  0.00  0.00    +0.000 C 
BRANCH  21  24
ATOM     24  C   UNL     1       0.232   9.782  19.796  0.00  0.00    +0.000 C 
BRANCH  24  25
ATOM     25  C   UNL     1       0.715  10.290  18.434  0.00  0.00    +0.000 C 
BRANCH  25  29
ATOM     26  C   UNL     1       2.868  13.535  18.504  0.00  0.00    +0.000 C 
ATOM     27  C   UNL     1       1.667  12.632  18.505  0.00  0.00    +0.000 C 
ATOM     28  C   UNL     1       0.311  13.282  18.484  0.00  0.00    +0.000 C 
ATOM     29  C   UNL     1       1.828  11.295  18.530  0.00  0.00    +0.000 C 
ENDBRANCH  25  29
ENDBRANCH  24  25
ENDBRANCH  21  24
ENDBRANCH  20  23
ENDBRANCH   1  20
TORSDOF 7
ENDMDL
MODEL 9
REMARK VINA RESULT:      -8.0      3.310      7.654
REMARK  Name = 
REMARK  11 active torsions:
REMARK  status: ('A' for Active; 'I' for Inactive)
REMARK    1  A    between atoms: C_1  and  C_2
REMARK    2  A    between atoms: C_2  and  C_3
REMARK    3  A    between atoms: C_4  and  C_5
REMARK    4  A    between atoms: C_5  and  C_6
REMARK    5  A    between atoms: C_6  and  C_7
REMARK    6  A    between atoms: C_7  and  C_8
REMARK    7  A    between atoms: C_9  and  C_10
REMARK    8  A    between atoms: C_10  and  C_11
REMARK    9  A    between atoms: C_12  and  O_13
REMARK   10  A    between atoms: C_14  and  C_15
REMARK   11  A    between atoms: C_22  and  O_23
REMARK                            x       y       z     vdW  Elec       q    Type
REMARK                         _______ _______ _______ _____ _____    ______ ____
ROOT
ATOM      1  C   UNL     1       3.352   6.285  18.426  0.00  0.00    +0.000 A 
ATOM      2  C   UNL     1       3.258   5.161  19.283  0.00  0.00    +0.000 A 
ATOM      3  C   UNL     1       2.431   5.136  20.413  0.00  0.00    +0.000 A 
ATOM      4  C   UNL     1       2.308   3.923  21.294  0.00  0.00    +0.000 C 
ATOM      5  C   UNL     1       1.672   6.273  20.735  0.00  0.00    +0.000 A 
ATOM      6  C   UNL     1       1.747   7.426  19.932  0.00  0.00    +0.000 A 
ATOM      7  C   UNL     1       2.584   7.409  18.816  0.00  0.00    +0.000 A 
ATOM      8  N   UNL     1       2.466   8.653  18.228  0.00  0.00    +0.000 N 
ATOM      9  C   UNL     1       1.566   9.446  18.895  0.00  0.00    +0.000 A 
ATOM     10  C   UNL     1       1.134  10.750  18.614  0.00  0.00    +0.000 A 
ATOM     11  C   UNL     1       0.187  11.300  19.481  0.00  0.00    +0.000 A 
ATOM     12  C   UNL     1      -0.306  10.595  20.570  0.00  0.00    +0.000 A 
ATOM     13  C   UNL     1       0.143   9.294  20.831  0.00  0.00    +0.000 A 
ATOM     14  C   UNL     1       1.098   8.704  19.975  0.00  0.00    +0.000 A 
ATOM     15  H   UNL     1       2.958   8.937  17.396  0.00  0.00    +0.000 HD
ENDROOT
BRANCH   2  16
ATOM     16  O   UNL     1       3.979   4.018  19.035  0.00  0.00    +0.000 OA
ATOM     17  H   UNL     1       3.487   3.246  19.350  0.00  0.00    +0.000 HD
ENDBRANCH   2  16
BRANCH  11  18
ATOM     18  O   UNL     1      -0.294  12.563  19.278  0.00  0.00    +0.000 OA
ATOM     19  H   UNL     1       0.364  13.068  18.780  0.00  0.00    +0.000 HD
ENDBRANCH  11  18
BRANCH   1  20
ATOM     20  C   UNL     1       4.159   6.271  17.146  0.00  0.00    +0.000 C 
BRANCH  20  23
ATOM     21  C   UNL     1       6.706   6.296  17.360  0.00  0.00    +0.000 C 
ATOM     22  C   UNL     1       6.808   4.801  17.216  0.00  0.00    +0.000 C 
ATOM     23  C   UNL     1       5.509   6.921  17.313  0.00  0.00    +0.000 C 
BRANCH  21  24
ATOM     24  C   UNL     1       7.949   7.133  17.626  0.00  0.00    +0.000 C 
BRANCH  24  25
ATOM     25  C   UNL     1       7.729   8.642  17.767  0.00  0.00    +0.000 C 
BRANCH  25  29
ATOM     26  C   UNL     1      10.219  11.174  19.368  0.00  0.00    +0.000 C 
ATOM     27  C   UNL     1       9.088  10.630  18.543  0.00  0.00    +0.000 C 
ATOM     28  C   UNL     1       8.346  11.597  17.661  0.00  0.00    +0.000 C 
ATOM     29  C   UNL     1       8.769   9.323  18.613  0.00  0.00    +0.000 C 
ENDBRANCH  25  29
ENDBRANCH  24  25
ENDBRANCH  21  24
ENDBRANCH  20  23
ENDBRANCH   1  20
TORSDOF 7
ENDMDL
