MODEL 1
REMARK VINA RESULT:      -8.6      0.000      0.000
REMARK  Name = 
REMARK  4 active torsions:
REMARK  status: ('A' for Active; 'I' for Inactive)
REMARK    1  A    between atoms: C_2  and  C_3
REMARK    2  A    between atoms: N_12  and  C_13
REMARK    3  A    between atoms: N_12  and  C_20
REMARK    4  A    between atoms: C_13  and  C_14
REMARK                            x       y       z     vdW  Elec       q    Type
REMARK                         _______ _______ _______ _____ _____    ______ ____
ROOT
ATOM      1  O   UNL     1       2.480   5.420  20.260  0.00  0.00    +0.000 OA
ATOM      2  C   UNL     1       3.138   6.211  19.591  0.00  0.00    +0.000 C 
ATOM      3  N   UNL     1       4.411   5.840  19.078  0.00  0.00    +0.000 N 
ENDROOT
BRANCH   3   4
ATOM      4  C   UNL     1       5.380   6.690  18.308  0.00  0.00    +0.000 C 
ATOM      5  C   UNL     1       6.849   6.194  18.303  0.00  0.00    +0.000 C 
ATOM      6  C   UNL     1       7.180   5.029  17.357  0.00  0.00    +0.000 C 
ATOM      7  C   UNL     1       6.494   5.043  15.981  0.00  0.00    +0.000 C 
ATOM      8  C   UNL     1       5.169   5.823  15.893  0.00  0.00    +0.000 C 
ATOM      9  C   UNL     1       5.010   6.995  16.851  0.00  0.00    +0.000 C 
ATOM     10  O   UNL     1       7.382   5.562  14.983  0.00  0.00    +0.000 OA
ATOM     11  C   UNL     1       7.027   4.879  13.772  0.00  0.00    +0.000 C 
ATOM     12  C   UNL     1       6.272   3.636  14.191  0.00  0.00    +0.000 C 
ATOM     13  O   UNL     1       6.234   3.674  15.615  0.00  0.00    +0.000 OA
ENDBRANCH   3   4
BRANCH   2  14
ATOM     14  C   UNL     1       2.498   7.495  19.283  0.00  0.00    +0.000 A 
ATOM     15  C   UNL     1       2.278   7.826  17.954  0.00  0.00    +0.000 A 
ATOM     16  S   UNL     1       1.513   9.329  17.748  0.00  0.00    +0.000 S 
ATOM     17  C   UNL     1       1.187   9.453  19.431  0.00  0.00    +0.000 A 
ATOM     18  C   UNL     1       0.418  10.458  20.052  0.00  0.00    +0.000 A 
ATOM     19  C   UNL     1       0.122  10.332  21.408  0.00  0.00    +0.000 A 
ATOM     20  C   UNL     1       0.591   9.242  22.130  0.00  0.00    +0.000 A 
ATOM     21  C   UNL     1       1.408   8.283  21.522  0.00  0.00    +0.000 A 
ATOM     22  C   UNL     1       1.736   8.380  20.149  0.00  0.00    +0.000 A 
ENDBRANCH   2  14
BRANCH   3  23
ATOM     23  C   UNL     1       4.744   4.442  19.401  0.00  0.00    +0.000 C 
BRANCH  23  24
ATOM     24  C   UNL     1       3.713   3.375  19.082  0.00  0.00    +0.000 A 
ATOM     25  C   UNL     1       3.007   2.631  20.038  0.00  0.00    +0.000 A 
ATOM     26  C   UNL     1       1.987   1.756  19.647  0.00  0.00    +0.000 A 
ATOM     27  C   UNL     1       1.690   1.579  18.296  0.00  0.00    +0.000 A 
ATOM     28  C   UNL     1       2.394   2.296  17.334  0.00  0.00    +0.000 A 
ATOM     29  C   UNL     1       3.388   3.192  17.724  0.00  0.00    +0.000 A 
ENDBRANCH  23  24
ENDBRANCH   3  23
TORSDOF 4
ENDMDL
MODEL 2
REMARK VINA RESULT:      -8.3      7.195      9.821
REMARK  Name = 
REMARK  4 active torsions:
REMARK  status: ('A' for Active; 'I' for Inactive)
REMARK    1  A    between atoms: C_2  and  C_3
REMARK    2  A    between atoms: N_12  and  C_13
REMARK    3  A    between atoms: N_12  and  C_20
REMARK    4  A    between atoms: C_13  and  C_14
REMARK                            x       y       z     vdW  Elec       q    Type
REMARK                         _______ _______ _______ _____ _____    ______ ____
ROOT
ATOM      1  O   UNL     1       0.689  14.136  22.350  0.00  0.00    +0.000 OA
ATOM      2  C   UNL     1       0.955  13.783  21.205  0.00  0.00    +0.000 C 
ATOM      3  N   UNL     1       0.553  12.504  20.731  0.00  0.00    +0.000 N 
ENDROOT
BRANCH   3   4
ATOM      4  C   UNL     1       0.848  11.879  19.397  0.00  0.00    +0.000 C 
ATOM      5  C   UNL     1       0.445  10.389  19.252  0.00  0.00    +0.000 C 
ATOM      6  C   UNL     1      -1.045  10.097  19.015  0.00  0.00    +0.000 C 
ATOM      7  C   UNL     1      -1.797  11.067  18.090  0.00  0.00    +0.000 C 
ATOM      8  C   UNL     1      -1.208  12.484  17.970  0.00  0.00    +0.000 C 
ATOM      9  C   UNL     1       0.297  12.609  18.166  0.00  0.00    +0.000 C 
ATOM     10  O   UNL     1      -1.905  10.518  16.769  0.00  0.00    +0.000 OA
ATOM     11  C   UNL     1      -3.146  11.022  16.254  0.00  0.00    +0.000 C 
ATOM     12  C   UNL     1      -3.960  11.457  17.453  0.00  0.00    +0.000 C 
ATOM     13  O   UNL     1      -3.144  11.181  18.588  0.00  0.00    +0.000 OA
ENDBRANCH   3   4
BRANCH   2  14
ATOM     14  C   UNL     1       1.609  14.780  20.351  0.00  0.00    +0.000 A 
ATOM     15  C   UNL     1       2.953  14.617  20.048  0.00  0.00    +0.000 A 
ATOM     16  S   UNL     1       3.572  15.833  19.036  0.00  0.00    +0.000 S 
ATOM     17  C   UNL     1       1.999  16.455  18.733  0.00  0.00    +0.000 A 
ATOM     18  C   UNL     1       1.676  17.480  17.819  0.00  0.00    +0.000 A 
ATOM     19  C   UNL     1       0.333  17.765  17.580  0.00  0.00    +0.000 A 
ATOM     20  C   UNL     1      -0.663  17.059  18.243  0.00  0.00    +0.000 A 
ATOM     21  C   UNL     1      -0.334  16.088  19.195  0.00  0.00    +0.000 A 
ATOM     22  C   UNL     1       1.018  15.775  19.471  0.00  0.00    +0.000 A 
ENDBRANCH   2  14
BRANCH   3  23
ATOM     23  C   UNL     1      -0.228  11.768  21.739  0.00  0.00    +0.000 C 
BRANCH  23  24
ATOM     24  C   UNL     1      -1.624  12.270  22.061  0.00  0.00    +0.000 A 
ATOM     25  C   UNL     1      -2.442  12.987  21.176  0.00  0.00    +0.000 A 
ATOM     26  C   UNL     1      -3.761  13.300  21.524  0.00  0.00    +0.000 A 
ATOM     27  C   UNL     1      -4.264  12.940  22.773  0.00  0.00    +0.000 A 
ATOM     28  C   UNL     1      -3.460  12.245  23.669  0.00  0.00    +0.000 A 
ATOM     29  C   UNL     1      -2.156  11.905  23.313  0.00  0.00    +0.000 A 
ENDBRANCH  23  24
ENDBRANCH   3  23
TORSDOF 4
ENDMDL
MODEL 3
REMARK VINA RESULT:      -8.3      0.932      1.224
REMARK  Name = 
REMARK  4 active torsions:
REMARK  status: ('A' for Active; 'I' for Inactive)
REMARK    1  A    between atoms: C_2  and  C_3
REMARK    2  A    between atoms: N_12  and  C_13
REMARK    3  A    between atoms: N_12  and  C_20
REMARK    4  A    between atoms: C_13  and  C_14
REMARK                            x       y       z     vdW  Elec       q    Type
REMARK                         _______ _______ _______ _____ _____    ______ ____
ROOT
ATOM      1  O   UNL     1       1.435   5.622  18.917  0.00  0.00    +0.000 OA
ATOM      2  C   UNL     1       2.381   6.355  18.644  0.00  0.00    +0.000 C 
ATOM      3  N   UNL     1       3.592   5.812  18.136  0.00  0.00    +0.000 N 
ENDROOT
BRANCH   3   4
ATOM      4  C   UNL     1       4.868   6.537  17.816  0.00  0.00    +0.000 C 
ATOM      5  C   UNL     1       6.175   5.765  18.128  0.00  0.00    +0.000 C 
ATOM      6  C   UNL     1       6.589   4.677  17.125  0.00  0.00    +0.000 C 
ATOM      7  C   UNL     1       6.358   4.988  15.638  0.00  0.00    +0.000 C 
ATOM      8  C   UNL     1       5.258   6.019  15.324  0.00  0.00    +0.000 C 
ATOM      9  C   UNL     1       5.003   7.079  16.388  0.00  0.00    +0.000 C 
ATOM     10  O   UNL     1       7.574   5.434  15.023  0.00  0.00    +0.000 OA
ATOM     11  C   UNL     1       7.496   4.982  13.664  0.00  0.00    +0.000 C 
ATOM     12  C   UNL     1       6.466   3.873  13.643  0.00  0.00    +0.000 C 
ATOM     13  O   UNL     1       6.010   3.750  14.988  0.00  0.00    +0.000 OA
ENDBRANCH   3   4
BRANCH   2  14
ATOM     14  C   UNL     1       2.149   7.797  18.779  0.00  0.00    +0.000 A 
ATOM     15  C   UNL     1       2.162   8.583  17.636  0.00  0.00    +0.000 A 
ATOM     16  S   UNL     1       1.860  10.227  17.941  0.00  0.00    +0.000 S 
ATOM     17  C   UNL     1       1.414   9.898  19.568  0.00  0.00    +0.000 A 
ATOM     18  C   UNL     1       0.890  10.830  20.487  0.00  0.00    +0.000 A 
ATOM     19  C   UNL     1       0.437  10.370  21.722  0.00  0.00    +0.000 A 
ATOM     20  C   UNL     1       0.517   9.021  22.041  0.00  0.00    +0.000 A 
ATOM     21  C   UNL     1       1.097   8.112  21.149  0.00  0.00    +0.000 A 
ATOM     22  C   UNL     1       1.575   8.541  19.889  0.00  0.00    +0.000 A 
ENDBRANCH   2  14
BRANCH   3  23
ATOM     23  C   UNL     1       3.501   4.354  17.946  0.00  0.00    +0.000 C 
BRANCH  23  24
ATOM     24  C   UNL     1       2.945   3.523  19.088  0.00  0.00    +0.000 A 
ATOM     25  C   UNL     1       3.455   3.512  20.394  0.00  0.00    +0.000 A 
ATOM     26  C   UNL     1       2.798   2.806  21.408  0.00  0.00    +0.000 A 
ATOM     27  C   UNL     1       1.651   2.067  21.121  0.00  0.00    +0.000 A 
ATOM     28  C   UNL     1       1.142   2.052  19.827  0.00  0.00    +0.000 A 
ATOM     29  C   UNL     1       1.778   2.780  18.823  0.00  0.00    +0.000 A 
ENDBRANCH  23  24
ENDBRANCH   3  23
TORSDOF 4
ENDMDL
MODEL 4
REMARK VINA RESULT:      -8.1      1.174      1.494
REMARK  Name = 
REMARK  4 active torsions:
REMARK  status: ('A' for Active; 'I' for Inactive)
REMARK    1  A    between atoms: C_2  and  C_3
REMARK    2  A    between atoms: N_12  and  C_13
REMARK    3  A    between atoms: N_12  and  C_20
REMARK    4  A    between atoms: C_13  and  C_14
REMARK                            x       y       z     vdW  Elec       q    Type
REMARK                         _______ _______ _______ _____ _____    ______ ____
ROOT
ATOM      1  O   UNL     1       1.619   5.358  18.453  0.00  0.00    +0.000 OA
ATOM      2  C   UNL     1       2.518   6.152  18.195  0.00  0.00    +0.000 C 
ATOM      3  N   UNL     1       3.691   5.721  17.516  0.00  0.00    +0.000 N 
ENDROOT
BRANCH   3   4
ATOM      4  C   UNL     1       4.913   6.526  17.181  0.00  0.00    +0.000 C 
ATOM      5  C   UNL     1       6.270   5.864  17.533  0.00  0.00    +0.000 C 
ATOM      6  C   UNL     1       6.774   4.774  16.574  0.00  0.00    +0.000 C 
ATOM      7  C   UNL     1       6.537   5.013  15.075  0.00  0.00    +0.000 C 
ATOM      8  C   UNL     1       5.369   5.949  14.714  0.00  0.00    +0.000 C 
ATOM      9  C   UNL     1       5.025   7.025  15.735  0.00  0.00    +0.000 C 
ATOM     10  O   UNL     1       7.724   5.525  14.455  0.00  0.00    +0.000 OA
ATOM     11  C   UNL     1       7.695   5.020  13.112  0.00  0.00    +0.000 C 
ATOM     12  C   UNL     1       6.750   3.838  13.123  0.00  0.00    +0.000 C 
ATOM     13  O   UNL     1       6.289   3.731  14.467  0.00  0.00    +0.000 OA
ENDBRANCH   3   4
BRANCH   2  14
ATOM     14  C   UNL     1       2.265   7.556  18.534  0.00  0.00    +0.000 A 
ATOM     15  C   UNL     1       2.220   8.491  17.510  0.00  0.00    +0.000 A 
ATOM     16  S   UNL     1       1.900  10.070  18.048  0.00  0.00    +0.000 S 
ATOM     17  C   UNL     1       1.522   9.512  19.629  0.00  0.00    +0.000 A 
ATOM     18  C   UNL     1       1.015  10.298  20.685  0.00  0.00    +0.000 A 
ATOM     19  C   UNL     1       0.618   9.664  21.860  0.00  0.00    +0.000 A 
ATOM     20  C   UNL     1       0.735   8.286  21.988  0.00  0.00    +0.000 A 
ATOM     21  C   UNL     1       1.298   7.520  20.960  0.00  0.00    +0.000 A 
ATOM     22  C   UNL     1       1.720   8.129  19.755  0.00  0.00    +0.000 A 
ENDBRANCH   2  14
BRANCH   3  23
ATOM     23  C   UNL     1       3.617   4.297  17.149  0.00  0.00    +0.000 C 
BRANCH  23  24
ATOM     24  C   UNL     1       3.981   3.271  18.207  0.00  0.00    +0.000 A 
ATOM     25  C   UNL     1       4.555   3.571  19.451  0.00  0.00    +0.000 A 
ATOM     26  C   UNL     1       4.741   2.568  20.409  0.00  0.00    +0.000 A 
ATOM     27  C   UNL     1       4.398   1.248  20.121  0.00  0.00    +0.000 A 
ATOM     28  C   UNL     1       3.845   0.930  18.885  0.00  0.00    +0.000 A 
ATOM     29  C   UNL     1       3.630   1.933  17.942  0.00  0.00    +0.000 A 
ENDBRANCH  23  24
ENDBRANCH   3  23
TORSDOF 4
ENDMDL
MODEL 5
REMARK VINA RESULT:      -8.0      4.942      8.443
REMARK  Name = 
REMARK  4 active torsions:
REMARK  status: ('A' for Active; 'I' for Inactive)
REMARK    1  A    between atoms: C_2  and  C_3
REMARK    2  A    between atoms: N_12  and  C_13
REMARK    3  A    between atoms: N_12  and  C_20
REMARK    4  A    between atoms: C_13  and  C_14
REMARK                            x       y       z     vdW  Elec       q    Type
REMARK                         _______ _______ _______ _____ _____    ______ ____
ROOT
ATOM      1  O   UNL     1      -1.473   9.572  19.553  0.00  0.00    +0.000 OA
ATOM      2  C   UNL     1      -1.289  10.585  18.886  0.00  0.00    +0.000 C 
ATOM      3  N   UNL     1      -0.049  11.276  18.947  0.00  0.00    +0.000 N 
ENDROOT
BRANCH   3   4
ATOM      4  C   UNL     1       0.329  12.559  18.264  0.00  0.00    +0.000 C 
ATOM      5  C   UNL     1      -0.390  13.831  18.782  0.00  0.00    +0.000 C 
ATOM      6  C   UNL     1       0.128  14.428  20.100  0.00  0.00    +0.000 C 
ATOM      7  C   UNL     1       1.650  14.410  20.313  0.00  0.00    +0.000 C 
ATOM      8  C   UNL     1       2.430  13.334  19.535  0.00  0.00    +0.000 C 
ATOM      9  C   UNL     1       1.826  12.887  18.210  0.00  0.00    +0.000 C 
ATOM     10  O   UNL     1       2.216  15.687  19.993  0.00  0.00    +0.000 OA
ATOM     11  C   UNL     1       3.343  15.829  20.870  0.00  0.00    +0.000 C 
ATOM     12  C   UNL     1       3.123  14.853  22.006  0.00  0.00    +0.000 C 
ATOM     13  O   UNL     1       1.886  14.206  21.719  0.00  0.00    +0.000 OA
ENDBRANCH   3   4
BRANCH   2  14
ATOM     14  C   UNL     1      -2.371  10.969  17.972  0.00  0.00    +0.000 A 
ATOM     15  C   UNL     1      -2.431  10.367  16.724  0.00  0.00    +0.000 A 
ATOM     16  S   UNL     1      -3.744  10.892  15.782  0.00  0.00    +0.000 S 
ATOM     17  C   UNL     1      -4.440  11.719  17.117  0.00  0.00    +0.000 A 
ATOM     18  C   UNL     1      -5.701  12.350  17.134  0.00  0.00    +0.000 A 
ATOM     19  C   UNL     1      -6.185  12.846  18.343  0.00  0.00    +0.000 A 
ATOM     20  C   UNL     1      -5.429  12.732  19.502  0.00  0.00    +0.000 A 
ATOM     21  C   UNL     1      -4.151  12.162  19.465  0.00  0.00    +0.000 A 
ATOM     22  C   UNL     1      -3.622  11.654  18.256  0.00  0.00    +0.000 A 
ENDBRANCH   2  14
BRANCH   3  23
ATOM     23  C   UNL     1       0.918  10.589  19.820  0.00  0.00    +0.000 C 
BRANCH  23  24
ATOM     24  C   UNL     1       1.541   9.301  19.313  0.00  0.00    +0.000 A 
ATOM     25  C   UNL     1       2.097   9.128  18.036  0.00  0.00    +0.000 A 
ATOM     26  C   UNL     1       2.758   7.940  17.705  0.00  0.00    +0.000 A 
ATOM     27  C   UNL     1       2.834   6.896  18.626  0.00  0.00    +0.000 A 
ATOM     28  C   UNL     1       2.272   7.045  19.889  0.00  0.00    +0.000 A 
ATOM     29  C   UNL     1       1.641   8.239  20.232  0.00  0.00    +0.000 A 
ENDBRANCH  23  24
ENDBRANCH   3  23
TORSDOF 4
ENDMDL
MODEL 6
REMARK VINA RESULT:      -8.0      7.304      9.935
REMARK  Name = 
REMARK  4 active torsions:
REMARK  status: ('A' for Active; 'I' for Inactive)
REMARK    1  A    between atoms: C_2  and  C_3
REMARK    2  A    between atoms: N_12  and  C_13
REMARK    3  A    between atoms: N_12  and  C_20
REMARK    4  A    between atoms: C_13  and  C_14
REMARK                            x       y       z     vdW  Elec       q    Type
REMARK                         _______ _______ _______ _____ _____    ______ ____
ROOT
ATOM      1  O   UNL     1       0.185  14.463  22.621  0.00  0.00    +0.000 OA
ATOM      2  C   UNL     1       0.606  14.037  21.549  0.00  0.00    +0.000 C 
ATOM      3  N   UNL     1       0.321  12.707  21.138  0.00  0.00    +0.000 N 
ENDROOT
BRANCH   3   4
ATOM      4  C   UNL     1       0.806  11.997  19.906  0.00  0.00    +0.000 C 
ATOM      5  C   UNL     1       0.438  10.495  19.810  0.00  0.00    +0.000 C 
ATOM      6  C   UNL     1      -1.001  10.163  19.385  0.00  0.00    +0.000 C 
ATOM      7  C   UNL     1      -1.621  11.055  18.298  0.00  0.00    +0.000 C 
ATOM      8  C   UNL     1      -1.031  12.471  18.164  0.00  0.00    +0.000 C 
ATOM      9  C   UNL     1       0.431  12.633  18.561  0.00  0.00    +0.000 C 
ATOM     10  O   UNL     1      -1.537  10.416  17.017  0.00  0.00    +0.000 OA
ATOM     11  C   UNL     1      -2.695  10.864  16.298  0.00  0.00    +0.000 C 
ATOM     12  C   UNL     1      -3.674  11.366  17.337  0.00  0.00    +0.000 C 
ATOM     13  O   UNL     1      -3.025  11.181  18.593  0.00  0.00    +0.000 OA
ENDBRANCH   3   4
BRANCH   2  14
ATOM     14  C   UNL     1       1.319  14.999  20.701  0.00  0.00    +0.000 A 
ATOM     15  C   UNL     1       2.689  14.854  20.538  0.00  0.00    +0.000 A 
ATOM     16  S   UNL     1       3.377  16.024  19.517  0.00  0.00    +0.000 S 
ATOM     17  C   UNL     1       1.828  16.584  19.027  0.00  0.00    +0.000 A 
ATOM     18  C   UNL     1       1.573  17.543  18.025  0.00  0.00    +0.000 A 
ATOM     19  C   UNL     1       0.254  17.777  17.642  0.00  0.00    +0.000 A 
ATOM     20  C   UNL     1      -0.786  17.085  18.249  0.00  0.00    +0.000 A 
ATOM     21  C   UNL     1      -0.531  16.182  19.287  0.00  0.00    +0.000 A 
ATOM     22  C   UNL     1       0.794  15.923  19.709  0.00  0.00    +0.000 A 
ENDBRANCH   2  14
BRANCH   3  23
ATOM     23  C   UNL     1      -0.547  12.010  22.101  0.00  0.00    +0.000 C 
BRANCH  23  24
ATOM     24  C   UNL     1      -1.999  12.445  22.193  0.00  0.00    +0.000 A 
ATOM     25  C   UNL     1      -2.827  12.244  23.307  0.00  0.00    +0.000 A 
ATOM     26  C   UNL     1      -4.115  12.790  23.341  0.00  0.00    +0.000 A 
ATOM     27  C   UNL     1      -4.607  13.504  22.250  0.00  0.00    +0.000 A 
ATOM     28  C   UNL     1      -3.805  13.696  21.130  0.00  0.00    +0.000 A 
ATOM     29  C   UNL     1      -2.511  13.180  21.106  0.00  0.00    +0.000 A 
ENDBRANCH  23  24
ENDBRANCH   3  23
TORSDOF 4
ENDMDL
MODEL 7
REMARK VINA RESULT:      -7.7      6.898      9.413
REMARK  Name = 
REMARK  4 active torsions:
REMARK  status: ('A' for Active; 'I' for Inactive)
REMARK    1  A    between atoms: C_2  and  C_3
REMARK    2  A    between atoms: N_12  and  C_13
REMARK    3  A    between atoms: N_12  and  C_20
REMARK    4  A    between atoms: C_13  and  C_14
REMARK                            x       y       z     vdW  Elec       q    Type
REMARK                         _______ _______ _______ _____ _____    ______ ____
ROOT
ATOM      1  O   UNL     1      -1.120   9.756  18.883  0.00  0.00    +0.000 OA
ATOM      2  C   UNL     1      -1.301  10.928  18.565  0.00  0.00    +0.000 C 
ATOM      3  N   UNL     1      -0.379  11.935  18.961  0.00  0.00    +0.000 N 
ENDROOT
BRANCH   3   4
ATOM      4  C   UNL     1      -0.472  13.416  18.728  0.00  0.00    +0.000 C 
ATOM      5  C   UNL     1      -1.165  14.229  19.851  0.00  0.00    +0.000 C 
ATOM      6  C   UNL     1      -0.330  14.520  21.108  0.00  0.00    +0.000 C 
ATOM      7  C   UNL     1       1.154  14.852  20.886  0.00  0.00    +0.000 C 
ATOM      8  C   UNL     1       1.783  14.313  19.587  0.00  0.00    +0.000 C 
ATOM      9  C   UNL     1       0.841  14.138  18.403  0.00  0.00    +0.000 C 
ATOM     10  O   UNL     1       1.362  16.270  20.924  0.00  0.00    +0.000 OA
ATOM     11  C   UNL     1       2.683  16.442  21.457  0.00  0.00    +0.000 C 
ATOM     12  C   UNL     1       3.028  15.150  22.165  0.00  0.00    +0.000 C 
ATOM     13  O   UNL     1       1.889  14.308  21.999  0.00  0.00    +0.000 OA
ENDBRANCH   3   4
BRANCH   2  14
ATOM     14  C   UNL     1      -2.447  11.196  17.689  0.00  0.00    +0.000 A 
ATOM     15  C   UNL     1      -2.478  10.605  16.435  0.00  0.00    +0.000 A 
ATOM     16  S   UNL     1      -3.871  10.988  15.540  0.00  0.00    +0.000 S 
ATOM     17  C   UNL     1      -4.614  11.717  16.908  0.00  0.00    +0.000 A 
ATOM     18  C   UNL     1      -5.937  12.201  16.972  0.00  0.00    +0.000 A 
ATOM     19  C   UNL     1      -6.435  12.626  18.201  0.00  0.00    +0.000 A 
ATOM     20  C   UNL     1      -5.635  12.585  19.335  0.00  0.00    +0.000 A 
ATOM     21  C   UNL     1      -4.302  12.165  19.252  0.00  0.00    +0.000 A 
ATOM     22  C   UNL     1      -3.758  11.732  18.020  0.00  0.00    +0.000 A 
ENDBRANCH   2  14
BRANCH   3  23
ATOM     23  C   UNL     1       0.765  11.370  19.696  0.00  0.00    +0.000 C 
BRANCH  23  24
ATOM     24  C   UNL     1       0.505  10.775  21.067  0.00  0.00    +0.000 A 
ATOM     25  C   UNL     1      -0.513  11.187  21.940  0.00  0.00    +0.000 A 
ATOM     26  C   UNL     1      -0.750  10.494  23.132  0.00  0.00    +0.000 A 
ATOM     27  C   UNL     1       0.052   9.411  23.489  0.00  0.00    +0.000 A 
ATOM     28  C   UNL     1       1.078   9.002  22.644  0.00  0.00    +0.000 A 
ATOM     29  C   UNL     1       1.296   9.671  21.441  0.00  0.00    +0.000 A 
ENDBRANCH  23  24
ENDBRANCH   3  23
TORSDOF 4
ENDMDL
MODEL 8
REMARK VINA RESULT:      -7.7      6.970      9.637
REMARK  Name = 
REMARK  4 active torsions:
REMARK  status: ('A' for Active; 'I' for Inactive)
REMARK    1  A    between atoms: C_2  and  C_3
REMARK    2  A    between atoms: N_12  and  C_13
REMARK    3  A    between atoms: N_12  and  C_20
REMARK    4  A    between atoms: C_13  and  C_14
REMARK                            x       y       z     vdW  Elec       q    Type
REMARK                         _______ _______ _______ _____ _____    ______ ____
ROOT
ATOM      1  O   UNL     1      -0.530  11.630  23.032  0.00  0.00    +0.000 OA
ATOM      2  C   UNL     1      -0.827  12.742  22.607  0.00  0.00    +0.000 C 
ATOM      3  N   UNL     1      -0.201  13.261  21.440  0.00  0.00    +0.000 N 
ENDROOT
BRANCH   3   4
ATOM      4  C   UNL     1      -0.383  14.616  20.819  0.00  0.00    +0.000 C 
ATOM      5  C   UNL     1       0.529  15.738  21.379  0.00  0.00    +0.000 C 
ATOM      6  C   UNL     1       1.985  15.752  20.888  0.00  0.00    +0.000 C 
ATOM      7  C   UNL     1       2.216  15.405  19.409  0.00  0.00    +0.000 C 
ATOM      8  C   UNL     1       1.130  14.543  18.737  0.00  0.00    +0.000 C 
ATOM      9  C   UNL     1      -0.282  14.684  19.290  0.00  0.00    +0.000 C 
ATOM     10  O   UNL     1       2.378  16.599  18.632  0.00  0.00    +0.000 OA
ATOM     11  C   UNL     1       3.276  16.240  17.573  0.00  0.00    +0.000 C 
ATOM     12  C   UNL     1       3.993  14.988  18.030  0.00  0.00    +0.000 C 
ATOM     13  O   UNL     1       3.467  14.697  19.322  0.00  0.00    +0.000 OA
ENDBRANCH   3   4
BRANCH   2  14
ATOM     14  C   UNL     1      -1.911  13.440  23.307  0.00  0.00    +0.000 A 
ATOM     15  C   UNL     1      -1.585  14.459  24.190  0.00  0.00    +0.000 A 
ATOM     16  S   UNL     1      -2.939  15.188  24.911  0.00  0.00    +0.000 S 
ATOM     17  C   UNL     1      -4.013  14.368  23.851  0.00  0.00    +0.000 A 
ATOM     18  C   UNL     1      -5.406  14.570  23.764  0.00  0.00    +0.000 A 
ATOM     19  C   UNL     1      -6.113  13.933  22.746  0.00  0.00    +0.000 A 
ATOM     20  C   UNL     1      -5.454  13.104  21.847  0.00  0.00    +0.000 A 
ATOM     21  C   UNL     1      -4.083  12.857  21.979  0.00  0.00    +0.000 A 
ATOM     22  C   UNL     1      -3.332  13.480  23.003  0.00  0.00    +0.000 A 
ENDBRANCH   2  14
BRANCH   3  23
ATOM     23  C   UNL     1       0.732  12.291  20.843  0.00  0.00    +0.000 C 
BRANCH  23  24
ATOM     24  C   UNL     1       0.185  11.324  19.808  0.00  0.00    +0.000 A 
ATOM     25  C   UNL     1      -1.172  11.181  19.483  0.00  0.00    +0.000 A 
ATOM     26  C   UNL     1      -1.566  10.350  18.429  0.00  0.00    +0.000 A 
ATOM     27  C   UNL     1      -0.617   9.619  17.715  0.00  0.00    +0.000 A 
ATOM     28  C   UNL     1       0.731   9.736  18.037  0.00  0.00    +0.000 A 
ATOM     29  C   UNL     1       1.128  10.587  19.067  0.00  0.00    +0.000 A 
ENDBRANCH  23  24
ENDBRANCH   3  23
TORSDOF 4
ENDMDL
MODEL 9
REMARK VINA RESULT:      -7.6      5.720      8.802
REMARK  Name = 
REMARK  4 active torsions:
REMARK  status: ('A' for Active; 'I' for Inactive)
REMARK    1  A    between atoms: C_2  and  C_3
REMARK    2  A    between atoms: N_12  and  C_13
REMARK    3  A    between atoms: N_12  and  C_20
REMARK    4  A    between atoms: C_13  and  C_14
REMARK                            x       y       z     vdW  Elec       q    Type
REMARK                         _______ _______ _______ _____ _____    ______ ____
ROOT
ATOM      1  O   UNL     1      -2.247  10.869  18.621  0.00  0.00    +0.000 OA
ATOM      2  C   UNL     1      -2.040  11.819  19.370  0.00  0.00    +0.000 C 
ATOM      3  N   UNL     1      -0.738  12.377  19.486  0.00  0.00    +0.000 N 
ENDROOT
BRANCH   3   4
ATOM      4  C   UNL     1      -0.284  13.483  20.395  0.00  0.00    +0.000 C 
ATOM      5  C   UNL     1       1.104  13.282  21.055  0.00  0.00    +0.000 C 
ATOM      6  C   UNL     1       2.333  13.556  20.174  0.00  0.00    +0.000 C 
ATOM      7  C   UNL     1       2.237  14.752  19.213  0.00  0.00    +0.000 C 
ATOM      8  C   UNL     1       0.817  15.175  18.797  0.00  0.00    +0.000 C 
ATOM      9  C   UNL     1      -0.293  14.898  19.803  0.00  0.00    +0.000 C 
ATOM     10  O   UNL     1       2.897  15.897  19.770  0.00  0.00    +0.000 OA
ATOM     11  C   UNL     1       3.411  16.619  18.642  0.00  0.00    +0.000 C 
ATOM     12  C   UNL     1       3.458  15.636  17.492  0.00  0.00    +0.000 C 
ATOM     13  O   UNL     1       2.969  14.406  18.022  0.00  0.00    +0.000 OA
ENDBRANCH   3   4
BRANCH   2  14
ATOM     14  C   UNL     1      -3.213  12.387  20.042  0.00  0.00    +0.000 A 
ATOM     15  C   UNL     1      -4.384  12.548  19.315  0.00  0.00    +0.000 A 
ATOM     16  S   UNL     1      -5.663  13.198  20.225  0.00  0.00    +0.000 S 
ATOM     17  C   UNL     1      -4.784  13.013  21.691  0.00  0.00    +0.000 A 
ATOM     18  C   UNL     1      -5.281  13.248  22.989  0.00  0.00    +0.000 A 
ATOM     19  C   UNL     1      -4.488  12.906  24.082  0.00  0.00    +0.000 A 
ATOM     20  C   UNL     1      -3.227  12.357  23.889  0.00  0.00    +0.000 A 
ATOM     21  C   UNL     1      -2.714  12.186  22.598  0.00  0.00    +0.000 A 
ATOM     22  C   UNL     1      -3.487  12.528  21.463  0.00  0.00    +0.000 A 
ENDBRANCH   2  14
BRANCH   3  23
ATOM     23  C   UNL     1       0.221  11.720  18.582  0.00  0.00    +0.000 C 
BRANCH  23  24
ATOM     24  C   UNL     1       0.750  10.354  18.978  0.00  0.00    +0.000 A 
ATOM     25  C   UNL     1       1.445   9.484  18.124  0.00  0.00    +0.000 A 
ATOM     26  C   UNL     1       2.000   8.298  18.617  0.00  0.00    +0.000 A 
ATOM     27  C   UNL     1       1.832   7.944  19.955  0.00  0.00    +0.000 A 
ATOM     28  C   UNL     1       1.130   8.787  20.811  0.00  0.00    +0.000 A 
ATOM     29  C   UNL     1       0.604   9.983  20.329  0.00  0.00    +0.000 A 
ENDBRANCH  23  24
ENDBRANCH   3  23
TORSDOF 4
ENDMDL
