MODEL 1
REMARK VINA RESULT:      -7.2      0.000      0.000
REMARK  Name = 
REMARK  6 active torsions:
REMARK  status: ('A' for Active; 'I' for Inactive)
REMARK    1  A    between atoms: C_1  and  C_2
REMARK    2  A    between atoms: C_2  and  C_3
REMARK    3  A    between atoms: C_2  and  C_4
REMARK    4  A    between atoms: N_8  and  C_9
REMARK    5  A    between atoms: C_9  and  C_10
REMARK    6  A    between atoms: C_10  and  C_12
REMARK                            x       y       z     vdW  Elec       q    Type
REMARK                         _______ _______ _______ _____ _____    ______ ____
ROOT
ATOM      1  C   UNL     1       5.147   3.888  17.886  0.00  0.00    +0.000 C 
ENDROOT
BRANCH   1   6
ATOM      2  C   UNL     1       6.761   5.576  16.845  0.00  0.00    +0.000 A 
ATOM      3  N   UNL     1       7.322   5.752  15.662  0.00  0.00    +0.000 NA
ATOM      4  C   UNL     1       6.910   4.717  14.873  0.00  0.00    +0.000 A 
ATOM      5  C   UNL     1       6.081   3.884  15.578  0.00  0.00    +0.000 A 
ATOM      6  N   UNL     1       5.996   4.424  16.838  0.00  0.00    +0.000 N 
BRANCH   2   8
ATOM      7  C   UNL     1       7.840   5.784  19.068  0.00  0.00    +0.000 C 
ATOM      8  C   UNL     1       6.996   6.502  18.009  0.00  0.00    +0.000 C 
ATOM      9  C   UNL     1       7.716   7.780  17.560  0.00  0.00    +0.000 C 
ENDBRANCH   2   8
ENDBRANCH   1   6
BRANCH   1  10
ATOM     10  C   UNL     1       3.676   4.194  17.694  0.00  0.00    +0.000 C 
ATOM     11  O   UNL     1       2.990   3.593  16.864  0.00  0.00    +0.000 OA
BRANCH  10  12
ATOM     12  C   UNL     1       3.033   5.286  18.483  0.00  0.00    +0.000 A 
ATOM     13  C   UNL     1       2.481   4.965  19.732  0.00  0.00    +0.000 A 
ATOM     14  C   UNL     1       1.895   5.955  20.526  0.00  0.00    +0.000 A 
ATOM     15  C   UNL     1       1.871   7.270  20.068  0.00  0.00    +0.000 A 
ATOM     16 BR   UNL     1       1.113   8.622  21.157  0.00  0.00    +0.000 Br
ATOM     17  C   UNL     1       2.412   7.601  18.831  0.00  0.00    +0.000 A 
ATOM     18  C   UNL     1       2.995   6.609  18.034  0.00  0.00    +0.000 A 
ENDBRANCH  10  12
ENDBRANCH   1  10
TORSDOF 4
ENDMDL
MODEL 2
REMARK VINA RESULT:      -7.1      0.092      1.143
REMARK  Name = 
REMARK  6 active torsions:
REMARK  status: ('A' for Active; 'I' for Inactive)
REMARK    1  A    between atoms: C_1  and  C_2
REMARK    2  A    between atoms: C_2  and  C_3
REMARK    3  A    between atoms: C_2  and  C_4
REMARK    4  A    between atoms: N_8  and  C_9
REMARK    5  A    between atoms: C_9  and  C_10
REMARK    6  A    between atoms: C_10  and  C_12
REMARK                            x       y       z     vdW  Elec       q    Type
REMARK                         _______ _______ _______ _____ _____    ______ ____
ROOT
ATOM      1  C   UNL     1       5.164   3.887  17.944  0.00  0.00    +0.000 C 
ENDROOT
BRANCH   1   6
ATOM      2  C   UNL     1       6.759   5.569  16.862  0.00  0.00    +0.000 A 
ATOM      3  N   UNL     1       7.303   5.733  15.670  0.00  0.00    +0.000 NA
ATOM      4  C   UNL     1       6.885   4.688  14.899  0.00  0.00    +0.000 A 
ATOM      5  C   UNL     1       6.069   3.859  15.625  0.00  0.00    +0.000 A 
ATOM      6  N   UNL     1       5.998   4.414  16.879  0.00  0.00    +0.000 N 
BRANCH   2   8
ATOM      7  C   UNL     1       7.916   5.829  19.040  0.00  0.00    +0.000 C 
ATOM      8  C   UNL     1       7.005   6.510  18.013  0.00  0.00    +0.000 C 
ATOM      9  C   UNL     1       7.658   7.810  17.531  0.00  0.00    +0.000 C 
ENDBRANCH   2   8
ENDBRANCH   1   6
BRANCH   1  10
ATOM     10  C   UNL     1       3.694   4.208  17.782  0.00  0.00    +0.000 C 
ATOM     11  O   UNL     1       2.992   3.637  16.944  0.00  0.00    +0.000 OA
BRANCH  10  12
ATOM     12  C   UNL     1       3.069   5.280  18.612  0.00  0.00    +0.000 A 
ATOM     13  C   UNL     1       3.059   6.589  18.105  0.00  0.00    +0.000 A 
ATOM     14  C   UNL     1       2.459   7.626  18.825  0.00  0.00    +0.000 A 
ATOM     15  C   UNL     1       1.862   7.346  20.052  0.00  0.00    +0.000 A 
ATOM     16 BR   UNL     1       1.014   8.741  21.014  0.00  0.00    +0.000 Br
ATOM     17  C   UNL     1       1.868   6.055  20.567  0.00  0.00    +0.000 A 
ATOM     18  C   UNL     1       2.473   5.018  19.847  0.00  0.00    +0.000 A 
ENDBRANCH  10  12
ENDBRANCH   1  10
TORSDOF 4
ENDMDL
MODEL 3
REMARK VINA RESULT:      -6.8      2.742      4.328
REMARK  Name = 
REMARK  6 active torsions:
REMARK  status: ('A' for Active; 'I' for Inactive)
REMARK    1  A    between atoms: C_1  and  C_2
REMARK    2  A    between atoms: C_2  and  C_3
REMARK    3  A    between atoms: C_2  and  C_4
REMARK    4  A    between atoms: N_8  and  C_9
REMARK    5  A    between atoms: C_9  and  C_10
REMARK    6  A    between atoms: C_10  and  C_12
REMARK                            x       y       z     vdW  Elec       q    Type
REMARK                         _______ _______ _______ _____ _____    ______ ____
ROOT
ATOM      1  C   UNL     1       4.370   5.305  18.944  0.00  0.00    +0.000 C 
ENDROOT
BRANCH   1   6
ATOM      2  C   UNL     1       2.912   3.273  19.478  0.00  0.00    +0.000 A 
ATOM      3  N   UNL     1       2.716   2.078  18.951  0.00  0.00    +0.000 NA
ATOM      4  C   UNL     1       3.499   2.006  17.835  0.00  0.00    +0.000 A 
ATOM      5  C   UNL     1       4.190   3.177  17.665  0.00  0.00    +0.000 A 
ATOM      6  N   UNL     1       3.808   3.988  18.704  0.00  0.00    +0.000 N 
BRANCH   2   8
ATOM      7  C   UNL     1       0.761   4.140  20.356  0.00  0.00    +0.000 C 
ATOM      8  C   UNL     1       2.199   3.751  20.716  0.00  0.00    +0.000 C 
ATOM      9  C   UNL     1       2.180   2.661  21.795  0.00  0.00    +0.000 C 
ENDBRANCH   2   8
ENDBRANCH   1   6
BRANCH   1  10
ATOM     10  C   UNL     1       3.860   6.367  17.994  0.00  0.00    +0.000 C 
ATOM     11  O   UNL     1       4.282   6.463  16.839  0.00  0.00    +0.000 OA
BRANCH  10  12
ATOM     12  C   UNL     1       2.861   7.371  18.465  0.00  0.00    +0.000 A 
ATOM     13  C   UNL     1       2.382   7.263  19.780  0.00  0.00    +0.000 A 
ATOM     14  C   UNL     1       1.469   8.194  20.283  0.00  0.00    +0.000 A 
ATOM     15  C   UNL     1       1.044   9.240  19.467  0.00  0.00    +0.000 A 
ATOM     16 BR   UNL     1      -0.164  10.527  20.157  0.00  0.00    +0.000 Br
ATOM     17  C   UNL     1       1.508   9.357  18.162  0.00  0.00    +0.000 A 
ATOM     18  C   UNL     1       2.418   8.421  17.657  0.00  0.00    +0.000 A 
ENDBRANCH  10  12
ENDBRANCH   1  10
TORSDOF 4
ENDMDL
MODEL 4
REMARK VINA RESULT:      -6.7      1.403      1.758
REMARK  Name = 
REMARK  6 active torsions:
REMARK  status: ('A' for Active; 'I' for Inactive)
REMARK    1  A    between atoms: C_1  and  C_2
REMARK    2  A    between atoms: C_2  and  C_3
REMARK    3  A    between atoms: C_2  and  C_4
REMARK    4  A    between atoms: N_8  and  C_9
REMARK    5  A    between atoms: C_9  and  C_10
REMARK    6  A    between atoms: C_10  and  C_12
REMARK                            x       y       z     vdW  Elec       q    Type
REMARK                         _______ _______ _______ _____ _____    ______ ____
ROOT
ATOM      1  C   UNL     1       4.424   6.714  16.628  0.00  0.00    +0.000 C 
ENDROOT
BRANCH   1   6
ATOM      2  C   UNL     1       6.767   5.772  17.032  0.00  0.00    +0.000 A 
ATOM      3  N   UNL     1       7.543   4.871  16.456  0.00  0.00    +0.000 NA
ATOM      4  C   UNL     1       6.830   4.342  15.419  0.00  0.00    +0.000 A 
ATOM      5  C   UNL     1       5.589   4.921  15.353  0.00  0.00    +0.000 A 
ATOM      6  N   UNL     1       5.544   5.823  16.387  0.00  0.00    +0.000 N 
BRANCH   2   8
ATOM      7  C   UNL     1       8.052   5.681  19.151  0.00  0.00    +0.000 C 
ATOM      8  C   UNL     1       7.188   6.562  18.243  0.00  0.00    +0.000 C 
ATOM      9  C   UNL     1       7.979   7.812  17.837  0.00  0.00    +0.000 C 
ENDBRANCH   2   8
ENDBRANCH   1   6
BRANCH   1  10
ATOM     10  C   UNL     1       3.565   6.308  17.806  0.00  0.00    +0.000 C 
ATOM     11  O   UNL     1       3.532   5.145  18.216  0.00  0.00    +0.000 OA
BRANCH  10  12
ATOM     12  C   UNL     1       2.684   7.314  18.469  0.00  0.00    +0.000 A 
ATOM     13  C   UNL     1       2.322   7.099  19.808  0.00  0.00    +0.000 A 
ATOM     14  C   UNL     1       1.526   8.025  20.487  0.00  0.00    +0.000 A 
ATOM     15  C   UNL     1       1.099   9.173  19.823  0.00  0.00    +0.000 A 
ATOM     16 BR   UNL     1       0.052  10.450  20.751  0.00  0.00    +0.000 Br
ATOM     17  C   UNL     1       1.448   9.397  18.497  0.00  0.00    +0.000 A 
ATOM     18  C   UNL     1       2.241   8.466  17.815  0.00  0.00    +0.000 A 
ENDBRANCH  10  12
ENDBRANCH   1  10
TORSDOF 4
ENDMDL
MODEL 5
REMARK VINA RESULT:      -6.4      2.852      4.514
REMARK  Name = 
REMARK  6 active torsions:
REMARK  status: ('A' for Active; 'I' for Inactive)
REMARK    1  A    between atoms: C_1  and  C_2
REMARK    2  A    between atoms: C_2  and  C_3
REMARK    3  A    between atoms: C_2  and  C_4
REMARK    4  A    between atoms: N_8  and  C_9
REMARK    5  A    between atoms: C_9  and  C_10
REMARK    6  A    between atoms: C_10  and  C_12
REMARK                            x       y       z     vdW  Elec       q    Type
REMARK                         _______ _______ _______ _____ _____    ______ ____
ROOT
ATOM      1  C   UNL     1       2.925   5.085  17.601  0.00  0.00    +0.000 C 
ENDROOT
BRANCH   1   6
ATOM      2  C   UNL     1       2.853   3.416  19.539  0.00  0.00    +0.000 A 
ATOM      3  N   UNL     1       3.734   2.686  20.199  0.00  0.00    +0.000 NA
ATOM      4  C   UNL     1       4.949   2.915  19.620  0.00  0.00    +0.000 A 
ATOM      5  C   UNL     1       4.820   3.800  18.581  0.00  0.00    +0.000 A 
ATOM      6  N   UNL     1       3.483   4.110  18.522  0.00  0.00    +0.000 N 
BRANCH   2   8
ATOM      7  C   UNL     1       0.650   2.479  18.893  0.00  0.00    +0.000 C 
ATOM      8  C   UNL     1       1.382   3.416  19.860  0.00  0.00    +0.000 C 
ATOM      9  C   UNL     1       1.134   2.958  21.303  0.00  0.00    +0.000 C 
ENDBRANCH   2   8
ENDBRANCH   1   6
BRANCH   1  10
ATOM     10  C   UNL     1       3.398   6.500  17.853  0.00  0.00    +0.000 C 
ATOM     11  O   UNL     1       4.517   6.884  17.503  0.00  0.00    +0.000 OA
BRANCH  10  12
ATOM     12  C   UNL     1       2.523   7.458  18.593  0.00  0.00    +0.000 A 
ATOM     13  C   UNL     1       2.218   7.177  19.934  0.00  0.00    +0.000 A 
ATOM     14  C   UNL     1       1.430   8.054  20.683  0.00  0.00    +0.000 A 
ATOM     15  C   UNL     1       0.955   9.221  20.087  0.00  0.00    +0.000 A 
ATOM     16 BR   UNL     1      -0.081  10.434  21.110  0.00  0.00    +0.000 Br
ATOM     17  C   UNL     1       1.248   9.510  18.759  0.00  0.00    +0.000 A 
ATOM     18  C   UNL     1       2.033   8.627  18.008  0.00  0.00    +0.000 A 
ENDBRANCH  10  12
ENDBRANCH   1  10
TORSDOF 4
ENDMDL
MODEL 6
REMARK VINA RESULT:      -6.4      0.983      2.512
REMARK  Name = 
REMARK  6 active torsions:
REMARK  status: ('A' for Active; 'I' for Inactive)
REMARK    1  A    between atoms: C_1  and  C_2
REMARK    2  A    between atoms: C_2  and  C_3
REMARK    3  A    between atoms: C_2  and  C_4
REMARK    4  A    between atoms: N_8  and  C_9
REMARK    5  A    between atoms: C_9  and  C_10
REMARK    6  A    between atoms: C_10  and  C_12
REMARK                            x       y       z     vdW  Elec       q    Type
REMARK                         _______ _______ _______ _____ _____    ______ ____
ROOT
ATOM      1  C   UNL     1       5.023   3.908  18.583  0.00  0.00    +0.000 C 
ENDROOT
BRANCH   1   6
ATOM      2  C   UNL     1       6.508   5.388  17.118  0.00  0.00    +0.000 A 
ATOM      3  N   UNL     1       7.515   6.219  17.317  0.00  0.00    +0.000 NA
ATOM      4  C   UNL     1       7.729   6.263  18.664  0.00  0.00    +0.000 A 
ATOM      5  C   UNL     1       6.838   5.448  19.313  0.00  0.00    +0.000 A 
ATOM      6  N   UNL     1       6.052   4.900  18.329  0.00  0.00    +0.000 N 
BRANCH   2   8
ATOM      7  C   UNL     1       5.147   6.300  15.256  0.00  0.00    +0.000 C 
ATOM      8  C   UNL     1       5.948   5.091  15.751  0.00  0.00    +0.000 C 
ATOM      9  C   UNL     1       7.069   4.774  14.754  0.00  0.00    +0.000 C 
ENDBRANCH   2   8
ENDBRANCH   1   6
BRANCH   1  10
ATOM     10  C   UNL     1       3.637   4.348  18.160  0.00  0.00    +0.000 C 
ATOM     11  O   UNL     1       3.027   3.786  17.247  0.00  0.00    +0.000 OA
BRANCH  10  12
ATOM     12  C   UNL     1       2.996   5.525  18.817  0.00  0.00    +0.000 A 
ATOM     13  C   UNL     1       2.977   6.744  18.120  0.00  0.00    +0.000 A 
ATOM     14  C   UNL     1       2.362   7.870  18.673  0.00  0.00    +0.000 A 
ATOM     15  C   UNL     1       1.757   7.770  19.924  0.00  0.00    +0.000 A 
ATOM     16 BR   UNL     1       0.888   9.284  20.662  0.00  0.00    +0.000 Br
ATOM     17  C   UNL     1       1.771   6.570  20.626  0.00  0.00    +0.000 A 
ATOM     18  C   UNL     1       2.392   5.444  20.074  0.00  0.00    +0.000 A 
ENDBRANCH  10  12
ENDBRANCH   1  10
TORSDOF 4
ENDMDL
MODEL 7
REMARK VINA RESULT:      -6.4      3.502      6.308
REMARK  Name = 
REMARK  6 active torsions:
REMARK  status: ('A' for Active; 'I' for Inactive)
REMARK    1  A    between atoms: C_1  and  C_2
REMARK    2  A    between atoms: C_2  and  C_3
REMARK    3  A    between atoms: C_2  and  C_4
REMARK    4  A    between atoms: N_8  and  C_9
REMARK    5  A    between atoms: C_9  and  C_10
REMARK    6  A    between atoms: C_10  and  C_12
REMARK                            x       y       z     vdW  Elec       q    Type
REMARK                         _______ _______ _______ _____ _____    ______ ____
ROOT
ATOM      1  C   UNL     1       3.501   3.944  18.487  0.00  0.00    +0.000 C 
ENDROOT
BRANCH   1   6
ATOM      2  C   UNL     1       1.876   4.938  20.194  0.00  0.00    +0.000 A 
ATOM      3  N   UNL     1       1.531   6.152  20.584  0.00  0.00    +0.000 NA
ATOM      4  C   UNL     1       2.300   7.027  19.874  0.00  0.00    +0.000 A 
ATOM      5  C   UNL     1       3.139   6.346  19.031  0.00  0.00    +0.000 A 
ATOM      6  N   UNL     1       2.878   5.015  19.243  0.00  0.00    +0.000 N 
BRANCH   2   8
ATOM      7  C   UNL     1       0.737   2.807  19.633  0.00  0.00    +0.000 C 
ATOM      8  C   UNL     1       1.268   3.687  20.771  0.00  0.00    +0.000 C 
ATOM      9  C   UNL     1       2.299   2.900  21.589  0.00  0.00    +0.000 C 
ENDBRANCH   2   8
ENDBRANCH   1   6
BRANCH   1  10
ATOM     10  C   UNL     1       5.001   4.091  18.346  0.00  0.00    +0.000 C 
ATOM     11  O   UNL     1       5.753   4.051  19.323  0.00  0.00    +0.000 OA
BRANCH  10  12
ATOM     12  C   UNL     1       5.602   4.349  17.004  0.00  0.00    +0.000 A 
ATOM     13  C   UNL     1       6.963   4.688  16.941  0.00  0.00    +0.000 A 
ATOM     14  C   UNL     1       7.584   4.908  15.709  0.00  0.00    +0.000 A 
ATOM     15  C   UNL     1       6.840   4.780  14.538  0.00  0.00    +0.000 A 
ATOM     16 BR   UNL     1       7.687   5.041  12.863  0.00  0.00    +0.000 Br
ATOM     17  C   UNL     1       5.491   4.449  14.587  0.00  0.00    +0.000 A 
ATOM     18  C   UNL     1       4.868   4.233  15.822  0.00  0.00    +0.000 A 
ENDBRANCH  10  12
ENDBRANCH   1  10
TORSDOF 4
ENDMDL
MODEL 8
REMARK VINA RESULT:      -6.4      2.811      4.605
REMARK  Name = 
REMARK  6 active torsions:
REMARK  status: ('A' for Active; 'I' for Inactive)
REMARK    1  A    between atoms: C_1  and  C_2
REMARK    2  A    between atoms: C_2  and  C_3
REMARK    3  A    between atoms: C_2  and  C_4
REMARK    4  A    between atoms: N_8  and  C_9
REMARK    5  A    between atoms: C_9  and  C_10
REMARK    6  A    between atoms: C_10  and  C_12
REMARK                            x       y       z     vdW  Elec       q    Type
REMARK                         _______ _______ _______ _____ _____    ______ ____
ROOT
ATOM      1  C   UNL     1       5.917   3.818  15.126  0.00  0.00    +0.000 C 
ENDROOT
BRANCH   1   6
ATOM      2  C   UNL     1       6.388   3.725  12.614  0.00  0.00    +0.000 A 
ATOM      3  N   UNL     1       7.217   4.325  11.779  0.00  0.00    +0.000 NA
ATOM      4  C   UNL     1       7.938   5.220  12.514  0.00  0.00    +0.000 A 
ATOM      5  C   UNL     1       7.550   5.177  13.828  0.00  0.00    +0.000 A 
ATOM      6  N   UNL     1       6.554   4.233  13.890  0.00  0.00    +0.000 N 
BRANCH   2   8
ATOM      7  C   UNL     1       4.270   3.351  11.380  0.00  0.00    +0.000 C 
ATOM      8  C   UNL     1       5.395   2.680  12.176  0.00  0.00    +0.000 C 
ATOM      9  C   UNL     1       6.069   1.610  11.309  0.00  0.00    +0.000 C 
ENDBRANCH   2   8
ENDBRANCH   1   6
BRANCH   1  10
ATOM     10  C   UNL     1       5.220   4.944  15.860  0.00  0.00    +0.000 C 
ATOM     11  O   UNL     1       5.448   6.128  15.601  0.00  0.00    +0.000 OA
BRANCH  10  12
ATOM     12  C   UNL     1       4.269   4.636  16.968  0.00  0.00    +0.000 A 
ATOM     13  C   UNL     1       3.612   5.706  17.595  0.00  0.00    +0.000 A 
ATOM     14  C   UNL     1       2.687   5.473  18.616  0.00  0.00    +0.000 A 
ATOM     15  C   UNL     1       2.416   4.162  19.003  0.00  0.00    +0.000 A 
ATOM     16 BR   UNL     1       1.135   3.838  20.361  0.00  0.00    +0.000 Br
ATOM     17  C   UNL     1       3.062   3.093  18.393  0.00  0.00    +0.000 A 
ATOM     18  C   UNL     1       3.991   3.328  17.373  0.00  0.00    +0.000 A 
ENDBRANCH  10  12
ENDBRANCH   1  10
TORSDOF 4
ENDMDL
MODEL 9
REMARK VINA RESULT:      -6.4      0.917      1.075
REMARK  Name = 
REMARK  6 active torsions:
REMARK  status: ('A' for Active; 'I' for Inactive)
REMARK    1  A    between atoms: C_1  and  C_2
REMARK    2  A    between atoms: C_2  and  C_3
REMARK    3  A    between atoms: C_2  and  C_4
REMARK    4  A    between atoms: N_8  and  C_9
REMARK    5  A    between atoms: C_9  and  C_10
REMARK    6  A    between atoms: C_10  and  C_12
REMARK                            x       y       z     vdW  Elec       q    Type
REMARK                         _______ _______ _______ _____ _____    ______ ____
ROOT
ATOM      1  C   UNL     1       4.647   4.662  18.299  0.00  0.00    +0.000 C 
ENDROOT
BRANCH   1   6
ATOM      2  C   UNL     1       6.558   5.853  17.085  0.00  0.00    +0.000 A 
ATOM      3  N   UNL     1       7.070   5.834  15.868  0.00  0.00    +0.000 NA
ATOM      4  C   UNL     1       6.369   4.901  15.160  0.00  0.00    +0.000 A 
ATOM      5  C   UNL     1       5.407   4.329  15.952  0.00  0.00    +0.000 A 
ATOM      6  N   UNL     1       5.535   4.927  17.181  0.00  0.00    +0.000 N 
BRANCH   2   8
ATOM      7  C   UNL     1       8.026   5.933  19.082  0.00  0.00    +0.000 C 
ATOM      8  C   UNL     1       7.084   6.741  18.183  0.00  0.00    +0.000 C 
ATOM      9  C   UNL     1       7.834   7.946  17.604  0.00  0.00    +0.000 C 
ENDBRANCH   2   8
ENDBRANCH   1   6
BRANCH   1  10
ATOM     10  C   UNL     1       3.197   4.992  18.016  0.00  0.00    +0.000 C 
ATOM     11  O   UNL     1       2.471   4.232  17.371  0.00  0.00    +0.000 OA
BRANCH  10  12
ATOM     12  C   UNL     1       2.625   6.294  18.472  0.00  0.00    +0.000 A 
ATOM     13  C   UNL     1       2.245   6.416  19.818  0.00  0.00    +0.000 A 
ATOM     14  C   UNL     1       1.735   7.621  20.306  0.00  0.00    +0.000 A 
ATOM     15  C   UNL     1       1.613   8.709  19.444  0.00  0.00    +0.000 A 
ATOM     16 BR   UNL     1       0.957  10.357  20.110  0.00  0.00    +0.000 Br
ATOM     17  C   UNL     1       1.982   8.600  18.108  0.00  0.00    +0.000 A 
ATOM     18  C   UNL     1       2.489   7.391  17.618  0.00  0.00    +0.000 A 
ENDBRANCH  10  12
ENDBRANCH   1  10
TORSDOF 4
ENDMDL
