MODEL 1
REMARK VINA RESULT:      -8.5      0.000      0.000
REMARK  Name = 
REMARK  4 active torsions:
REMARK  status: ('A' for Active; 'I' for Inactive)
REMARK    1  A    between atoms: C_2  and  C_3
REMARK    2  A    between atoms: C_6  and  C_7
REMARK    3  A    between atoms: C_22  and  O_23
REMARK    4  A    between atoms: O_23  and  C_24
REMARK                            x       y       z     vdW  Elec       q    Type
REMARK                         _______ _______ _______ _____ _____    ______ ____
ROOT
ATOM      1  O   UNL     1       0.509  11.060  21.053  0.00  0.00    +0.000 OA
ATOM      2  C   UNL     1       0.079  10.653  19.972  0.00  0.00    +0.000 C 
ATOM      3  N   UNL     1      -1.493  11.142  19.527  0.00  0.00    +0.000 N 
ATOM      4  C   UNL     1      -1.088  10.392  18.400  0.00  0.00    +0.000 C 
ATOM      5  C   UNL     1      -1.757   9.889  17.176  0.00  0.00    +0.000 C 
ATOM      6  C   UNL     1      -3.071  10.267  16.687  0.00  0.00    +0.000 C 
ATOM      7  C   UNL     1      -3.649  11.137  17.740  0.00  0.00    +0.000 A 
ATOM      8  C   UNL     1      -4.949  11.456  17.182  0.00  0.00    +0.000 A 
ATOM      9  C   UNL     1      -5.822  12.260  17.810  0.00  0.00    +0.000 A 
ATOM     10  C   UNL     1      -5.363  12.711  19.014  0.00  0.00    +0.000 A 
ATOM     11  C   UNL     1      -4.035  12.410  19.649  0.00  0.00    +0.000 A 
ATOM     12  C   UNL     1      -3.030  11.563  19.022  0.00  0.00    +0.000 A 
ENDROOT
BRANCH   2  13
ATOM     13  C   UNL     1       1.201   9.602  19.057  0.00  0.00    +0.000 A 
ATOM     14  C   UNL     1       1.890   9.929  17.889  0.00  0.00    +0.000 A 
ATOM     15  O   UNL     1       2.659   8.870  17.440  0.00  0.00    +0.000 OA
ATOM     16  C   UNL     1       2.464   7.814  18.303  0.00  0.00    +0.000 A 
ATOM     17  N   UNL     1       1.636   8.189  19.305  0.00  0.00    +0.000 NA
BRANCH  16  18
ATOM     18  C   UNL     1       3.150   6.486  17.860  0.00  0.00    +0.000 A 
ATOM     19  C   UNL     1       4.438   6.431  17.239  0.00  0.00    +0.000 A 
ATOM     20  C   UNL     1       5.038   5.226  16.754  0.00  0.00    +0.000 A 
ATOM     21  C   UNL     1       4.374   4.013  16.871  0.00  0.00    +0.000 A 
ATOM     22  C   UNL     1       3.124   4.016  17.481  0.00  0.00    +0.000 A 
ATOM     23  C   UNL     1       2.531   5.223  17.970  0.00  0.00    +0.000 A 
ENDBRANCH  16  18
ENDBRANCH   2  13
BRANCH  11  24
ATOM     24  O   UNL     1      -4.259  13.134  20.760  0.00  0.00    +0.000 OA
BRANCH  24  25
ATOM     25  C   UNL     1      -3.999  13.140  22.111  0.00  0.00    +0.000 C 
ATOM     26  F   UNL     1      -5.120  12.745  22.756  0.00  0.00    +0.000 F 
ATOM     27  F   UNL     1      -3.098  12.124  22.303  0.00  0.00    +0.000 F 
ENDBRANCH  24  25
ENDBRANCH  11  24
TORSDOF 4
ENDMDL
MODEL 2
REMARK VINA RESULT:      -8.4      4.338      8.752
REMARK  Name = 
REMARK  4 active torsions:
REMARK  status: ('A' for Active; 'I' for Inactive)
REMARK    1  A    between atoms: C_2  and  C_3
REMARK    2  A    between atoms: C_6  and  C_7
REMARK    3  A    between atoms: C_22  and  O_23
REMARK    4  A    between atoms: O_23  and  C_24
REMARK                            x       y       z     vdW  Elec       q    Type
REMARK                         _______ _______ _______ _____ _____    ______ ____
ROOT
ATOM      1  O   UNL     1       0.039   8.958  22.247  0.00  0.00    +0.000 OA
ATOM      2  C   UNL     1       0.525   9.132  21.128  0.00  0.00    +0.000 C 
ATOM      3  N   UNL     1       1.425   7.846  20.464  0.00  0.00    +0.000 N 
ATOM      4  C   UNL     1       1.459   8.798  19.420  0.00  0.00    +0.000 C 
ATOM      5  C   UNL     1       2.179   8.919  18.129  0.00  0.00    +0.000 C 
ATOM      6  C   UNL     1       2.938   7.880  17.458  0.00  0.00    +0.000 C 
ATOM      7  C   UNL     1       2.962   6.736  18.402  0.00  0.00    +0.000 A 
ATOM      8  C   UNL     1       3.740   5.758  17.666  0.00  0.00    +0.000 A 
ATOM      9  C   UNL     1       3.997   4.532  18.150  0.00  0.00    +0.000 A 
ATOM     10  C   UNL     1       3.471   4.328  19.394  0.00  0.00    +0.000 A 
ATOM     11  C   UNL     1       2.667   5.300  20.209  0.00  0.00    +0.000 A 
ATOM     12  C   UNL     1       2.334   6.639  19.745  0.00  0.00    +0.000 A 
ENDROOT
BRANCH   2  13
ATOM     13  C   UNL     1       0.197  10.732  20.400  0.00  0.00    +0.000 A 
ATOM     14  C   UNL     1      -0.950  11.117  19.705  0.00  0.00    +0.000 A 
ATOM     15  O   UNL     1      -0.862  12.424  19.262  0.00  0.00    +0.000 OA
ATOM     16  C   UNL     1       0.368  12.914  19.643  0.00  0.00    +0.000 A 
ATOM     17  N   UNL     1       1.036  11.974  20.350  0.00  0.00    +0.000 NA
BRANCH  16  18
ATOM     18  C   UNL     1       0.691  14.338  19.095  0.00  0.00    +0.000 A 
ATOM     19  C   UNL     1       2.013  14.777  18.768  0.00  0.00    +0.000 A 
ATOM     20  C   UNL     1       2.329  16.107  18.345  0.00  0.00    +0.000 A 
ATOM     21  C   UNL     1       1.330  17.063  18.227  0.00  0.00    +0.000 A 
ATOM     22  C   UNL     1       0.027  16.677  18.521  0.00  0.00    +0.000 A 
ATOM     23  C   UNL     1      -0.285  15.344  18.938  0.00  0.00    +0.000 A 
ENDBRANCH  16  18
ENDBRANCH   2  13
BRANCH  11  24
ATOM     24  O   UNL     1       2.506   4.479  21.262  0.00  0.00    +0.000 OA
BRANCH  24  25
ATOM     25  C   UNL     1       1.756   3.406  21.684  0.00  0.00    +0.000 C 
ATOM     26  F   UNL     1       0.849   3.123  20.722  0.00  0.00    +0.000 F 
ATOM     27  F   UNL     1       2.623   2.343  21.682  0.00  0.00    +0.000 F 
ENDBRANCH  24  25
ENDBRANCH  11  24
TORSDOF 4
ENDMDL
MODEL 3
REMARK VINA RESULT:      -8.3      0.486      1.036
REMARK  Name = 
REMARK  4 active torsions:
REMARK  status: ('A' for Active; 'I' for Inactive)
REMARK    1  A    between atoms: C_2  and  C_3
REMARK    2  A    between atoms: C_6  and  C_7
REMARK    3  A    between atoms: C_22  and  O_23
REMARK    4  A    between atoms: O_23  and  C_24
REMARK                            x       y       z     vdW  Elec       q    Type
REMARK                         _______ _______ _______ _____ _____    ______ ____
ROOT
ATOM      1  O   UNL     1       0.907  11.179  21.123  0.00  0.00    +0.000 OA
ATOM      2  C   UNL     1       0.340  10.754  20.114  0.00  0.00    +0.000 C 
ATOM      3  N   UNL     1      -1.249  11.302  19.825  0.00  0.00    +0.000 N 
ATOM      4  C   UNL     1      -1.007  10.492  18.694  0.00  0.00    +0.000 C 
ATOM      5  C   UNL     1      -1.831   9.977  17.573  0.00  0.00    +0.000 C 
ATOM      6  C   UNL     1      -3.174  10.401  17.217  0.00  0.00    +0.000 C 
ATOM      7  C   UNL     1      -3.590  11.337  18.290  0.00  0.00    +0.000 A 
ATOM      8  C   UNL     1      -4.929  11.699  17.866  0.00  0.00    +0.000 A 
ATOM      9  C   UNL     1      -5.689  12.568  18.551  0.00  0.00    +0.000 A 
ATOM     10  C   UNL     1      -5.077  13.040  19.677  0.00  0.00    +0.000 A 
ATOM     11  C   UNL     1      -3.702  12.698  20.173  0.00  0.00    +0.000 A 
ATOM     12  C   UNL     1      -2.813  11.780  19.476  0.00  0.00    +0.000 A 
ENDROOT
BRANCH   2  13
ATOM     13  C   UNL     1       1.304   9.616  19.127  0.00  0.00    +0.000 A 
ATOM     14  C   UNL     1       1.873   9.865  17.878  0.00  0.00    +0.000 A 
ATOM     15  O   UNL     1       2.538   8.754  17.391  0.00  0.00    +0.000 OA
ATOM     16  C   UNL     1       2.391   7.740  18.313  0.00  0.00    +0.000 A 
ATOM     17  N   UNL     1       1.697   8.192  19.383  0.00  0.00    +0.000 NA
BRANCH  16  18
ATOM     18  C   UNL     1       2.961   6.364  17.853  0.00  0.00    +0.000 A 
ATOM     19  C   UNL     1       2.212   5.145  17.891  0.00  0.00    +0.000 A 
ATOM     20  C   UNL     1       2.754   3.866  17.550  0.00  0.00    +0.000 A 
ATOM     21  C   UNL     1       4.077   3.747  17.149  0.00  0.00    +0.000 A 
ATOM     22  C   UNL     1       4.840   4.908  17.083  0.00  0.00    +0.000 A 
ATOM     23  C   UNL     1       4.292   6.186  17.419  0.00  0.00    +0.000 A 
ENDBRANCH  16  18
ENDBRANCH   2  13
BRANCH  11  24
ATOM     24  O   UNL     1      -3.767  13.473  21.270  0.00  0.00    +0.000 OA
BRANCH  24  25
ATOM     25  C   UNL     1      -3.818  13.392  22.643  0.00  0.00    +0.000 C 
ATOM     26  F   UNL     1      -5.104  13.186  23.004  0.00  0.00    +0.000 F 
ATOM     27  F   UNL     1      -3.167  12.227  22.955  0.00  0.00    +0.000 F 
ENDBRANCH  24  25
ENDBRANCH  11  24
TORSDOF 4
ENDMDL
MODEL 4
REMARK VINA RESULT:      -8.2      4.348      8.830
REMARK  Name = 
REMARK  4 active torsions:
REMARK  status: ('A' for Active; 'I' for Inactive)
REMARK    1  A    between atoms: C_2  and  C_3
REMARK    2  A    between atoms: C_6  and  C_7
REMARK    3  A    between atoms: C_22  and  O_23
REMARK    4  A    between atoms: O_23  and  C_24
REMARK                            x       y       z     vdW  Elec       q    Type
REMARK                         _______ _______ _______ _____ _____    ______ ____
ROOT
ATOM      1  O   UNL     1      -0.044   8.720  22.162  0.00  0.00    +0.000 OA
ATOM      2  C   UNL     1       0.503   8.949  21.082  0.00  0.00    +0.000 C 
ATOM      3  N   UNL     1       1.411   7.684  20.387  0.00  0.00    +0.000 N 
ATOM      4  C   UNL     1       1.518   8.696  19.407  0.00  0.00    +0.000 C 
ATOM      5  C   UNL     1       2.306   8.877  18.163  0.00  0.00    +0.000 C 
ATOM      6  C   UNL     1       3.079   7.862  17.470  0.00  0.00    +0.000 C 
ATOM      7  C   UNL     1       3.030   6.663  18.343  0.00  0.00    +0.000 A 
ATOM      8  C   UNL     1       3.826   5.714  17.589  0.00  0.00    +0.000 A 
ATOM      9  C   UNL     1       4.032   4.456  18.010  0.00  0.00    +0.000 A 
ATOM     10  C   UNL     1       3.438   4.190  19.211  0.00  0.00    +0.000 A 
ATOM     11  C   UNL     1       2.613   5.130  20.042  0.00  0.00    +0.000 A 
ATOM     12  C   UNL     1       2.331   6.502  19.643  0.00  0.00    +0.000 A 
ENDROOT
BRANCH   2  13
ATOM     13  C   UNL     1       0.245  10.597  20.436  0.00  0.00    +0.000 A 
ATOM     14  C   UNL     1      -0.888  11.069  19.774  0.00  0.00    +0.000 A 
ATOM     15  O   UNL     1      -0.741  12.392  19.395  0.00  0.00    +0.000 OA
ATOM     16  C   UNL     1       0.514  12.803  19.785  0.00  0.00    +0.000 A 
ATOM     17  N   UNL     1       1.143  11.799  20.438  0.00  0.00    +0.000 NA
BRANCH  16  18
ATOM     18  C   UNL     1       0.901  14.235  19.304  0.00  0.00    +0.000 A 
ATOM     19  C   UNL     1      -0.049  15.290  19.120  0.00  0.00    +0.000 A 
ATOM     20  C   UNL     1       0.285  16.580  18.599  0.00  0.00    +0.000 A 
ATOM     21  C   UNL     1       1.592  16.877  18.240  0.00  0.00    +0.000 A 
ATOM     22  C   UNL     1       2.552  15.886  18.415  0.00  0.00    +0.000 A 
ATOM     23  C   UNL     1       2.215  14.599  18.942  0.00  0.00    +0.000 A 
ENDBRANCH  16  18
ENDBRANCH   2  13
BRANCH  11  24
ATOM     24  O   UNL     1       2.381   4.251  21.033  0.00  0.00    +0.000 OA
BRANCH  24  25
ATOM     25  C   UNL     1       2.115   2.919  21.249  0.00  0.00    +0.000 C 
ATOM     26  F   UNL     1       3.148   2.392  21.943  0.00  0.00    +0.000 F 
ATOM     27  F   UNL     1       1.055   2.904  22.119  0.00  0.00    +0.000 F 
ENDBRANCH  24  25
ENDBRANCH  11  24
TORSDOF 4
ENDMDL
MODEL 5
REMARK VINA RESULT:      -8.1      3.446      5.173
REMARK  Name = 
REMARK  4 active torsions:
REMARK  status: ('A' for Active; 'I' for Inactive)
REMARK    1  A    between atoms: C_2  and  C_3
REMARK    2  A    between atoms: C_6  and  C_7
REMARK    3  A    between atoms: C_22  and  O_23
REMARK    4  A    between atoms: O_23  and  C_24
REMARK                            x       y       z     vdW  Elec       q    Type
REMARK                         _______ _______ _______ _____ _____    ______ ____
ROOT
ATOM      1  O   UNL     1       2.325   5.046  20.898  0.00  0.00    +0.000 OA
ATOM      2  C   UNL     1       2.571   5.821  19.972  0.00  0.00    +0.000 C 
ATOM      3  N   UNL     1       1.780   7.332  19.991  0.00  0.00    +0.000 N 
ATOM      4  C   UNL     1       2.600   7.444  18.846  0.00  0.00    +0.000 C 
ATOM      5  C   UNL     1       2.733   8.421  17.739  0.00  0.00    +0.000 C 
ATOM      6  C   UNL     1       2.138   9.744  17.672  0.00  0.00    +0.000 C 
ATOM      7  C   UNL     1       1.261   9.843  18.865  0.00  0.00    +0.000 A 
ATOM      8  C   UNL     1       0.704  11.174  18.716  0.00  0.00    +0.000 A 
ATOM      9  C   UNL     1      -0.148  11.700  19.610  0.00  0.00    +0.000 A 
ATOM     10  C   UNL     1      -0.438  10.848  20.638  0.00  0.00    +0.000 A 
ATOM     11  C   UNL     1       0.097   9.460  20.843  0.00  0.00    +0.000 A 
ATOM     12  C   UNL     1       1.037   8.829  19.927  0.00  0.00    +0.000 A 
ENDROOT
BRANCH   2  13
ATOM     13  C   UNL     1       3.728   5.204  18.755  0.00  0.00    +0.000 A 
ATOM     14  C   UNL     1       4.912   4.511  19.002  0.00  0.00    +0.000 A 
ATOM     15  O   UNL     1       5.573   4.198  17.827  0.00  0.00    +0.000 OA
ATOM     16  C   UNL     1       4.836   4.711  16.783  0.00  0.00    +0.000 A 
ATOM     17  N   UNL     1       3.710   5.292  17.258  0.00  0.00    +0.000 NA
BRANCH  16  18
ATOM     18  C   UNL     1       5.515   4.573  15.386  0.00  0.00    +0.000 A 
ATOM     19  C   UNL     1       4.978   3.784  14.320  0.00  0.00    +0.000 A 
ATOM     20  C   UNL     1       5.638   3.584  13.066  0.00  0.00    +0.000 A 
ATOM     21  C   UNL     1       6.870   4.171  12.818  0.00  0.00    +0.000 A 
ATOM     22  C   UNL     1       7.424   4.960  13.821  0.00  0.00    +0.000 A 
ATOM     23  C   UNL     1       6.759   5.161  15.072  0.00  0.00    +0.000 A 
ENDBRANCH  16  18
ENDBRANCH   2  13
BRANCH  11  24
ATOM     24  O   UNL     1      -0.584   9.229  21.979  0.00  0.00    +0.000 OA
BRANCH  24  25
ATOM     25  C   UNL     1      -0.456   9.315  23.346  0.00  0.00    +0.000 C 
ATOM     26  F   UNL     1       0.856   9.464  23.637  0.00  0.00    +0.000 F 
ATOM     27  F   UNL     1      -1.036  10.511  23.683  0.00  0.00    +0.000 F 
ENDBRANCH  24  25
ENDBRANCH  11  24
TORSDOF 4
ENDMDL
MODEL 6
REMARK VINA RESULT:      -8.0      0.875      1.023
REMARK  Name = 
REMARK  4 active torsions:
REMARK  status: ('A' for Active; 'I' for Inactive)
REMARK    1  A    between atoms: C_2  and  C_3
REMARK    2  A    between atoms: C_6  and  C_7
REMARK    3  A    between atoms: C_22  and  O_23
REMARK    4  A    between atoms: O_23  and  C_24
REMARK                            x       y       z     vdW  Elec       q    Type
REMARK                         _______ _______ _______ _____ _____    ______ ____
ROOT
ATOM      1  O   UNL     1       0.222  11.105  21.115  0.00  0.00    +0.000 OA
ATOM      2  C   UNL     1      -0.144  10.738  19.997  0.00  0.00    +0.000 C 
ATOM      3  N   UNL     1      -1.701  11.214  19.493  0.00  0.00    +0.000 N 
ATOM      4  C   UNL     1      -1.224  10.522  18.357  0.00  0.00    +0.000 C 
ATOM      5  C   UNL     1      -1.819  10.061  17.079  0.00  0.00    +0.000 C 
ATOM      6  C   UNL     1      -3.114  10.435  16.540  0.00  0.00    +0.000 C 
ATOM      7  C   UNL     1      -3.764  11.246  17.599  0.00  0.00    +0.000 A 
ATOM      8  C   UNL     1      -5.041  11.564  16.989  0.00  0.00    +0.000 A 
ATOM      9  C   UNL     1      -5.962  12.322  17.604  0.00  0.00    +0.000 A 
ATOM     10  C   UNL     1      -5.573  12.729  18.850  0.00  0.00    +0.000 A 
ATOM     11  C   UNL     1      -4.274  12.426  19.538  0.00  0.00    +0.000 A 
ATOM     12  C   UNL     1      -3.220  11.627  18.928  0.00  0.00    +0.000 A 
ENDROOT
BRANCH   2  13
ATOM     13  C   UNL     1       1.046   9.750  19.097  0.00  0.00    +0.000 A 
ATOM     14  C   UNL     1       1.779  10.138  17.976  0.00  0.00    +0.000 A 
ATOM     15  O   UNL     1       2.595   9.116  17.523  0.00  0.00    +0.000 OA
ATOM     16  C   UNL     1       2.387   8.023  18.335  0.00  0.00    +0.000 A 
ATOM     17  N   UNL     1       1.505   8.338  19.311  0.00  0.00    +0.000 NA
BRANCH  16  18
ATOM     18  C   UNL     1       3.127   6.730  17.875  0.00  0.00    +0.000 A 
ATOM     19  C   UNL     1       4.373   6.740  17.173  0.00  0.00    +0.000 A 
ATOM     20  C   UNL     1       5.016   5.563  16.673  0.00  0.00    +0.000 A 
ATOM     21  C   UNL     1       4.439   4.315  16.858  0.00  0.00    +0.000 A 
ATOM     22  C   UNL     1       3.234   4.255  17.549  0.00  0.00    +0.000 A 
ATOM     23  C   UNL     1       2.597   5.434  18.051  0.00  0.00    +0.000 A 
ENDBRANCH  16  18
ENDBRANCH   2  13
BRANCH  11  24
ATOM     24  O   UNL     1      -4.570  13.096  20.666  0.00  0.00    +0.000 OA
BRANCH  24  25
ATOM     25  C   UNL     1      -4.267  14.257  21.338  0.00  0.00    +0.000 C 
ATOM     26  F   UNL     1      -4.002  15.216  20.423  0.00  0.00    +0.000 F 
ATOM     27  F   UNL     1      -5.442  14.642  21.930  0.00  0.00    +0.000 F 
ENDBRANCH  24  25
ENDBRANCH  11  24
TORSDOF 4
ENDMDL
MODEL 7
REMARK VINA RESULT:      -8.0      4.430      9.540
REMARK  Name = 
REMARK  4 active torsions:
REMARK  status: ('A' for Active; 'I' for Inactive)
REMARK    1  A    between atoms: C_2  and  C_3
REMARK    2  A    between atoms: C_6  and  C_7
REMARK    3  A    between atoms: C_22  and  O_23
REMARK    4  A    between atoms: O_23  and  C_24
REMARK                            x       y       z     vdW  Elec       q    Type
REMARK                         _______ _______ _______ _____ _____    ______ ____
ROOT
ATOM      1  O   UNL     1       2.270   9.869  17.184  0.00  0.00    +0.000 OA
ATOM      2  C   UNL     1       1.937   9.245  18.194  0.00  0.00    +0.000 C 
ATOM      3  N   UNL     1       2.545   7.661  18.363  0.00  0.00    +0.000 N 
ATOM      4  C   UNL     1       1.819   7.827  19.563  0.00  0.00    +0.000 C 
ATOM      5  C   UNL     1       1.413   6.938  20.679  0.00  0.00    +0.000 C 
ATOM      6  C   UNL     1       1.896   5.593  20.937  0.00  0.00    +0.000 C 
ATOM      7  C   UNL     1       2.756   5.253  19.778  0.00  0.00    +0.000 A 
ATOM      8  C   UNL     1       3.183   3.907  20.109  0.00  0.00    +0.000 A 
ATOM      9  C   UNL     1       4.015   3.204  19.323  0.00  0.00    +0.000 A 
ATOM     10  C   UNL     1       4.384   3.880  18.195  0.00  0.00    +0.000 A 
ATOM     11  C   UNL     1       3.971   5.267  17.793  0.00  0.00    +0.000 A 
ATOM     12  C   UNL     1       3.087   6.097  18.600  0.00  0.00    +0.000 A 
ENDROOT
BRANCH   2  13
ATOM     13  C   UNL     1       0.855  10.130  19.310  0.00  0.00    +0.000 A 
ATOM     14  C   UNL     1      -0.537  10.061  19.356  0.00  0.00    +0.000 A 
ATOM     15  O   UNL     1      -1.056  10.893  20.332  0.00  0.00    +0.000 OA
ATOM     16  C   UNL     1      -0.000  11.545  20.931  0.00  0.00    +0.000 A 
ATOM     17  N   UNL     1       1.166  11.116  20.396  0.00  0.00    +0.000 NA
BRANCH  16  18
ATOM     18  C   UNL     1      -0.420  12.635  21.963  0.00  0.00    +0.000 A 
ATOM     19  C   UNL     1      -1.442  12.441  22.946  0.00  0.00    +0.000 A 
ATOM     20  C   UNL     1      -1.890  13.463  23.841  0.00  0.00    +0.000 A 
ATOM     21  C   UNL     1      -1.332  14.732  23.797  0.00  0.00    +0.000 A 
ATOM     22  C   UNL     1      -0.324  14.963  22.866  0.00  0.00    +0.000 A 
ATOM     23  C   UNL     1       0.126  13.936  21.977  0.00  0.00    +0.000 A 
ENDBRANCH  16  18
ENDBRANCH   2  13
BRANCH  11  24
ATOM     24  O   UNL     1       4.660   5.274  16.639  0.00  0.00    +0.000 OA
BRANCH  24  25
ATOM     25  C   UNL     1       5.544   6.044  15.919  0.00  0.00    +0.000 C 
ATOM     26  F   UNL     1       4.841   7.003  15.278  0.00  0.00    +0.000 F 
ATOM     27  F   UNL     1       6.284   6.710  16.861  0.00  0.00    +0.000 F 
ENDBRANCH  24  25
ENDBRANCH  11  24
TORSDOF 4
ENDMDL
MODEL 8
REMARK VINA RESULT:      -8.0      4.171      9.330
REMARK  Name = 
REMARK  4 active torsions:
REMARK  status: ('A' for Active; 'I' for Inactive)
REMARK    1  A    between atoms: C_2  and  C_3
REMARK    2  A    between atoms: C_6  and  C_7
REMARK    3  A    between atoms: C_22  and  O_23
REMARK    4  A    between atoms: O_23  and  C_24
REMARK                            x       y       z     vdW  Elec       q    Type
REMARK                         _______ _______ _______ _____ _____    ______ ____
ROOT
ATOM      1  O   UNL     1       2.229  10.477  17.419  0.00  0.00    +0.000 OA
ATOM      2  C   UNL     1       1.878   9.852  18.422  0.00  0.00    +0.000 C 
ATOM      3  N   UNL     1       2.351   8.217  18.523  0.00  0.00    +0.000 N 
ATOM      4  C   UNL     1       1.683   8.407  19.754  0.00  0.00    +0.000 C 
ATOM      5  C   UNL     1       1.239   7.521  20.857  0.00  0.00    +0.000 C 
ATOM      6  C   UNL     1       1.612   6.132  21.059  0.00  0.00    +0.000 C 
ATOM      7  C   UNL     1       2.399   5.756  19.860  0.00  0.00    +0.000 A 
ATOM      8  C   UNL     1       2.718   4.368  20.136  0.00  0.00    +0.000 A 
ATOM      9  C   UNL     1       3.458   3.622  19.301  0.00  0.00    +0.000 A 
ATOM     10  C   UNL     1       3.846   4.299  18.180  0.00  0.00    +0.000 A 
ATOM     11  C   UNL     1       3.542   5.728  17.833  0.00  0.00    +0.000 A 
ATOM     12  C   UNL     1       2.762   6.605  18.695  0.00  0.00    +0.000 A 
ENDROOT
BRANCH   2  13
ATOM     13  C   UNL     1       0.915  10.791  19.602  0.00  0.00    +0.000 A 
ATOM     14  C   UNL     1       1.402  11.533  20.677  0.00  0.00    +0.000 A 
ATOM     15  O   UNL     1       0.375  12.119  21.396  0.00  0.00    +0.000 OA
ATOM     16  C   UNL     1      -0.814  11.745  20.810  0.00  0.00    +0.000 A 
ATOM     17  N   UNL     1      -0.567  10.983  19.720  0.00  0.00    +0.000 NA
BRANCH  16  18
ATOM     18  C   UNL     1      -2.086  12.204  21.586  0.00  0.00    +0.000 A 
ATOM     19  C   UNL     1      -2.248  12.050  23.000  0.00  0.00    +0.000 A 
ATOM     20  C   UNL     1      -3.445  12.392  23.706  0.00  0.00    +0.000 A 
ATOM     21  C   UNL     1      -4.539  12.908  23.027  0.00  0.00    +0.000 A 
ATOM     22  C   UNL     1      -4.422  13.088  21.653  0.00  0.00    +0.000 A 
ATOM     23  C   UNL     1      -3.221  12.751  20.952  0.00  0.00    +0.000 A 
ENDBRANCH  16  18
ENDBRANCH   2  13
BRANCH  11  24
ATOM     24  O   UNL     1       4.190   5.713  16.655  0.00  0.00    +0.000 OA
BRANCH  24  25
ATOM     25  C   UNL     1       5.267   6.278  16.012  0.00  0.00    +0.000 C 
ATOM     26  F   UNL     1       4.796   7.107  15.053  0.00  0.00    +0.000 F 
ATOM     27  F   UNL     1       5.846   7.101  16.944  0.00  0.00    +0.000 F 
ENDBRANCH  24  25
ENDBRANCH  11  24
TORSDOF 4
ENDMDL
MODEL 9
REMARK VINA RESULT:      -7.9      4.822      9.865
REMARK  Name = 
REMARK  4 active torsions:
REMARK  status: ('A' for Active; 'I' for Inactive)
REMARK    1  A    between atoms: C_2  and  C_3
REMARK    2  A    between atoms: C_6  and  C_7
REMARK    3  A    between atoms: C_22  and  O_23
REMARK    4  A    between atoms: O_23  and  C_24
REMARK                            x       y       z     vdW  Elec       q    Type
REMARK                         _______ _______ _______ _____ _____    ______ ____
ROOT
ATOM      1  O   UNL     1       2.638   8.796  17.463  0.00  0.00    +0.000 OA
ATOM      2  C   UNL     1       2.262   8.123  18.425  0.00  0.00    +0.000 C 
ATOM      3  N   UNL     1       2.608   6.454  18.389  0.00  0.00    +0.000 N 
ATOM      4  C   UNL     1       1.984   6.597  19.648  0.00  0.00    +0.000 C 
ATOM      5  C   UNL     1       1.497   5.665  20.693  0.00  0.00    +0.000 C 
ATOM      6  C   UNL     1       1.764   4.240  20.778  0.00  0.00    +0.000 C 
ATOM      7  C   UNL     1       2.493   3.900  19.532  0.00  0.00    +0.000 A 
ATOM      8  C   UNL     1       2.708   2.474  19.692  0.00  0.00    +0.000 A 
ATOM      9  C   UNL     1       3.369   1.741  18.782  0.00  0.00    +0.000 A 
ATOM     10  C   UNL     1       3.784   2.473  17.705  0.00  0.00    +0.000 A 
ATOM     11  C   UNL     1       3.585   3.943  17.477  0.00  0.00    +0.000 A 
ATOM     12  C   UNL     1       2.895   4.807  18.426  0.00  0.00    +0.000 A 
ENDROOT
BRANCH   2  13
ATOM     13  C   UNL     1       1.402   9.037  19.700  0.00  0.00    +0.000 A 
ATOM     14  C   UNL     1       1.580   8.922  21.078  0.00  0.00    +0.000 A 
ATOM     15  O   UNL     1       0.735   9.769  21.773  0.00  0.00    +0.000 OA
ATOM     16  C   UNL     1      -0.035  10.441  20.850  0.00  0.00    +0.000 A 
ATOM     17  N   UNL     1       0.330  10.081  19.599  0.00  0.00    +0.000 NA
BRANCH  16  18
ATOM     18  C   UNL     1      -1.149  11.338  21.473  0.00  0.00    +0.000 A 
ATOM     19  C   UNL     1      -1.477  11.337  22.866  0.00  0.00    +0.000 A 
ATOM     20  C   UNL     1      -2.552  12.094  23.432  0.00  0.00    +0.000 A 
ATOM     21  C   UNL     1      -3.350  12.893  22.626  0.00  0.00    +0.000 A 
ATOM     22  C   UNL     1      -3.059  12.936  21.267  0.00  0.00    +0.000 A 
ATOM     23  C   UNL     1      -1.979  12.182  20.706  0.00  0.00    +0.000 A 
ENDBRANCH  16  18
ENDBRANCH   2  13
BRANCH  11  24
ATOM     24  O   UNL     1       4.203   3.971  16.284  0.00  0.00    +0.000 OA
BRANCH  24  25
ATOM     25  C   UNL     1       5.327   4.468  15.665  0.00  0.00    +0.000 C 
ATOM     26  F   UNL     1       6.373   3.680  16.000  0.00  0.00    +0.000 F 
ATOM     27  F   UNL     1       5.124   4.245  14.327  0.00  0.00    +0.000 F 
ENDBRANCH  24  25
ENDBRANCH  11  24
TORSDOF 4
ENDMDL
