MODEL 1
REMARK VINA RESULT:      -7.9      0.000      0.000
REMARK  Name = 
REMARK  12 active torsions:
REMARK  status: ('A' for Active; 'I' for Inactive)
REMARK    1  A    between atoms: C_1  and  O_2
REMARK    2  A    between atoms: O_2  and  C_3
REMARK    3  A    between atoms: C_10  and  C_11
REMARK    4  A    between atoms: C_11  and  C_12
REMARK    5  A    between atoms: C_11  and  N_20
REMARK    6  A    between atoms: C_12  and  C_13
REMARK    7  A    between atoms: C_13  and  C_14
REMARK    8  A    between atoms: C_14  and  N_15
REMARK    9  A    between atoms: C_16  and  C_18
REMARK   10  A    between atoms: C_21  and  C_23
REMARK   11  A    between atoms: N_31  and  C_32
REMARK   12  A    between atoms: N_34  and  C_35
REMARK                            x       y       z     vdW  Elec       q    Type
REMARK                         _______ _______ _______ _____ _____    ______ ____
ROOT
ATOM      1  C   UNL     1       0.583   9.717  20.420  0.00  0.00    +0.000 C 
ENDROOT
BRANCH   1   9
ATOM      2  C   UNL     1       2.555   5.140  20.481  0.00  0.00    +0.000 A 
ATOM      3  C   UNL     1       3.399   4.439  19.605  0.00  0.00    +0.000 A 
ATOM      4  C   UNL     1       3.836   5.010  18.410  0.00  0.00    +0.000 A 
ATOM      5  C   UNL     1       3.444   6.298  18.041  0.00  0.00    +0.000 A 
ATOM      6  C   UNL     1       2.597   6.989  18.918  0.00  0.00    +0.000 A 
ATOM      7  C   UNL     1       2.151   6.447  20.121  0.00  0.00    +0.000 A 
ATOM      8  N   UNL     1       1.347   7.354  20.769  0.00  0.00    +0.000 NA
ATOM      9  C   UNL     1       1.306   8.445  20.023  0.00  0.00    +0.000 A 
ATOM     10  N   UNL     1       2.023   8.247  18.864  0.00  0.00    +0.000 N 
ATOM     11  C   UNL     1       2.199   9.152  17.757  0.00  0.00    +0.000 C 
BRANCH   2  13
ATOM     12  C   UNL     1       2.102   3.026  21.458  0.00  0.00    +0.000 C 
ATOM     13  O   UNL     1       2.204   4.436  21.628  0.00  0.00    +0.000 OA
ENDBRANCH   2  13
ENDBRANCH   1   9
BRANCH   1  14
ATOM     14  N   UNL     1      -0.567   9.849  19.537  0.00  0.00    +0.000 N 
ATOM     15  C   UNL     1      -0.818  10.955  18.772  0.00  0.00    +0.000 C 
ATOM     16  O   UNL     1      -0.024  11.890  18.694  0.00  0.00    +0.000 OA
ATOM     17  H   UNL     1      -1.295   9.153  19.704  0.00  0.00    +0.000 HD
BRANCH  15  18
ATOM     18  C   UNL     1      -2.078  11.004  17.976  0.00  0.00    +0.000 A 
ATOM     19  C   UNL     1      -2.045  10.393  16.707  0.00  0.00    +0.000 A 
ATOM     20  C   UNL     1      -3.180  10.349  15.876  0.00  0.00    +0.000 A 
ATOM     21  C   UNL     1      -4.384  10.919  16.288  0.00  0.00    +0.000 A 
ATOM     22  C   UNL     1      -4.419  11.536  17.525  0.00  0.00    +0.000 A 
ATOM     23  C   UNL     1      -3.280  11.589  18.352  0.00  0.00    +0.000 A 
ATOM     24  C   UNL     1      -3.668  12.357  19.547  0.00  0.00    +0.000 C 
ATOM     25  O   UNL     1      -2.935  12.647  20.471  0.00  0.00    +0.000 OA
ATOM     26  N   UNL     1      -5.005  12.667  19.425  0.00  0.00    +0.000 N 
ATOM     27  C   UNL     1      -5.786  13.335  20.440  0.00  0.00    +0.000 C 
ATOM     28  C   UNL     1      -5.579  12.219  18.178  0.00  0.00    +0.000 C 
ENDBRANCH  15  18
ENDBRANCH   1  14
BRANCH   1  29
ATOM     29  C   UNL     1       0.150   9.728  21.896  0.00  0.00    +0.000 C 
BRANCH  29  30
ATOM     30  C   UNL     1      -0.157  11.116  22.465  0.00  0.00    +0.000 C 
BRANCH  30  31
ATOM     31  C   UNL     1      -1.531  11.096  23.126  0.00  0.00    +0.000 C 
BRANCH  31  32
ATOM     32  N   UNL     1      -2.032  12.436  23.315  0.00  0.00    +0.000 N 
ATOM     33  C   UNL     1      -3.242  12.758  23.883  0.00  0.00    +0.000 C 
ATOM     34  N   UNL     1      -4.150  11.879  24.171  0.00  0.00    +0.000 NA
ATOM     35  H   UNL     1      -1.326  13.172  23.348  0.00  0.00    +0.000 HD
ATOM     36  H   UNL     1      -3.815  10.944  23.942  0.00  0.00    +0.000 HD
BRANCH  33  37
ATOM     37  C   UNL     1      -3.588  14.219  24.138  0.00  0.00    +0.000 C 
ATOM     38 CL   UNL     1      -2.310  15.011  25.084  0.00  0.00    +0.000 Cl
ENDBRANCH  33  37
ENDBRANCH  31  32
ENDBRANCH  30  31
ENDBRANCH  29  30
ENDBRANCH   1  29
TORSDOF 9
ENDMDL
MODEL 2
REMARK VINA RESULT:      -7.6      3.444      8.350
REMARK  Name = 
REMARK  12 active torsions:
REMARK  status: ('A' for Active; 'I' for Inactive)
REMARK    1  A    between atoms: C_1  and  O_2
REMARK    2  A    between atoms: O_2  and  C_3
REMARK    3  A    between atoms: C_10  and  C_11
REMARK    4  A    between atoms: C_11  and  C_12
REMARK    5  A    between atoms: C_11  and  N_20
REMARK    6  A    between atoms: C_12  and  C_13
REMARK    7  A    between atoms: C_13  and  C_14
REMARK    8  A    between atoms: C_14  and  N_15
REMARK    9  A    between atoms: C_16  and  C_18
REMARK   10  A    between atoms: C_21  and  C_23
REMARK   11  A    between atoms: N_31  and  C_32
REMARK   12  A    between atoms: N_34  and  C_35
REMARK                            x       y       z     vdW  Elec       q    Type
REMARK                         _______ _______ _______ _____ _____    ______ ____
ROOT
ATOM      1  C   UNL     1       1.206  10.165  19.102  0.00  0.00    +0.000 C 
ENDROOT
BRANCH   1   9
ATOM      2  C   UNL     1      -3.026  10.294  16.471  0.00  0.00    +0.000 A 
ATOM      3  C   UNL     1      -4.269  10.916  16.670  0.00  0.00    +0.000 A 
ATOM      4  C   UNL     1      -4.527  11.666  17.817  0.00  0.00    +0.000 A 
ATOM      5  C   UNL     1      -3.559  11.820  18.811  0.00  0.00    +0.000 A 
ATOM      6  C   UNL     1      -2.323  11.192  18.608  0.00  0.00    +0.000 A 
ATOM      7  C   UNL     1      -2.034  10.444  17.469  0.00  0.00    +0.000 A 
ATOM      8  N   UNL     1      -0.749   9.961  17.544  0.00  0.00    +0.000 NA
ATOM      9  C   UNL     1      -0.228  10.410  18.674  0.00  0.00    +0.000 A 
ATOM     10  N   UNL     1      -1.171  11.131  19.372  0.00  0.00    +0.000 N 
ATOM     11  C   UNL     1      -1.043  11.753  20.665  0.00  0.00    +0.000 C 
BRANCH   2  13
ATOM     12  C   UNL     1      -3.704  10.092  14.208  0.00  0.00    +0.000 C 
ATOM     13  O   UNL     1      -2.923   9.581  15.282  0.00  0.00    +0.000 OA
ENDBRANCH   2  13
ENDBRANCH   1   9
BRANCH   1  14
ATOM     14  N   UNL     1       1.439   8.731  19.014  0.00  0.00    +0.000 N 
ATOM     15  C   UNL     1       1.738   7.940  20.091  0.00  0.00    +0.000 C 
ATOM     16  O   UNL     1       1.728   8.371  21.242  0.00  0.00    +0.000 OA
ATOM     17  H   UNL     1       1.593   8.397  18.062  0.00  0.00    +0.000 HD
BRANCH  15  18
ATOM     18  C   UNL     1       2.043   6.499  19.858  0.00  0.00    +0.000 A 
ATOM     19  C   UNL     1       1.423   5.577  20.724  0.00  0.00    +0.000 A 
ATOM     20  C   UNL     1       1.610   4.188  20.584  0.00  0.00    +0.000 A 
ATOM     21  C   UNL     1       2.426   3.680  19.575  0.00  0.00    +0.000 A 
ATOM     22  C   UNL     1       3.052   4.581  18.732  0.00  0.00    +0.000 A 
ATOM     23  C   UNL     1       2.873   5.970  18.878  0.00  0.00    +0.000 A 
ATOM     24  C   UNL     1       3.720   6.609  17.858  0.00  0.00    +0.000 C 
ATOM     25  O   UNL     1       3.859   7.805  17.701  0.00  0.00    +0.000 OA
ATOM     26  N   UNL     1       4.304   5.605  17.115  0.00  0.00    +0.000 N 
ATOM     27  C   UNL     1       5.134   5.824  15.953  0.00  0.00    +0.000 C 
ATOM     28  C   UNL     1       3.972   4.283  17.591  0.00  0.00    +0.000 C 
ENDBRANCH  15  18
ENDBRANCH   1  14
BRANCH   1  29
ATOM     29  C   UNL     1       2.228  10.943  18.256  0.00  0.00    +0.000 C 
BRANCH  29  30
ATOM     30  C   UNL     1       1.987  12.454  18.185  0.00  0.00    +0.000 C 
BRANCH  30  31
ATOM     31  C   UNL     1       2.432  13.096  19.495  0.00  0.00    +0.000 C 
BRANCH  31  32
ATOM     32  N   UNL     1       2.622  14.517  19.334  0.00  0.00    +0.000 N 
ATOM     33  C   UNL     1       3.509  15.106  18.465  0.00  0.00    +0.000 C 
ATOM     34  N   UNL     1       4.399  14.442  17.796  0.00  0.00    +0.000 NA
ATOM     35  H   UNL     1       1.837  15.104  19.619  0.00  0.00    +0.000 HD
ATOM     36  H   UNL     1       4.312  13.445  17.994  0.00  0.00    +0.000 HD
BRANCH  33  37
ATOM     37  C   UNL     1       3.514  16.621  18.307  0.00  0.00    +0.000 C 
ATOM     38 CL   UNL     1       2.803  17.092  16.749  0.00  0.00    +0.000 Cl
ENDBRANCH  33  37
ENDBRANCH  31  32
ENDBRANCH  30  31
ENDBRANCH  29  30
ENDBRANCH   1  29
TORSDOF 9
ENDMDL
MODEL 3
REMARK VINA RESULT:      -7.5      1.805      2.058
REMARK  Name = 
REMARK  12 active torsions:
REMARK  status: ('A' for Active; 'I' for Inactive)
REMARK    1  A    between atoms: C_1  and  O_2
REMARK    2  A    between atoms: O_2  and  C_3
REMARK    3  A    between atoms: C_10  and  C_11
REMARK    4  A    between atoms: C_11  and  C_12
REMARK    5  A    between atoms: C_11  and  N_20
REMARK    6  A    between atoms: C_12  and  C_13
REMARK    7  A    between atoms: C_13  and  C_14
REMARK    8  A    between atoms: C_14  and  N_15
REMARK    9  A    between atoms: C_16  and  C_18
REMARK   10  A    between atoms: C_21  and  C_23
REMARK   11  A    between atoms: N_31  and  C_32
REMARK   12  A    between atoms: N_34  and  C_35
REMARK                            x       y       z     vdW  Elec       q    Type
REMARK                         _______ _______ _______ _____ _____    ______ ____
ROOT
ATOM      1  C   UNL     1       0.729   9.506  20.422  0.00  0.00    +0.000 C 
ENDROOT
BRANCH   1   9
ATOM      2  C   UNL     1       2.595   4.885  20.473  0.00  0.00    +0.000 A 
ATOM      3  C   UNL     1       3.435   4.171  19.603  0.00  0.00    +0.000 A 
ATOM      4  C   UNL     1       3.900   4.742  18.418  0.00  0.00    +0.000 A 
ATOM      5  C   UNL     1       3.543   6.041  18.054  0.00  0.00    +0.000 A 
ATOM      6  C   UNL     1       2.700   6.745  18.925  0.00  0.00    +0.000 A 
ATOM      7  C   UNL     1       2.226   6.203  20.118  0.00  0.00    +0.000 A 
ATOM      8  N   UNL     1       1.434   7.124  20.763  0.00  0.00    +0.000 NA
ATOM      9  C   UNL     1       1.428   8.221  20.025  0.00  0.00    +0.000 A 
ATOM     10  N   UNL     1       2.155   8.015  18.874  0.00  0.00    +0.000 N 
ATOM     11  C   UNL     1       2.366   8.924  17.776  0.00  0.00    +0.000 C 
BRANCH   2  13
ATOM     12  C   UNL     1       1.551   2.946  21.355  0.00  0.00    +0.000 C 
ATOM     13  O   UNL     1       2.213   4.180  21.609  0.00  0.00    +0.000 OA
ENDBRANCH   2  13
ENDBRANCH   1   9
BRANCH   1  14
ATOM     14  N   UNL     1      -0.442   9.638  19.568  0.00  0.00    +0.000 N 
ATOM     15  C   UNL     1      -0.680  10.717  18.761  0.00  0.00    +0.000 C 
ATOM     16  O   UNL     1       0.142  11.620  18.618  0.00  0.00    +0.000 OA
ATOM     17  H   UNL     1      -1.187   8.975  19.787  0.00  0.00    +0.000 HD
BRANCH  15  18
ATOM     18  C   UNL     1      -1.960  10.775  18.000  0.00  0.00    +0.000 A 
ATOM     19  C   UNL     1      -2.000  10.069  16.781  0.00  0.00    +0.000 A 
ATOM     20  C   UNL     1      -3.163  10.024  15.989  0.00  0.00    +0.000 A 
ATOM     21  C   UNL     1      -4.322  10.687  16.390  0.00  0.00    +0.000 A 
ATOM     22  C   UNL     1      -4.285  11.397  17.577  0.00  0.00    +0.000 A 
ATOM     23  C   UNL     1      -3.118  11.450  18.365  0.00  0.00    +0.000 A 
ATOM     24  C   UNL     1      -3.426  12.325  19.508  0.00  0.00    +0.000 C 
ATOM     25  O   UNL     1      -2.650  12.643  20.385  0.00  0.00    +0.000 OA
ATOM     26  N   UNL     1      -4.750  12.696  19.401  0.00  0.00    +0.000 N 
ATOM     27  C   UNL     1      -5.462  13.479  20.383  0.00  0.00    +0.000 C 
ATOM     28  C   UNL     1      -5.386  12.188  18.208  0.00  0.00    +0.000 C 
ENDBRANCH  15  18
ENDBRANCH   1  14
BRANCH   1  29
ATOM     29  C   UNL     1       0.335   9.542  21.909  0.00  0.00    +0.000 C 
BRANCH  29  30
ATOM     30  C   UNL     1      -0.920  10.363  22.221  0.00  0.00    +0.000 C 
BRANCH  30  31
ATOM     31  C   UNL     1      -0.508  11.757  22.680  0.00  0.00    +0.000 C 
BRANCH  31  32
ATOM     32  N   UNL     1      -0.067  12.558  21.563  0.00  0.00    +0.000 N 
ATOM     33  C   UNL     1       0.452  13.828  21.654  0.00  0.00    +0.000 C 
ATOM     34  N   UNL     1       0.456  14.519  22.750  0.00  0.00    +0.000 NA
ATOM     35  H   UNL     1       0.192  12.041  20.722  0.00  0.00    +0.000 HD
ATOM     36  H   UNL     1       0.052  13.972  23.509  0.00  0.00    +0.000 HD
BRANCH  33  37
ATOM     37  C   UNL     1       0.997  14.508  20.405  0.00  0.00    +0.000 C 
ATOM     38 CL   UNL     1       2.635  13.926  20.037  0.00  0.00    +0.000 Cl
ENDBRANCH  33  37
ENDBRANCH  31  32
ENDBRANCH  30  31
ENDBRANCH  29  30
ENDBRANCH   1  29
TORSDOF 9
ENDMDL
MODEL 4
REMARK VINA RESULT:      -7.5      1.293      1.548
REMARK  Name = 
REMARK  12 active torsions:
REMARK  status: ('A' for Active; 'I' for Inactive)
REMARK    1  A    between atoms: C_1  and  O_2
REMARK    2  A    between atoms: O_2  and  C_3
REMARK    3  A    between atoms: C_10  and  C_11
REMARK    4  A    between atoms: C_11  and  C_12
REMARK    5  A    between atoms: C_11  and  N_20
REMARK    6  A    between atoms: C_12  and  C_13
REMARK    7  A    between atoms: C_13  and  C_14
REMARK    8  A    between atoms: C_14  and  N_15
REMARK    9  A    between atoms: C_16  and  C_18
REMARK   10  A    between atoms: C_21  and  C_23
REMARK   11  A    between atoms: N_31  and  C_32
REMARK   12  A    between atoms: N_34  and  C_35
REMARK                            x       y       z     vdW  Elec       q    Type
REMARK                         _______ _______ _______ _____ _____    ______ ____
ROOT
ATOM      1  C   UNL     1       1.428   8.639  20.162  0.00  0.00    +0.000 C 
ENDROOT
BRANCH   1   9
ATOM      2  C   UNL     1       2.448   3.810  19.471  0.00  0.00    +0.000 A 
ATOM      3  C   UNL     1       3.244   3.112  18.549  0.00  0.00    +0.000 A 
ATOM      4  C   UNL     1       3.931   3.781  17.535  0.00  0.00    +0.000 A 
ATOM      5  C   UNL     1       3.848   5.167  17.401  0.00  0.00    +0.000 A 
ATOM      6  C   UNL     1       3.047   5.856  18.322  0.00  0.00    +0.000 A 
ATOM      7  C   UNL     1       2.355   5.216  19.348  0.00  0.00    +0.000 A 
ATOM      8  N   UNL     1       1.667   6.143  20.094  0.00  0.00    +0.000 NA
ATOM      9  C   UNL     1       1.934   7.333  19.581  0.00  0.00    +0.000 A 
ATOM     10  N   UNL     1       2.739   7.196  18.473  0.00  0.00    +0.000 N 
ATOM     11  C   UNL     1       3.227   8.225  17.591  0.00  0.00    +0.000 C 
BRANCH   2  13
ATOM     12  C   UNL     1       2.474   2.956  21.683  0.00  0.00    +0.000 C 
ATOM     13  O   UNL     1       1.825   3.004  20.417  0.00  0.00    +0.000 OA
ENDBRANCH   2  13
ENDBRANCH   1   9
BRANCH   1  14
ATOM     14  N   UNL     1       0.200   8.974  19.455  0.00  0.00    +0.000 N 
ATOM     15  C   UNL     1       0.024  10.126  18.738  0.00  0.00    +0.000 C 
ATOM     16  O   UNL     1       0.939  10.925  18.548  0.00  0.00    +0.000 OA
ATOM     17  H   UNL     1      -0.599   8.399  19.723  0.00  0.00    +0.000 HD
BRANCH  15  18
ATOM     18  C   UNL     1      -1.311  10.395  18.131  0.00  0.00    +0.000 A 
ATOM     19  C   UNL     1      -1.616   9.700  16.944  0.00  0.00    +0.000 A 
ATOM     20  C   UNL     1      -2.857   9.848  16.297  0.00  0.00    +0.000 A 
ATOM     21  C   UNL     1      -3.831  10.700  16.815  0.00  0.00    +0.000 A 
ATOM     22  C   UNL     1      -3.532  11.399  17.970  0.00  0.00    +0.000 A 
ATOM     23  C   UNL     1      -2.287  11.258  18.613  0.00  0.00    +0.000 A 
ATOM     24  C   UNL     1      -2.304  12.180  19.761  0.00  0.00    +0.000 C 
ATOM     25  O   UNL     1      -1.385  12.366  20.532  0.00  0.00    +0.000 OA
ATOM     26  N   UNL     1      -3.549  12.769  19.802  0.00  0.00    +0.000 N 
ATOM     27  C   UNL     1      -3.996  13.667  20.841  0.00  0.00    +0.000 C 
ATOM     28  C   UNL     1      -4.401  12.369  18.706  0.00  0.00    +0.000 C 
ENDBRANCH  15  18
ENDBRANCH   1  14
BRANCH   1  29
ATOM     29  C   UNL     1       1.189   8.570  21.680  0.00  0.00    +0.000 C 
BRANCH  29  30
ATOM     30  C   UNL     1      -0.235   8.917  22.124  0.00  0.00    +0.000 C 
BRANCH  30  31
ATOM     31  C   UNL     1      -0.196  10.142  23.031  0.00  0.00    +0.000 C 
BRANCH  31  32
ATOM     32  N   UNL     1      -1.529  10.560  23.391  0.00  0.00    +0.000 N 
ATOM     33  C   UNL     1      -1.956  11.864  23.470  0.00  0.00    +0.000 C 
ATOM     34  N   UNL     1      -1.159  12.882  23.384  0.00  0.00    +0.000 NA
ATOM     35  H   UNL     1      -2.265   9.869  23.245  0.00  0.00    +0.000 HD
ATOM     36  H   UNL     1      -0.204  12.565  23.224  0.00  0.00    +0.000 HD
BRANCH  33  37
ATOM     37  C   UNL     1      -3.427  12.158  23.738  0.00  0.00    +0.000 C 
ATOM     38 CL   UNL     1      -3.613  13.709  24.585  0.00  0.00    +0.000 Cl
ENDBRANCH  33  37
ENDBRANCH  31  32
ENDBRANCH  30  31
ENDBRANCH  29  30
ENDBRANCH   1  29
TORSDOF 9
ENDMDL
MODEL 5
REMARK VINA RESULT:      -7.4      2.593      7.764
REMARK  Name = 
REMARK  12 active torsions:
REMARK  status: ('A' for Active; 'I' for Inactive)
REMARK    1  A    between atoms: C_1  and  O_2
REMARK    2  A    between atoms: O_2  and  C_3
REMARK    3  A    between atoms: C_10  and  C_11
REMARK    4  A    between atoms: C_11  and  C_12
REMARK    5  A    between atoms: C_11  and  N_20
REMARK    6  A    between atoms: C_12  and  C_13
REMARK    7  A    between atoms: C_13  and  C_14
REMARK    8  A    between atoms: C_14  and  N_15
REMARK    9  A    between atoms: C_16  and  C_18
REMARK   10  A    between atoms: C_21  and  C_23
REMARK   11  A    between atoms: N_31  and  C_32
REMARK   12  A    between atoms: N_34  and  C_35
REMARK                            x       y       z     vdW  Elec       q    Type
REMARK                         _______ _______ _______ _____ _____    ______ ____
ROOT
ATOM      1  C   UNL     1       0.968  10.382  19.220  0.00  0.00    +0.000 C 
ENDROOT
BRANCH   1   9
ATOM      2  C   UNL     1      -3.031  10.423  16.247  0.00  0.00    +0.000 A 
ATOM      3  C   UNL     1      -4.321  10.965  16.368  0.00  0.00    +0.000 A 
ATOM      4  C   UNL     1      -4.717  11.637  17.525  0.00  0.00    +0.000 A 
ATOM      5  C   UNL     1      -3.845  11.790  18.604  0.00  0.00    +0.000 A 
ATOM      6  C   UNL     1      -2.561  11.242  18.477  0.00  0.00    +0.000 A 
ATOM      7  C   UNL     1      -2.136  10.572  17.332  0.00  0.00    +0.000 A 
ATOM      8  N   UNL     1      -0.836  10.157  17.493  0.00  0.00    +0.000 NA
ATOM      9  C   UNL     1      -0.437  10.571  18.684  0.00  0.00    +0.000 A 
ATOM     10  N   UNL     1      -1.475  11.202  19.333  0.00  0.00    +0.000 N 
ATOM     11  C   UNL     1      -1.491  11.759  20.661  0.00  0.00    +0.000 C 
BRANCH   2  13
ATOM     12  C   UNL     1      -3.730  10.068  14.008  0.00  0.00    +0.000 C 
ATOM     13  O   UNL     1      -2.789   9.781  15.038  0.00  0.00    +0.000 OA
ENDBRANCH   2  13
ENDBRANCH   1   9
BRANCH   1  14
ATOM     14  N   UNL     1       1.282   8.965  19.106  0.00  0.00    +0.000 N 
ATOM     15  C   UNL     1       1.647   8.177  20.163  0.00  0.00    +0.000 C 
ATOM     16  O   UNL     1       1.634   8.589  21.321  0.00  0.00    +0.000 OA
ATOM     17  H   UNL     1       1.437   8.655  18.145  0.00  0.00    +0.000 HD
BRANCH  15  18
ATOM     18  C   UNL     1       2.030   6.760  19.902  0.00  0.00    +0.000 A 
ATOM     19  C   UNL     1       1.486   5.790  20.767  0.00  0.00    +0.000 A 
ATOM     20  C   UNL     1       1.750   4.418  20.602  0.00  0.00    +0.000 A 
ATOM     21  C   UNL     1       2.571   3.973  19.567  0.00  0.00    +0.000 A 
ATOM     22  C   UNL     1       3.124   4.920  18.724  0.00  0.00    +0.000 A 
ATOM     23  C   UNL     1       2.867   6.295  18.896  0.00  0.00    +0.000 A 
ATOM     24  C   UNL     1       3.651   6.997  17.867  0.00  0.00    +0.000 C 
ATOM     25  O   UNL     1       3.716   8.200  17.725  0.00  0.00    +0.000 OA
ATOM     26  N   UNL     1       4.276   6.039  17.096  0.00  0.00    +0.000 N 
ATOM     27  C   UNL     1       5.065   6.322  15.920  0.00  0.00    +0.000 C 
ATOM     28  C   UNL     1       4.033   4.693  17.559  0.00  0.00    +0.000 C 
ENDBRANCH  15  18
ENDBRANCH   1  14
BRANCH   1  29
ATOM     29  C   UNL     1       2.014  11.241  18.488  0.00  0.00    +0.000 C 
BRANCH  29  30
ATOM     30  C   UNL     1       1.904  12.746  18.745  0.00  0.00    +0.000 C 
BRANCH  30  31
ATOM     31  C   UNL     1       2.255  13.035  20.200  0.00  0.00    +0.000 C 
BRANCH  31  32
ATOM     32  N   UNL     1       1.191  13.757  20.855  0.00  0.00    +0.000 N 
ATOM     33  C   UNL     1       1.363  14.718  21.822  0.00  0.00    +0.000 C 
ATOM     34  N   UNL     1       2.506  14.975  22.377  0.00  0.00    +0.000 NA
ATOM     35  H   UNL     1       0.309  13.807  20.342  0.00  0.00    +0.000 HD
ATOM     36  H   UNL     1       3.231  14.387  21.969  0.00  0.00    +0.000 HD
BRANCH  33  37
ATOM     37  C   UNL     1       0.156  15.492  22.336  0.00  0.00    +0.000 C 
ATOM     38 CL   UNL     1      -0.944  14.420  23.229  0.00  0.00    +0.000 Cl
ENDBRANCH  33  37
ENDBRANCH  31  32
ENDBRANCH  30  31
ENDBRANCH  29  30
ENDBRANCH   1  29
TORSDOF 9
ENDMDL
MODEL 6
REMARK VINA RESULT:      -7.3      3.104      8.057
REMARK  Name = 
REMARK  12 active torsions:
REMARK  status: ('A' for Active; 'I' for Inactive)
REMARK    1  A    between atoms: C_1  and  O_2
REMARK    2  A    between atoms: O_2  and  C_3
REMARK    3  A    between atoms: C_10  and  C_11
REMARK    4  A    between atoms: C_11  and  C_12
REMARK    5  A    between atoms: C_11  and  N_20
REMARK    6  A    between atoms: C_12  and  C_13
REMARK    7  A    between atoms: C_13  and  C_14
REMARK    8  A    between atoms: C_14  and  N_15
REMARK    9  A    between atoms: C_16  and  C_18
REMARK   10  A    between atoms: C_21  and  C_23
REMARK   11  A    between atoms: N_31  and  C_32
REMARK   12  A    between atoms: N_34  and  C_35
REMARK                            x       y       z     vdW  Elec       q    Type
REMARK                         _______ _______ _______ _____ _____    ______ ____
ROOT
ATOM      1  C   UNL     1       1.212  10.093  19.078  0.00  0.00    +0.000 C 
ENDROOT
BRANCH   1   9
ATOM      2  C   UNL     1      -2.932  10.291  16.317  0.00  0.00    +0.000 A 
ATOM      3  C   UNL     1      -4.190  10.887  16.502  0.00  0.00    +0.000 A 
ATOM      4  C   UNL     1      -4.496  11.580  17.673  0.00  0.00    +0.000 A 
ATOM      5  C   UNL     1      -3.563  11.700  18.704  0.00  0.00    +0.000 A 
ATOM      6  C   UNL     1      -2.312  11.098  18.514  0.00  0.00    +0.000 A 
ATOM      7  C   UNL     1      -1.976  10.406  17.353  0.00  0.00    +0.000 A 
ATOM      8  N   UNL     1      -0.688   9.937  17.449  0.00  0.00    +0.000 NA
ATOM      9  C   UNL     1      -0.210  10.339  18.615  0.00  0.00    +0.000 A 
ATOM     10  N   UNL     1      -1.186  11.016  19.312  0.00  0.00    +0.000 N 
ATOM     11  C   UNL     1      -1.108  11.579  20.636  0.00  0.00    +0.000 C 
BRANCH   2  13
ATOM     12  C   UNL     1      -3.719  10.008  14.097  0.00  0.00    +0.000 C 
ATOM     13  O   UNL     1      -2.781   9.634  15.101  0.00  0.00    +0.000 OA
ENDBRANCH   2  13
ENDBRANCH   1   9
BRANCH   1  14
ATOM     14  N   UNL     1       1.449   8.659  18.990  0.00  0.00    +0.000 N 
ATOM     15  C   UNL     1       1.785   7.875  20.059  0.00  0.00    +0.000 C 
ATOM     16  O   UNL     1       1.809   8.311  21.208  0.00  0.00    +0.000 OA
ATOM     17  H   UNL     1       1.573   8.322  18.034  0.00  0.00    +0.000 HD
BRANCH  15  18
ATOM     18  C   UNL     1       2.088   6.434  19.823  0.00  0.00    +0.000 A 
ATOM     19  C   UNL     1       1.460   5.509  20.680  0.00  0.00    +0.000 A 
ATOM     20  C   UNL     1       1.644   4.121  20.536  0.00  0.00    +0.000 A 
ATOM     21  C   UNL     1       2.467   3.615  19.531  0.00  0.00    +0.000 A 
ATOM     22  C   UNL     1       3.102   4.518  18.697  0.00  0.00    +0.000 A 
ATOM     23  C   UNL     1       2.925   5.907  18.848  0.00  0.00    +0.000 A 
ATOM     24  C   UNL     1       3.782   6.548  17.837  0.00  0.00    +0.000 C 
ATOM     25  O   UNL     1       3.925   7.744  17.686  0.00  0.00    +0.000 OA
ATOM     26  N   UNL     1       4.370   5.546  17.095  0.00  0.00    +0.000 N 
ATOM     27  C   UNL     1       5.209   5.767  15.941  0.00  0.00    +0.000 C 
ATOM     28  C   UNL     1       4.031   4.222  17.563  0.00  0.00    +0.000 C 
ENDBRANCH  15  18
ENDBRANCH   1  14
BRANCH   1  29
ATOM     29  C   UNL     1       2.256  10.876  18.263  0.00  0.00    +0.000 C 
BRANCH  29  30
ATOM     30  C   UNL     1       1.992  12.381  18.157  0.00  0.00    +0.000 C 
BRANCH  30  31
ATOM     31  C   UNL     1       2.205  13.026  19.522  0.00  0.00    +0.000 C 
BRANCH  31  32
ATOM     32  N   UNL     1       1.400  14.216  19.663  0.00  0.00    +0.000 N 
ATOM     33  C   UNL     1       1.840  15.417  20.164  0.00  0.00    +0.000 C 
ATOM     34  N   UNL     1       2.999  15.575  20.722  0.00  0.00    +0.000 NA
ATOM     35  H   UNL     1       0.582  14.270  19.054  0.00  0.00    +0.000 HD
ATOM     36  H   UNL     1       3.519  14.698  20.699  0.00  0.00    +0.000 HD
BRANCH  33  37
ATOM     37  C   UNL     1       0.916  16.627  20.136  0.00  0.00    +0.000 C 
ATOM     38 CL   UNL     1       0.784  17.278  18.488  0.00  0.00    +0.000 Cl
ENDBRANCH  33  37
ENDBRANCH  31  32
ENDBRANCH  30  31
ENDBRANCH  29  30
ENDBRANCH   1  29
TORSDOF 9
ENDMDL
MODEL 7
REMARK VINA RESULT:      -7.3      2.912      7.918
REMARK  Name = 
REMARK  12 active torsions:
REMARK  status: ('A' for Active; 'I' for Inactive)
REMARK    1  A    between atoms: C_1  and  O_2
REMARK    2  A    between atoms: O_2  and  C_3
REMARK    3  A    between atoms: C_10  and  C_11
REMARK    4  A    between atoms: C_11  and  C_12
REMARK    5  A    between atoms: C_11  and  N_20
REMARK    6  A    between atoms: C_12  and  C_13
REMARK    7  A    between atoms: C_13  and  C_14
REMARK    8  A    between atoms: C_14  and  N_15
REMARK    9  A    between atoms: C_16  and  C_18
REMARK   10  A    between atoms: C_21  and  C_23
REMARK   11  A    between atoms: N_31  and  C_32
REMARK   12  A    between atoms: N_34  and  C_35
REMARK                            x       y       z     vdW  Elec       q    Type
REMARK                         _______ _______ _______ _____ _____    ______ ____
ROOT
ATOM      1  C   UNL     1       1.301  10.292  18.988  0.00  0.00    +0.000 C 
ENDROOT
BRANCH   1   9
ATOM      2  C   UNL     1      -3.210  10.288  16.870  0.00  0.00    +0.000 A 
ATOM      3  C   UNL     1      -4.421  10.929  17.174  0.00  0.00    +0.000 A 
ATOM      4  C   UNL     1      -4.543  11.751  18.295  0.00  0.00    +0.000 A 
ATOM      5  C   UNL     1      -3.465  11.960  19.156  0.00  0.00    +0.000 A 
ATOM      6  C   UNL     1      -2.261  11.312  18.849  0.00  0.00    +0.000 A 
ATOM      7  C   UNL     1      -2.108  10.492  17.734  0.00  0.00    +0.000 A 
ATOM      8  N   UNL     1      -0.823  10.006  17.687  0.00  0.00    +0.000 NA
ATOM      9  C   UNL     1      -0.172  10.520  18.718  0.00  0.00    +0.000 A 
ATOM     10  N   UNL     1      -1.027  11.290  19.475  0.00  0.00    +0.000 N 
ATOM     11  C   UNL     1      -0.748  11.990  20.702  0.00  0.00    +0.000 C 
BRANCH   2  13
ATOM     12  C   UNL     1      -2.987  10.198  14.511  0.00  0.00    +0.000 C 
ATOM     13  O   UNL     1      -3.248   9.501  15.724  0.00  0.00    +0.000 OA
ENDBRANCH   2  13
ENDBRANCH   1   9
BRANCH   1  14
ATOM     14  N   UNL     1       1.535   8.858  18.904  0.00  0.00    +0.000 N 
ATOM     15  C   UNL     1       1.720   8.051  19.993  0.00  0.00    +0.000 C 
ATOM     16  O   UNL     1       1.596   8.465  21.144  0.00  0.00    +0.000 OA
ATOM     17  H   UNL     1       1.782   8.536  17.967  0.00  0.00    +0.000 HD
BRANCH  15  18
ATOM     18  C   UNL     1       2.039   6.611  19.772  0.00  0.00    +0.000 A 
ATOM     19  C   UNL     1       1.425   5.688  20.642  0.00  0.00    +0.000 A 
ATOM     20  C   UNL     1       1.626   4.301  20.512  0.00  0.00    +0.000 A 
ATOM     21  C   UNL     1       2.451   3.794  19.509  0.00  0.00    +0.000 A 
ATOM     22  C   UNL     1       3.071   4.694  18.663  0.00  0.00    +0.000 A 
ATOM     23  C   UNL     1       2.878   6.083  18.799  0.00  0.00    +0.000 A 
ATOM     24  C   UNL     1       3.723   6.723  17.777  0.00  0.00    +0.000 C 
ATOM     25  O   UNL     1       3.851   7.919  17.612  0.00  0.00    +0.000 OA
ATOM     26  N   UNL     1       4.320   5.720  17.043  0.00  0.00    +0.000 N 
ATOM     27  C   UNL     1       5.152   5.938  15.884  0.00  0.00    +0.000 C 
ATOM     28  C   UNL     1       3.999   4.397  17.527  0.00  0.00    +0.000 C 
ENDBRANCH  15  18
ENDBRANCH   1  14
BRANCH   1  29
ATOM     29  C   UNL     1       2.218  11.059  18.019  0.00  0.00    +0.000 C 
BRANCH  29  30
ATOM     30  C   UNL     1       2.638  12.452  18.497  0.00  0.00    +0.000 C 
BRANCH  30  31
ATOM     31  C   UNL     1       1.594  13.471  18.054  0.00  0.00    +0.000 C 
BRANCH  31  32
ATOM     32  N   UNL     1       1.545  14.589  18.966  0.00  0.00    +0.000 N 
ATOM     33  C   UNL     1       0.406  15.262  19.335  0.00  0.00    +0.000 C 
ATOM     34  N   UNL     1      -0.749  15.068  18.779  0.00  0.00    +0.000 NA
ATOM     35  H   UNL     1       2.326  14.661  19.619  0.00  0.00    +0.000 HD
ATOM     36  H   UNL     1      -0.676  14.340  18.069  0.00  0.00    +0.000 HD
BRANCH  33  37
ATOM     37  C   UNL     1       0.485  16.343  20.406  0.00  0.00    +0.000 C 
ATOM     38 CL   UNL     1       2.177  16.751  20.762  0.00  0.00    +0.000 Cl
ENDBRANCH  33  37
ENDBRANCH  31  32
ENDBRANCH  30  31
ENDBRANCH  29  30
ENDBRANCH   1  29
TORSDOF 9
ENDMDL
MODEL 8
REMARK VINA RESULT:      -7.3      1.424      1.484
REMARK  Name = 
REMARK  12 active torsions:
REMARK  status: ('A' for Active; 'I' for Inactive)
REMARK    1  A    between atoms: C_1  and  O_2
REMARK    2  A    between atoms: O_2  and  C_3
REMARK    3  A    between atoms: C_10  and  C_11
REMARK    4  A    between atoms: C_11  and  C_12
REMARK    5  A    between atoms: C_11  and  N_20
REMARK    6  A    between atoms: C_12  and  C_13
REMARK    7  A    between atoms: C_13  and  C_14
REMARK    8  A    between atoms: C_14  and  N_15
REMARK    9  A    between atoms: C_16  and  C_18
REMARK   10  A    between atoms: C_21  and  C_23
REMARK   11  A    between atoms: N_31  and  C_32
REMARK   12  A    between atoms: N_34  and  C_35
REMARK                            x       y       z     vdW  Elec       q    Type
REMARK                         _______ _______ _______ _____ _____    ______ ____
ROOT
ATOM      1  C   UNL     1       0.289   9.926  20.509  0.00  0.00    +0.000 C 
ENDROOT
BRANCH   1   9
ATOM      2  C   UNL     1       2.543   5.484  20.354  0.00  0.00    +0.000 A 
ATOM      3  C   UNL     1       3.448   4.890  19.460  0.00  0.00    +0.000 A 
ATOM      4  C   UNL     1       3.871   5.556  18.310  0.00  0.00    +0.000 A 
ATOM      5  C   UNL     1       3.407   6.837  18.007  0.00  0.00    +0.000 A 
ATOM      6  C   UNL     1       2.500   7.421  18.901  0.00  0.00    +0.000 A 
ATOM      7  C   UNL     1       2.065   6.783  20.060  0.00  0.00    +0.000 A 
ATOM      8  N   UNL     1       1.193   7.599  20.740  0.00  0.00    +0.000 NA
ATOM      9  C   UNL     1       1.098   8.727  20.057  0.00  0.00    +0.000 A 
ATOM     10  N   UNL     1       1.849   8.642  18.906  0.00  0.00    +0.000 N 
ATOM     11  C   UNL     1       1.990   9.620  17.857  0.00  0.00    +0.000 C 
BRANCH   2  13
ATOM     12  C   UNL     1       2.242   3.292  21.207  0.00  0.00    +0.000 C 
ATOM     13  O   UNL     1       2.215   4.694  21.450  0.00  0.00    +0.000 OA
ENDBRANCH   2  13
ENDBRANCH   1   9
BRANCH   1  14
ATOM     14  N   UNL     1      -0.842  10.047  19.600  0.00  0.00    +0.000 N 
ATOM     15  C   UNL     1      -1.089  11.153  18.833  0.00  0.00    +0.000 C 
ATOM     16  O   UNL     1      -0.306  12.098  18.777  0.00  0.00    +0.000 OA
ATOM     17  H   UNL     1      -1.565   9.341  19.748  0.00  0.00    +0.000 HD
BRANCH  15  18
ATOM     18  C   UNL     1      -2.331  11.189  18.008  0.00  0.00    +0.000 A 
ATOM     19  C   UNL     1      -2.229  10.688  16.695  0.00  0.00    +0.000 A 
ATOM     20  C   UNL     1      -3.339  10.642  15.831  0.00  0.00    +0.000 A 
ATOM     21  C   UNL     1      -4.587  11.099  16.253  0.00  0.00    +0.000 A 
ATOM     22  C   UNL     1      -4.690  11.608  17.535  0.00  0.00    +0.000 A 
ATOM     23  C   UNL     1      -3.577  11.664  18.396  0.00  0.00    +0.000 A 
ATOM     24  C   UNL     1      -4.041  12.305  19.637  0.00  0.00    +0.000 C 
ATOM     25  O   UNL     1      -3.351  12.562  20.602  0.00  0.00    +0.000 OA
ATOM     26  N   UNL     1      -5.393  12.539  19.503  0.00  0.00    +0.000 N 
ATOM     27  C   UNL     1      -6.239  13.071  20.545  0.00  0.00    +0.000 C 
ATOM     28  C   UNL     1      -5.907  12.161  18.207  0.00  0.00    +0.000 C 
ENDBRANCH  15  18
ENDBRANCH   1  14
BRANCH   1  29
ATOM     29  C   UNL     1      -0.185   9.818  21.968  0.00  0.00    +0.000 C 
BRANCH  29  30
ATOM     30  C   UNL     1      -0.873  11.072  22.516  0.00  0.00    +0.000 C 
BRANCH  30  31
ATOM     31  C   UNL     1      -0.071  12.303  22.111  0.00  0.00    +0.000 C 
BRANCH  31  32
ATOM     32  N   UNL     1      -0.945  13.400  21.770  0.00  0.00    +0.000 N 
ATOM     33  C   UNL     1      -1.137  14.527  22.534  0.00  0.00    +0.000 C 
ATOM     34  N   UNL     1      -0.671  14.662  23.736  0.00  0.00    +0.000 NA
ATOM     35  H   UNL     1      -1.159  13.504  20.778  0.00  0.00    +0.000 HD
ATOM     36  H   UNL     1      -0.135  13.835  23.996  0.00  0.00    +0.000 HD
BRANCH  33  37
ATOM     37  C   UNL     1      -1.991  15.665  21.991  0.00  0.00    +0.000 C 
ATOM     38 CL   UNL     1      -1.578  16.009  20.298  0.00  0.00    +0.000 Cl
ENDBRANCH  33  37
ENDBRANCH  31  32
ENDBRANCH  30  31
ENDBRANCH  29  30
ENDBRANCH   1  29
TORSDOF 9
ENDMDL
MODEL 9
REMARK VINA RESULT:      -7.2      3.424      8.318
REMARK  Name = 
REMARK  12 active torsions:
REMARK  status: ('A' for Active; 'I' for Inactive)
REMARK    1  A    between atoms: C_1  and  O_2
REMARK    2  A    between atoms: O_2  and  C_3
REMARK    3  A    between atoms: C_10  and  C_11
REMARK    4  A    between atoms: C_11  and  C_12
REMARK    5  A    between atoms: C_11  and  N_20
REMARK    6  A    between atoms: C_12  and  C_13
REMARK    7  A    between atoms: C_13  and  C_14
REMARK    8  A    between atoms: C_14  and  N_15
REMARK    9  A    between atoms: C_16  and  C_18
REMARK   10  A    between atoms: C_21  and  C_23
REMARK   11  A    between atoms: N_31  and  C_32
REMARK   12  A    between atoms: N_34  and  C_35
REMARK                            x       y       z     vdW  Elec       q    Type
REMARK                         _______ _______ _______ _____ _____    ______ ____
ROOT
ATOM      1  C   UNL     1       0.986  10.531  19.213  0.00  0.00    +0.000 C 
ENDROOT
BRANCH   1   9
ATOM      2  C   UNL     1      -2.971  10.363  16.187  0.00  0.00    +0.000 A 
ATOM      3  C   UNL     1      -4.283  10.852  16.283  0.00  0.00    +0.000 A 
ATOM      4  C   UNL     1      -4.723  11.523  17.425  0.00  0.00    +0.000 A 
ATOM      5  C   UNL     1      -3.873  11.727  18.513  0.00  0.00    +0.000 A 
ATOM      6  C   UNL     1      -2.566  11.231  18.411  0.00  0.00    +0.000 A 
ATOM      7  C   UNL     1      -2.098  10.564  17.281  0.00  0.00    +0.000 A 
ATOM      8  N   UNL     1      -0.784  10.206  17.466  0.00  0.00    +0.000 NA
ATOM      9  C   UNL     1      -0.419  10.654  18.655  0.00  0.00    +0.000 A 
ATOM     10  N   UNL     1      -1.491  11.249  19.281  0.00  0.00    +0.000 N 
ATOM     11  C   UNL     1      -1.549  11.824  20.601  0.00  0.00    +0.000 C 
BRANCH   2  13
ATOM     12  C   UNL     1      -3.576  10.013  13.920  0.00  0.00    +0.000 C 
ATOM     13  O   UNL     1      -2.686   9.715  14.990  0.00  0.00    +0.000 OA
ENDBRANCH   2  13
ENDBRANCH   1   9
BRANCH   1  14
ATOM     14  N   UNL     1       1.567   9.323  18.645  0.00  0.00    +0.000 N 
ATOM     15  C   UNL     1       2.012   8.267  19.393  0.00  0.00    +0.000 C 
ATOM     16  O   UNL     1       1.855   8.216  20.611  0.00  0.00    +0.000 OA
ATOM     17  H   UNL     1       1.832   9.417  17.664  0.00  0.00    +0.000 HD
BRANCH  15  18
ATOM     18  C   UNL     1       2.669   7.124  18.698  0.00  0.00    +0.000 A 
ATOM     19  C   UNL     1       3.511   7.445  17.614  0.00  0.00    +0.000 A 
ATOM     20  C   UNL     1       4.210   6.454  16.900  0.00  0.00    +0.000 A 
ATOM     21  C   UNL     1       4.086   5.109  17.245  0.00  0.00    +0.000 A 
ATOM     22  C   UNL     1       3.247   4.785  18.296  0.00  0.00    +0.000 A 
ATOM     23  C   UNL     1       2.540   5.776  19.004  0.00  0.00    +0.000 A 
ATOM     24  C   UNL     1       1.720   5.069  20.002  0.00  0.00    +0.000 C 
ATOM     25  O   UNL     1       0.942   5.589  20.776  0.00  0.00    +0.000 OA
ATOM     26  N   UNL     1       2.011   3.725  19.902  0.00  0.00    +0.000 N 
ATOM     27  C   UNL     1       1.481   2.706  20.777  0.00  0.00    +0.000 C 
ATOM     28  C   UNL     1       2.945   3.426  18.842  0.00  0.00    +0.000 C 
ENDBRANCH  15  18
ENDBRANCH   1  14
BRANCH   1  29
ATOM     29  C   UNL     1       1.862  11.759  18.913  0.00  0.00    +0.000 C 
BRANCH  29  30
ATOM     30  C   UNL     1       1.850  12.838  20.000  0.00  0.00    +0.000 C 
BRANCH  30  31
ATOM     31  C   UNL     1       2.202  14.184  19.376  0.00  0.00    +0.000 C 
BRANCH  31  32
ATOM     32  N   UNL     1       3.630  14.324  19.223  0.00  0.00    +0.000 N 
ATOM     33  C   UNL     1       4.260  14.883  18.137  0.00  0.00    +0.000 C 
ATOM     34  N   UNL     1       3.643  15.208  17.044  0.00  0.00    +0.000 NA
ATOM     35  H   UNL     1       4.170  14.327  20.089  0.00  0.00    +0.000 HD
ATOM     36  H   UNL     1       2.647  15.014  17.135  0.00  0.00    +0.000 HD
BRANCH  33  37
ATOM     37  C   UNL     1       5.770  15.084  18.164  0.00  0.00    +0.000 C 
ATOM     38 CL   UNL     1       6.385  14.995  19.829  0.00  0.00    +0.000 Cl
ENDBRANCH  33  37
ENDBRANCH  31  32
ENDBRANCH  30  31
ENDBRANCH  29  30
ENDBRANCH   1  29
TORSDOF 9
ENDMDL
