MODEL 1
REMARK VINA RESULT:      -8.1      0.000      0.000
REMARK  Name = 
REMARK  4 active torsions:
REMARK  status: ('A' for Active; 'I' for Inactive)
REMARK    1  A    between atoms: C_1  and  C_2
REMARK    2  A    between atoms: C_4  and  C_5
REMARK    3  A    between atoms: C_11  and  C_12
REMARK    4  A    between atoms: C_14  and  C_15
REMARK                            x       y       z     vdW  Elec       q    Type
REMARK                         _______ _______ _______ _____ _____    ______ ____
ROOT
ATOM      1  C   UNL     1       6.959   5.332  17.323  0.00  0.00    +0.000 C 
ATOM      2  O   UNL     1       7.738   4.437  16.998  0.00  0.00    +0.000 OA
ATOM      3  N   UNL     1       5.578   5.081  17.464  0.00  0.00    +0.000 N 
ATOM      4  C   UNL     1       5.126   3.723  17.178  0.00  0.00    +0.000 C 
ATOM      5  C   UNL     1       3.645   3.685  16.814  0.00  0.00    +0.000 C 
ATOM      6  C   UNL     1       2.786   4.354  17.882  0.00  0.00    +0.000 C 
ATOM      7  C   UNL     1       3.280   5.777  18.190  0.00  0.00    +0.000 C 
ATOM      8  C   UNL     1       4.787   5.787  18.483  0.00  0.00    +0.000 C 
ENDROOT
BRANCH   1  12
ATOM      9  C   UNL     1       9.018   9.600  19.101  0.00  0.00    +0.000 C 
ATOM     10  C   UNL     1       8.322   8.551  18.325  0.00  0.00    +0.000 A 
ATOM     11  C   UNL     1       8.253   7.165  18.584  0.00  0.00    +0.000 A 
ATOM     12  C   UNL     1       7.432   6.669  17.595  0.00  0.00    +0.000 A 
ATOM     13  O   UNL     1       7.110   7.687  16.748  0.00  0.00    +0.000 OA
ATOM     14  N   UNL     1       7.638   8.874  17.221  0.00  0.00    +0.000 NA
ENDBRANCH   1  12
BRANCH   7  15
ATOM     15  C   UNL     1       2.517   6.393  19.329  0.00  0.00    +0.000 A 
ATOM     16  C   UNL     1       2.136   7.743  19.498  0.00  0.00    +0.000 A 
ATOM     17  C   UNL     1       1.437   7.770  20.685  0.00  0.00    +0.000 A 
ATOM     18  N   UNL     1       1.464   6.495  21.164  0.00  0.00    +0.000 N 
ATOM     19  N   UNL     1       2.117   5.640  20.363  0.00  0.00    +0.000 NA
ATOM     20  H   UNL     1       1.055   6.132  22.021  0.00  0.00    +0.000 HD
BRANCH  17  21
ATOM     21  C   UNL     1       0.736   8.825  21.426  0.00  0.00    +0.000 C 
ATOM     22  F   UNL     1       1.483   9.334  22.433  0.00  0.00    +0.000 F 
ATOM     23  F   UNL     1       0.400   9.854  20.613  0.00  0.00    +0.000 F 
ATOM     24  F   UNL     1      -0.418   8.366  21.972  0.00  0.00    +0.000 F 
ENDBRANCH  17  21
ENDBRANCH   7  15
TORSDOF 3
ENDMDL
MODEL 2
REMARK VINA RESULT:      -8.0      3.831      5.790
REMARK  Name = 
REMARK  4 active torsions:
REMARK  status: ('A' for Active; 'I' for Inactive)
REMARK    1  A    between atoms: C_1  and  C_2
REMARK    2  A    between atoms: C_4  and  C_5
REMARK    3  A    between atoms: C_11  and  C_12
REMARK    4  A    between atoms: C_14  and  C_15
REMARK                            x       y       z     vdW  Elec       q    Type
REMARK                         _______ _______ _______ _____ _____    ______ ____
ROOT
ATOM      1  C   UNL     1       6.976   4.766  14.054  0.00  0.00    +0.000 C 
ATOM      2  O   UNL     1       7.844   5.549  13.671  0.00  0.00    +0.000 OA
ATOM      3  N   UNL     1       6.710   4.587  15.428  0.00  0.00    +0.000 N 
ATOM      4  C   UNL     1       7.533   5.352  16.360  0.00  0.00    +0.000 C 
ATOM      5  C   UNL     1       7.571   4.706  17.741  0.00  0.00    +0.000 C 
ATOM      6  C   UNL     1       6.168   4.467  18.289  0.00  0.00    +0.000 C 
ATOM      7  C   UNL     1       5.303   3.676  17.294  0.00  0.00    +0.000 C 
ATOM      8  C   UNL     1       5.344   4.315  15.899  0.00  0.00    +0.000 C 
ENDROOT
BRANCH   1  12
ATOM      9  C   UNL     1       3.494   2.853  10.918  0.00  0.00    +0.000 C 
ATOM     10  C   UNL     1       4.698   3.153  11.723  0.00  0.00    +0.000 A 
ATOM     11  C   UNL     1       4.945   4.268  12.553  0.00  0.00    +0.000 A 
ATOM     12  C   UNL     1       6.180   4.017  13.110  0.00  0.00    +0.000 A 
ATOM     13  O   UNL     1       6.674   2.867  12.570  0.00  0.00    +0.000 OA
ATOM     14  N   UNL     1       5.733   2.305  11.726  0.00  0.00    +0.000 NA
ENDBRANCH   1  12
BRANCH   7  15
ATOM     15  C   UNL     1       3.885   3.547  17.775  0.00  0.00    +0.000 A 
ATOM     16  C   UNL     1       3.426   3.292  19.086  0.00  0.00    +0.000 A 
ATOM     17  C   UNL     1       2.052   3.301  18.990  0.00  0.00    +0.000 A 
ATOM     18  N   UNL     1       1.770   3.517  17.675  0.00  0.00    +0.000 N 
ATOM     19  N   UNL     1       2.864   3.665  16.914  0.00  0.00    +0.000 NA
ATOM     20  H   UNL     1       0.860   3.583  17.225  0.00  0.00    +0.000 HD
BRANCH  17  21
ATOM     21  C   UNL     1       0.965   3.147  19.965  0.00  0.00    +0.000 C 
ATOM     22  F   UNL     1       0.511   4.336  20.426  0.00  0.00    +0.000 F 
ATOM     23  F   UNL     1      -0.090   2.495  19.423  0.00  0.00    +0.000 F 
ATOM     24  F   UNL     1       1.361   2.421  21.041  0.00  0.00    +0.000 F 
ENDBRANCH  17  21
ENDBRANCH   7  15
TORSDOF 3
ENDMDL
MODEL 3
REMARK VINA RESULT:      -7.8      1.163      1.415
REMARK  Name = 
REMARK  4 active torsions:
REMARK  status: ('A' for Active; 'I' for Inactive)
REMARK    1  A    between atoms: C_1  and  C_2
REMARK    2  A    between atoms: C_4  and  C_5
REMARK    3  A    between atoms: C_11  and  C_12
REMARK    4  A    between atoms: C_14  and  C_15
REMARK                            x       y       z     vdW  Elec       q    Type
REMARK                         _______ _______ _______ _____ _____    ______ ____
ROOT
ATOM      1  C   UNL     1       6.831   5.367  17.956  0.00  0.00    +0.000 C 
ATOM      2  O   UNL     1       7.520   4.349  18.005  0.00  0.00    +0.000 OA
ATOM      3  N   UNL     1       5.423   5.293  17.915  0.00  0.00    +0.000 N 
ATOM      4  C   UNL     1       4.837   3.956  17.902  0.00  0.00    +0.000 C 
ATOM      5  C   UNL     1       3.432   3.961  17.309  0.00  0.00    +0.000 C 
ATOM      6  C   UNL     1       2.528   4.968  18.011  0.00  0.00    +0.000 C 
ATOM      7  C   UNL     1       3.160   6.369  18.035  0.00  0.00    +0.000 C 
ATOM      8  C   UNL     1       4.597   6.317  18.573  0.00  0.00    +0.000 C 
ENDROOT
BRANCH   1  12
ATOM      9  C   UNL     1       9.253   9.707  18.912  0.00  0.00    +0.000 C 
ATOM     10  C   UNL     1       8.490   8.581  18.332  0.00  0.00    +0.000 A 
ATOM     11  C   UNL     1       8.247   7.305  18.885  0.00  0.00    +0.000 A 
ATOM     12  C   UNL     1       7.437   6.678  17.964  0.00  0.00    +0.000 A 
ATOM     13  O   UNL     1       7.287   7.500  16.887  0.00  0.00    +0.000 OA
ATOM     14  N   UNL     1       7.917   8.707  17.129  0.00  0.00    +0.000 NA
ENDBRANCH   1  12
BRANCH   7  15
ATOM     15  C   UNL     1       2.332   7.336  18.835  0.00  0.00    +0.000 A 
ATOM     16  C   UNL     1       1.854   7.193  20.156  0.00  0.00    +0.000 A 
ATOM     17  C   UNL     1       1.180   8.365  20.420  0.00  0.00    +0.000 A 
ATOM     18  N   UNL     1       1.256   9.105  19.278  0.00  0.00    +0.000 N 
ATOM     19  N   UNL     1       1.945   8.502  18.298  0.00  0.00    +0.000 NA
ATOM     20  H   UNL     1       0.870  10.028  19.095  0.00  0.00    +0.000 HD
BRANCH  17  21
ATOM     21  C   UNL     1       0.485   8.893  21.600  0.00  0.00    +0.000 C 
ATOM     22  F   UNL     1      -0.628   8.186  21.905  0.00  0.00    +0.000 F 
ATOM     23  F   UNL     1       1.288   8.872  22.690  0.00  0.00    +0.000 F 
ATOM     24  F   UNL     1       0.107  10.183  21.418  0.00  0.00    +0.000 F 
ENDBRANCH  17  21
ENDBRANCH   7  15
TORSDOF 3
ENDMDL
MODEL 4
REMARK VINA RESULT:      -7.8      0.843      1.200
REMARK  Name = 
REMARK  4 active torsions:
REMARK  status: ('A' for Active; 'I' for Inactive)
REMARK    1  A    between atoms: C_1  and  C_2
REMARK    2  A    between atoms: C_4  and  C_5
REMARK    3  A    between atoms: C_11  and  C_12
REMARK    4  A    between atoms: C_14  and  C_15
REMARK                            x       y       z     vdW  Elec       q    Type
REMARK                         _______ _______ _______ _____ _____    ______ ____
ROOT
ATOM      1  C   UNL     1       6.974   5.266  17.356  0.00  0.00    +0.000 C 
ATOM      2  O   UNL     1       7.715   4.356  16.986  0.00  0.00    +0.000 OA
ATOM      3  N   UNL     1       5.578   5.082  17.441  0.00  0.00    +0.000 N 
ATOM      4  C   UNL     1       5.064   3.775  17.043  0.00  0.00    +0.000 C 
ATOM      5  C   UNL     1       3.595   3.846  16.639  0.00  0.00    +0.000 C 
ATOM      6  C   UNL     1       2.741   4.481  17.730  0.00  0.00    +0.000 C 
ATOM      7  C   UNL     1       3.299   5.849  18.156  0.00  0.00    +0.000 C 
ATOM      8  C   UNL     1       4.795   5.754  18.489  0.00  0.00    +0.000 C 
ENDROOT
BRANCH   1  12
ATOM      9  C   UNL     1       8.427  10.090  17.844  0.00  0.00    +0.000 C 
ATOM     10  C   UNL     1       8.154   8.645  18.000  0.00  0.00    +0.000 A 
ATOM     11  C   UNL     1       7.376   7.803  17.178  0.00  0.00    +0.000 A 
ATOM     12  C   UNL     1       7.509   6.552  17.739  0.00  0.00    +0.000 A 
ATOM     13  O   UNL     1       8.247   6.665  18.880  0.00  0.00    +0.000 OA
ATOM     14  N   UNL     1       8.682   7.969  19.028  0.00  0.00    +0.000 NA
ENDBRANCH   1  12
BRANCH   7  15
ATOM     15  C   UNL     1       2.535   6.422  19.317  0.00  0.00    +0.000 A 
ATOM     16  C   UNL     1       2.114   7.756  19.514  0.00  0.00    +0.000 A 
ATOM     17  C   UNL     1       1.434   7.741  20.712  0.00  0.00    +0.000 A 
ATOM     18  N   UNL     1       1.511   6.460  21.170  0.00  0.00    +0.000 N 
ATOM     19  N   UNL     1       2.178   5.639  20.345  0.00  0.00    +0.000 NA
ATOM     20  H   UNL     1       1.128   6.070  22.028  0.00  0.00    +0.000 HD
BRANCH  17  21
ATOM     21  C   UNL     1       0.711   8.760  21.482  0.00  0.00    +0.000 C 
ATOM     22  F   UNL     1      -0.505   8.332  21.894  0.00  0.00    +0.000 F 
ATOM     23  F   UNL     1       1.406   9.124  22.586  0.00  0.00    +0.000 F 
ATOM     24  F   UNL     1       0.518   9.888  20.754  0.00  0.00    +0.000 F 
ENDBRANCH  17  21
ENDBRANCH   7  15
TORSDOF 3
ENDMDL
MODEL 5
REMARK VINA RESULT:      -7.6      0.839      1.211
REMARK  Name = 
REMARK  4 active torsions:
REMARK  status: ('A' for Active; 'I' for Inactive)
REMARK    1  A    between atoms: C_1  and  C_2
REMARK    2  A    between atoms: C_4  and  C_5
REMARK    3  A    between atoms: C_11  and  C_12
REMARK    4  A    between atoms: C_14  and  C_15
REMARK                            x       y       z     vdW  Elec       q    Type
REMARK                         _______ _______ _______ _____ _____    ______ ____
ROOT
ATOM      1  C   UNL     1       6.707   5.321  17.757  0.00  0.00    +0.000 C 
ATOM      2  O   UNL     1       7.414   4.321  17.641  0.00  0.00    +0.000 OA
ATOM      3  N   UNL     1       5.302   5.216  17.828  0.00  0.00    +0.000 N 
ATOM      4  C   UNL     1       4.738   3.873  17.728  0.00  0.00    +0.000 C 
ATOM      5  C   UNL     1       3.287   3.904  17.260  0.00  0.00    +0.000 C 
ATOM      6  C   UNL     1       2.432   4.812  18.137  0.00  0.00    +0.000 C 
ATOM      7  C   UNL     1       3.041   6.219  18.252  0.00  0.00    +0.000 C 
ATOM      8  C   UNL     1       4.521   6.147  18.656  0.00  0.00    +0.000 C 
ENDROOT
BRANCH   1  12
ATOM      9  C   UNL     1       9.181   9.582  18.915  0.00  0.00    +0.000 C 
ATOM     10  C   UNL     1       8.359   8.513  18.307  0.00  0.00    +0.000 A 
ATOM     11  C   UNL     1       8.213   7.172  18.721  0.00  0.00    +0.000 A 
ATOM     12  C   UNL     1       7.290   6.639  17.849  0.00  0.00    +0.000 A 
ATOM     13  O   UNL     1       6.979   7.583  16.916  0.00  0.00    +0.000 OA
ATOM     14  N   UNL     1       7.621   8.770  17.220  0.00  0.00    +0.000 NA
ENDBRANCH   1  12
BRANCH   7  15
ATOM     15  C   UNL     1       2.271   7.079  19.214  0.00  0.00    +0.000 A 
ATOM     16  C   UNL     1       1.720   8.361  18.993  0.00  0.00    +0.000 A 
ATOM     17  C   UNL     1       1.097   8.689  20.178  0.00  0.00    +0.000 A 
ATOM     18  N   UNL     1       1.328   7.646  21.024  0.00  0.00    +0.000 N 
ATOM     19  N   UNL     1       2.042   6.657  20.466  0.00  0.00    +0.000 NA
ATOM     20  H   UNL     1       1.026   7.534  21.988  0.00  0.00    +0.000 HD
BRANCH  17  21
ATOM     21  C   UNL     1       0.304   9.841  20.622  0.00  0.00    +0.000 C 
ATOM     22  F   UNL     1      -0.450  10.365  19.627  0.00  0.00    +0.000 F 
ATOM     23  F   UNL     1      -0.536   9.499  21.627  0.00  0.00    +0.000 F 
ATOM     24  F   UNL     1       1.096  10.836  21.096  0.00  0.00    +0.000 F 
ENDBRANCH  17  21
ENDBRANCH   7  15
TORSDOF 3
ENDMDL
MODEL 6
REMARK VINA RESULT:      -7.5      1.180      1.309
REMARK  Name = 
REMARK  4 active torsions:
REMARK  status: ('A' for Active; 'I' for Inactive)
REMARK    1  A    between atoms: C_1  and  C_2
REMARK    2  A    between atoms: C_4  and  C_5
REMARK    3  A    between atoms: C_11  and  C_12
REMARK    4  A    between atoms: C_14  and  C_15
REMARK                            x       y       z     vdW  Elec       q    Type
REMARK                         _______ _______ _______ _____ _____    ______ ____
ROOT
ATOM      1  C   UNL     1       6.930   5.418  17.986  0.00  0.00    +0.000 C 
ATOM      2  O   UNL     1       7.627   4.405  18.044  0.00  0.00    +0.000 OA
ATOM      3  N   UNL     1       5.523   5.333  17.936  0.00  0.00    +0.000 N 
ATOM      4  C   UNL     1       4.947   3.992  17.926  0.00  0.00    +0.000 C 
ATOM      5  C   UNL     1       3.547   3.983  17.323  0.00  0.00    +0.000 C 
ATOM      6  C   UNL     1       2.630   4.987  18.015  0.00  0.00    +0.000 C 
ATOM      7  C   UNL     1       3.252   6.393  18.036  0.00  0.00    +0.000 C 
ATOM      8  C   UNL     1       4.686   6.354  18.583  0.00  0.00    +0.000 C 
ENDROOT
BRANCH   1  12
ATOM      9  C   UNL     1       9.286   9.793  18.948  0.00  0.00    +0.000 C 
ATOM     10  C   UNL     1       8.553   8.651  18.361  0.00  0.00    +0.000 A 
ATOM     11  C   UNL     1       8.298   7.384  18.930  0.00  0.00    +0.000 A 
ATOM     12  C   UNL     1       7.527   6.733  17.992  0.00  0.00    +0.000 A 
ATOM     13  O   UNL     1       7.411   7.534  16.895  0.00  0.00    +0.000 OA
ATOM     14  N   UNL     1       8.023   8.750  17.136  0.00  0.00    +0.000 NA
ENDBRANCH   1  12
BRANCH   7  15
ATOM     15  C   UNL     1       2.412   7.358  18.825  0.00  0.00    +0.000 A 
ATOM     16  C   UNL     1       1.930   8.625  18.428  0.00  0.00    +0.000 A 
ATOM     17  C   UNL     1       1.195   9.078  19.502  0.00  0.00    +0.000 A 
ATOM     18  N   UNL     1       1.299   8.115  20.460  0.00  0.00    +0.000 N 
ATOM     19  N   UNL     1       2.036   7.063  20.078  0.00  0.00    +0.000 NA
ATOM     20  H   UNL     1       0.892   8.103  21.392  0.00  0.00    +0.000 HD
BRANCH  17  21
ATOM     21  C   UNL     1       0.397  10.286  19.749  0.00  0.00    +0.000 C 
ATOM     22  F   UNL     1       0.879  11.023  20.777  0.00  0.00    +0.000 F 
ATOM     23  F   UNL     1       0.370  11.086  18.657  0.00  0.00    +0.000 F 
ATOM     24  F   UNL     1      -0.891   9.979  20.041  0.00  0.00    +0.000 F 
ENDBRANCH  17  21
ENDBRANCH   7  15
TORSDOF 3
ENDMDL
MODEL 7
REMARK VINA RESULT:      -7.4      3.805      5.625
REMARK  Name = 
REMARK  4 active torsions:
REMARK  status: ('A' for Active; 'I' for Inactive)
REMARK    1  A    between atoms: C_1  and  C_2
REMARK    2  A    between atoms: C_4  and  C_5
REMARK    3  A    between atoms: C_11  and  C_12
REMARK    4  A    between atoms: C_14  and  C_15
REMARK                            x       y       z     vdW  Elec       q    Type
REMARK                         _______ _______ _______ _____ _____    ______ ____
ROOT
ATOM      1  C   UNL     1       7.091   4.924  14.314  0.00  0.00    +0.000 C 
ATOM      2  O   UNL     1       7.898   5.762  13.913  0.00  0.00    +0.000 OA
ATOM      3  N   UNL     1       6.778   4.810  15.685  0.00  0.00    +0.000 N 
ATOM      4  C   UNL     1       7.478   5.712  16.595  0.00  0.00    +0.000 C 
ATOM      5  C   UNL     1       7.512   5.164  18.017  0.00  0.00    +0.000 C 
ATOM      6  C   UNL     1       6.114   4.825  18.523  0.00  0.00    +0.000 C 
ATOM      7  C   UNL     1       5.377   3.889  17.550  0.00  0.00    +0.000 C 
ATOM      8  C   UNL     1       5.423   4.436  16.117  0.00  0.00    +0.000 C 
ENDROOT
BRANCH   1  12
ATOM      9  C   UNL     1       5.646   1.451  10.928  0.00  0.00    +0.000 C 
ATOM     10  C   UNL     1       5.738   2.534  11.931  0.00  0.00    +0.000 A 
ATOM     11  C   UNL     1       6.871   2.972  12.651  0.00  0.00    +0.000 A 
ATOM     12  C   UNL     1       6.416   4.040  13.393  0.00  0.00    +0.000 A 
ATOM     13  O   UNL     1       5.074   4.167  13.194  0.00  0.00    +0.000 OA
ATOM     14  N   UNL     1       4.652   3.247  12.251  0.00  0.00    +0.000 NA
ENDBRANCH   1  12
BRANCH   7  15
ATOM     15  C   UNL     1       3.956   3.653  17.980  0.00  0.00    +0.000 A 
ATOM     16  C   UNL     1       3.450   3.514  19.292  0.00  0.00    +0.000 A 
ATOM     17  C   UNL     1       2.092   3.345  19.134  0.00  0.00    +0.000 A 
ATOM     18  N   UNL     1       1.868   3.355  17.790  0.00  0.00    +0.000 N 
ATOM     19  N   UNL     1       2.982   3.535  17.066  0.00  0.00    +0.000 NA
ATOM     20  H   UNL     1       0.985   3.253  17.295  0.00  0.00    +0.000 HD
BRANCH  17  21
ATOM     21  C   UNL     1       0.973   3.188  20.071  0.00  0.00    +0.000 C 
ATOM     22  F   UNL     1       1.323   2.500  21.183  0.00  0.00    +0.000 F 
ATOM     23  F   UNL     1       0.499   4.391  20.472  0.00  0.00    +0.000 F 
ATOM     24  F   UNL     1      -0.065   2.529  19.498  0.00  0.00    +0.000 F 
ENDBRANCH  17  21
ENDBRANCH   7  15
TORSDOF 3
ENDMDL
MODEL 8
REMARK VINA RESULT:      -7.3      4.029      6.486
REMARK  Name = 
REMARK  4 active torsions:
REMARK  status: ('A' for Active; 'I' for Inactive)
REMARK    1  A    between atoms: C_1  and  C_2
REMARK    2  A    between atoms: C_4  and  C_5
REMARK    3  A    between atoms: C_11  and  C_12
REMARK    4  A    between atoms: C_14  and  C_15
REMARK                            x       y       z     vdW  Elec       q    Type
REMARK                         _______ _______ _______ _____ _____    ______ ____
ROOT
ATOM      1  C   UNL     1       3.297   3.718  17.143  0.00  0.00    +0.000 C 
ATOM      2  O   UNL     1       2.449   3.318  16.346  0.00  0.00    +0.000 OA
ATOM      3  N   UNL     1       4.581   4.108  16.706  0.00  0.00    +0.000 N 
ATOM      4  C   UNL     1       4.853   3.984  15.277  0.00  0.00    +0.000 C 
ATOM      5  C   UNL     1       6.348   3.882  14.994  0.00  0.00    +0.000 C 
ATOM      6  C   UNL     1       7.120   5.039  15.619  0.00  0.00    +0.000 C 
ATOM      7  C   UNL     1       6.814   5.174  17.120  0.00  0.00    +0.000 C 
ATOM      8  C   UNL     1       5.299   5.204  17.373  0.00  0.00    +0.000 C 
ENDROOT
BRANCH   1  12
ATOM      9  C   UNL     1       2.200   3.092  22.044  0.00  0.00    +0.000 C 
ATOM     10  C   UNL     1       2.539   3.601  20.697  0.00  0.00    +0.000 A 
ATOM     11  C   UNL     1       2.818   2.867  19.524  0.00  0.00    +0.000 A 
ATOM     12  C   UNL     1       3.003   3.826  18.553  0.00  0.00    +0.000 A 
ATOM     13  O   UNL     1       2.930   5.055  19.136  0.00  0.00    +0.000 OA
ATOM     14  N   UNL     1       2.605   4.919  20.474  0.00  0.00    +0.000 NA
ENDBRANCH   1  12
BRANCH   7  15
ATOM     15  C   UNL     1       7.472   6.388  17.712  0.00  0.00    +0.000 A 
ATOM     16  C   UNL     1       7.565   7.687  17.165  0.00  0.00    +0.000 A 
ATOM     17  C   UNL     1       8.237   8.426  18.115  0.00  0.00    +0.000 A 
ATOM     18  N   UNL     1       8.531   7.559  19.124  0.00  0.00    +0.000 N 
ATOM     19  N   UNL     1       8.083   6.315  18.903  0.00  0.00    +0.000 NA
ATOM     20  H   UNL     1       9.025   7.744  19.993  0.00  0.00    +0.000 HD
BRANCH  17  21
ATOM     21  C   UNL     1       8.630   9.837  18.211  0.00  0.00    +0.000 C 
ATOM     22  F   UNL     1       7.703  10.670  17.683  0.00  0.00    +0.000 F 
ATOM     23  F   UNL     1       8.815  10.206  19.501  0.00  0.00    +0.000 F 
ATOM     24  F   UNL     1       9.800  10.072  17.566  0.00  0.00    +0.000 F 
ENDBRANCH  17  21
ENDBRANCH   7  15
TORSDOF 3
ENDMDL
MODEL 9
REMARK VINA RESULT:      -7.2      2.919      3.885
REMARK  Name = 
REMARK  4 active torsions:
REMARK  status: ('A' for Active; 'I' for Inactive)
REMARK    1  A    between atoms: C_1  and  C_2
REMARK    2  A    between atoms: C_4  and  C_5
REMARK    3  A    between atoms: C_11  and  C_12
REMARK    4  A    between atoms: C_14  and  C_15
REMARK                            x       y       z     vdW  Elec       q    Type
REMARK                         _______ _______ _______ _____ _____    ______ ____
ROOT
ATOM      1  C   UNL     1       4.834   3.690  19.243  0.00  0.00    +0.000 C 
ATOM      2  O   UNL     1       5.227   2.812  20.011  0.00  0.00    +0.000 OA
ATOM      3  N   UNL     1       3.646   4.406  19.501  0.00  0.00    +0.000 N 
ATOM      4  C   UNL     1       2.902   4.032  20.700  0.00  0.00    +0.000 C 
ATOM      5  C   UNL     1       1.433   4.428  20.599  0.00  0.00    +0.000 C 
ATOM      6  C   UNL     1       1.270   5.908  20.271  0.00  0.00    +0.000 C 
ATOM      7  C   UNL     1       2.071   6.298  19.018  0.00  0.00    +0.000 C 
ATOM      8  C   UNL     1       3.527   5.823  19.124  0.00  0.00    +0.000 C 
ENDROOT
BRANCH   1  12
ATOM      9  C   UNL     1       6.641   4.627  14.609  0.00  0.00    +0.000 C 
ATOM     10  C   UNL     1       6.413   4.471  16.062  0.00  0.00    +0.000 A 
ATOM     11  C   UNL     1       5.232   4.082  16.731  0.00  0.00    +0.000 A 
ATOM     12  C   UNL     1       5.587   4.037  18.061  0.00  0.00    +0.000 A 
ATOM     13  O   UNL     1       6.876   4.464  18.181  0.00  0.00    +0.000 OA
ATOM     14  N   UNL     1       7.407   4.704  16.927  0.00  0.00    +0.000 NA
ENDBRANCH   1  12
BRANCH   7  15
ATOM     15  C   UNL     1       2.016   7.778  18.764  0.00  0.00    +0.000 A 
ATOM     16  C   UNL     1       1.329   8.767  19.503  0.00  0.00    +0.000 A 
ATOM     17  C   UNL     1       1.627   9.954  18.871  0.00  0.00    +0.000 A 
ATOM     18  N   UNL     1       2.416   9.626  17.810  0.00  0.00    +0.000 N 
ATOM     19  N   UNL     1       2.664   8.311  17.718  0.00  0.00    +0.000 NA
ATOM     20  H   UNL     1       2.827  10.241  17.113  0.00  0.00    +0.000 HD
BRANCH  17  21
ATOM     21  C   UNL     1       1.284  11.358  19.133  0.00  0.00    +0.000 C 
ATOM     22  F   UNL     1       0.004  11.648  18.803  0.00  0.00    +0.000 F 
ATOM     23  F   UNL     1       1.443  11.663  20.443  0.00  0.00    +0.000 F 
ATOM     24  F   UNL     1       2.083  12.203  18.435  0.00  0.00    +0.000 F 
ENDBRANCH  17  21
ENDBRANCH   7  15
TORSDOF 3
ENDMDL
