MODEL 1
REMARK VINA RESULT:      -7.6      0.000      0.000
REMARK  Name = 
REMARK  7 active torsions:
REMARK  status: ('A' for Active; 'I' for Inactive)
REMARK    1  A    between atoms: C_1  and  C_2
REMARK    2  A    between atoms: C_6  and  C_7
REMARK    3  A    between atoms: C_9  and  C_11
REMARK    4  A    between atoms: C_11  and  O_12
REMARK    5  A    between atoms: O_12  and  C_13
REMARK    6  A    between atoms: C_13  and  C_15
REMARK    7  A    between atoms: C_18  and  O_19
REMARK                            x       y       z     vdW  Elec       q    Type
REMARK                         _______ _______ _______ _____ _____    ______ ____
ROOT
ATOM      1  C   UNL     1       4.004   4.248  16.675  0.00  0.00    +0.000 C 
ENDROOT
BRANCH   1  10
ATOM      2  C   UNL     1       4.247   2.474  20.103  0.00  0.00    +0.000 C 
ATOM      3  C   UNL     1       3.144   2.854  19.106  0.00  0.00    +0.000 C 
ATOM      4  C   UNL     1       1.803   2.200  19.472  0.00  0.00    +0.000 C 
ATOM      5  C   UNL     1       1.188   2.814  20.723  0.00  0.00    +0.000 C 
ATOM      6  C   UNL     1       1.076   4.327  20.573  0.00  0.00    +0.000 C 
ATOM      7  C   UNL     1       2.415   4.988  20.186  0.00  0.00    +0.000 C 
ATOM      8  C   UNL     1       2.208   6.505  20.152  0.00  0.00    +0.000 C 
ATOM      9  N   UNL     1       2.988   4.325  18.980  0.00  0.00    +0.000 N 
ATOM     10  C   UNL     1       3.431   5.051  17.856  0.00  0.00    +0.000 C 
ATOM     11  O   UNL     1       3.346   6.276  17.759  0.00  0.00    +0.000 OA
ENDBRANCH   1  10
BRANCH   1  12
ATOM     12  O   UNL     1       5.314   3.714  16.885  0.00  0.00    +0.000 OA
BRANCH  12  13
ATOM     13  C   UNL     1       6.337   4.296  16.217  0.00  0.00    +0.000 C 
ATOM     14  O   UNL     1       6.668   4.074  15.064  0.00  0.00    +0.000 OA
BRANCH  13  15
ATOM     15  C   UNL     1       6.910   5.398  17.047  0.00  0.00    +0.000 A 
ATOM     16  C   UNL     1       7.486   5.097  18.289  0.00  0.00    +0.000 A 
ATOM     17  C   UNL     1       8.124   6.093  19.036  0.00  0.00    +0.000 A 
ATOM     18  C   UNL     1       8.180   7.392  18.538  0.00  0.00    +0.000 A 
ATOM     19  C   UNL     1       7.608   7.709  17.315  0.00  0.00    +0.000 A 
ATOM     20  C   UNL     1       6.968   6.720  16.570  0.00  0.00    +0.000 A 
BRANCH  18  21
ATOM     21  O   UNL     1       8.805   8.395  19.222  0.00  0.00    +0.000 OA
ATOM     22  H   UNL     1       9.652   8.583  18.797  0.00  0.00    +0.000 HD
ENDBRANCH  18  21
ENDBRANCH  13  15
ENDBRANCH  12  13
ENDBRANCH   1  12
TORSDOF 5
ENDMDL
MODEL 2
REMARK VINA RESULT:      -7.5      0.408      1.130
REMARK  Name = 
REMARK  7 active torsions:
REMARK  status: ('A' for Active; 'I' for Inactive)
REMARK    1  A    between atoms: C_1  and  C_2
REMARK    2  A    between atoms: C_6  and  C_7
REMARK    3  A    between atoms: C_9  and  C_11
REMARK    4  A    between atoms: C_11  and  O_12
REMARK    5  A    between atoms: O_12  and  C_13
REMARK    6  A    between atoms: C_13  and  C_15
REMARK    7  A    between atoms: C_18  and  O_19
REMARK                            x       y       z     vdW  Elec       q    Type
REMARK                         _______ _______ _______ _____ _____    ______ ____
ROOT
ATOM      1  C   UNL     1       3.810   3.846  16.573  0.00  0.00    +0.000 C 
ENDROOT
BRANCH   1  10
ATOM      2  C   UNL     1       4.159   2.375  20.132  0.00  0.00    +0.000 C 
ATOM      3  C   UNL     1       3.021   2.761  19.179  0.00  0.00    +0.000 C 
ATOM      4  C   UNL     1       1.661   2.267  19.695  0.00  0.00    +0.000 C 
ATOM      5  C   UNL     1       1.195   3.044  20.919  0.00  0.00    +0.000 C 
ATOM      6  C   UNL     1       1.199   4.542  20.631  0.00  0.00    +0.000 C 
ATOM      7  C   UNL     1       2.556   5.042  20.093  0.00  0.00    +0.000 C 
ATOM      8  C   UNL     1       2.474   6.561  19.927  0.00  0.00    +0.000 C 
ATOM      9  N   UNL     1       2.979   4.222  18.922  0.00  0.00    +0.000 N 
ATOM     10  C   UNL     1       3.396   4.800  17.705  0.00  0.00    +0.000 C 
ATOM     11  O   UNL     1       3.407   6.014  17.496  0.00  0.00    +0.000 OA
ENDBRANCH   1  10
BRANCH   1  12
ATOM     12  O   UNL     1       5.187   3.458  16.579  0.00  0.00    +0.000 OA
BRANCH  12  13
ATOM     13  C   UNL     1       6.038   4.181  15.815  0.00  0.00    +0.000 C 
ATOM     14  O   UNL     1       6.095   4.183  14.597  0.00  0.00    +0.000 OA
BRANCH  13  15
ATOM     15  C   UNL     1       6.802   5.129  16.682  0.00  0.00    +0.000 A 
ATOM     16  C   UNL     1       6.937   6.467  16.287  0.00  0.00    +0.000 A 
ATOM     17  C   UNL     1       7.553   7.397  17.131  0.00  0.00    +0.000 A 
ATOM     18  C   UNL     1       8.038   6.984  18.369  0.00  0.00    +0.000 A 
ATOM     19  C   UNL     1       7.920   5.661  18.772  0.00  0.00    +0.000 A 
ATOM     20  C   UNL     1       7.310   4.731  17.932  0.00  0.00    +0.000 A 
BRANCH  18  21
ATOM     21  O   UNL     1       8.634   7.856  19.234  0.00  0.00    +0.000 OA
ATOM     22  H   UNL     1       9.448   8.188  18.832  0.00  0.00    +0.000 HD
ENDBRANCH  18  21
ENDBRANCH  13  15
ENDBRANCH  12  13
ENDBRANCH   1  12
TORSDOF 5
ENDMDL
MODEL 3
REMARK VINA RESULT:      -7.4      2.089      4.113
REMARK  Name = 
REMARK  7 active torsions:
REMARK  status: ('A' for Active; 'I' for Inactive)
REMARK    1  A    between atoms: C_1  and  C_2
REMARK    2  A    between atoms: C_6  and  C_7
REMARK    3  A    between atoms: C_9  and  C_11
REMARK    4  A    between atoms: C_11  and  O_12
REMARK    5  A    between atoms: O_12  and  C_13
REMARK    6  A    between atoms: C_13  and  C_15
REMARK    7  A    between atoms: C_18  and  O_19
REMARK                            x       y       z     vdW  Elec       q    Type
REMARK                         _______ _______ _______ _____ _____    ______ ____
ROOT
ATOM      1  C   UNL     1       4.887   5.956  18.390  0.00  0.00    +0.000 C 
ENDROOT
BRANCH   1  10
ATOM      2  C   UNL     1       1.549   4.058  17.928  0.00  0.00    +0.000 C 
ATOM      3  C   UNL     1       2.321   4.717  19.078  0.00  0.00    +0.000 C 
ATOM      4  C   UNL     1       1.465   4.812  20.350  0.00  0.00    +0.000 C 
ATOM      5  C   UNL     1       1.237   3.449  20.992  0.00  0.00    +0.000 C 
ATOM      6  C   UNL     1       2.568   2.748  21.237  0.00  0.00    +0.000 C 
ATOM      7  C   UNL     1       3.442   2.666  19.968  0.00  0.00    +0.000 C 
ATOM      8  C   UNL     1       4.704   1.869  20.307  0.00  0.00    +0.000 C 
ATOM      9  N   UNL     1       3.600   4.020  19.364  0.00  0.00    +0.000 N 
ATOM     10  C   UNL     1       4.858   4.547  19.007  0.00  0.00    +0.000 C 
ATOM     11  O   UNL     1       5.923   3.959  19.200  0.00  0.00    +0.000 OA
ENDBRANCH   1  10
BRANCH   1  12
ATOM     12  O   UNL     1       4.897   5.991  16.960  0.00  0.00    +0.000 OA
BRANCH  12  13
ATOM     13  C   UNL     1       6.092   6.172  16.352  0.00  0.00    +0.000 C 
ATOM     14  O   UNL     1       7.042   6.799  16.792  0.00  0.00    +0.000 OA
BRANCH  13  15
ATOM     15  C   UNL     1       6.152   5.336  15.115  0.00  0.00    +0.000 A 
ATOM     16  C   UNL     1       7.320   5.335  14.340  0.00  0.00    +0.000 A 
ATOM     17  C   UNL     1       7.441   4.481  13.239  0.00  0.00    +0.000 A 
ATOM     18  C   UNL     1       6.388   3.630  12.913  0.00  0.00    +0.000 A 
ATOM     19  C   UNL     1       5.222   3.623  13.664  0.00  0.00    +0.000 A 
ATOM     20  C   UNL     1       5.096   4.476  14.760  0.00  0.00    +0.000 A 
BRANCH  18  21
ATOM     21  O   UNL     1       6.464   2.767  11.858  0.00  0.00    +0.000 OA
ATOM     22  H   UNL     1       7.144   3.081  11.246  0.00  0.00    +0.000 HD
ENDBRANCH  18  21
ENDBRANCH  13  15
ENDBRANCH  12  13
ENDBRANCH   1  12
TORSDOF 5
ENDMDL
MODEL 4
REMARK VINA RESULT:      -7.3      2.042      4.055
REMARK  Name = 
REMARK  7 active torsions:
REMARK  status: ('A' for Active; 'I' for Inactive)
REMARK    1  A    between atoms: C_1  and  C_2
REMARK    2  A    between atoms: C_6  and  C_7
REMARK    3  A    between atoms: C_9  and  C_11
REMARK    4  A    between atoms: C_11  and  O_12
REMARK    5  A    between atoms: O_12  and  C_13
REMARK    6  A    between atoms: C_13  and  C_15
REMARK    7  A    between atoms: C_18  and  O_19
REMARK                            x       y       z     vdW  Elec       q    Type
REMARK                         _______ _______ _______ _____ _____    ______ ____
ROOT
ATOM      1  C   UNL     1       5.094   6.087  18.506  0.00  0.00    +0.000 C 
ENDROOT
BRANCH   1  10
ATOM      2  C   UNL     1       1.692   4.390  17.797  0.00  0.00    +0.000 C 
ATOM      3  C   UNL     1       2.438   4.954  19.012  0.00  0.00    +0.000 C 
ATOM      4  C   UNL     1       1.526   5.036  20.245  0.00  0.00    +0.000 C 
ATOM      5  C   UNL     1       1.199   3.659  20.810  0.00  0.00    +0.000 C 
ATOM      6  C   UNL     1       2.480   2.879  21.084  0.00  0.00    +0.000 C 
ATOM      7  C   UNL     1       3.410   2.809  19.855  0.00  0.00    +0.000 C 
ATOM      8  C   UNL     1       4.612   1.933  20.214  0.00  0.00    +0.000 C 
ATOM      9  N   UNL     1       3.665   4.179  19.324  0.00  0.00    +0.000 N 
ATOM     10  C   UNL     1       4.964   4.655  19.053  0.00  0.00    +0.000 C 
ATOM     11  O   UNL     1       5.987   4.004  19.267  0.00  0.00    +0.000 OA
ENDBRANCH   1  10
BRANCH   1  12
ATOM     12  O   UNL     1       5.259   6.182  17.089  0.00  0.00    +0.000 OA
BRANCH  12  13
ATOM     13  C   UNL     1       6.507   6.008  16.596  0.00  0.00    +0.000 C 
ATOM     14  O   UNL     1       7.550   6.361  17.122  0.00  0.00    +0.000 OA
BRANCH  13  15
ATOM     15  C   UNL     1       6.444   5.151  15.373  0.00  0.00    +0.000 A 
ATOM     16  C   UNL     1       5.352   4.292  15.189  0.00  0.00    +0.000 A 
ATOM     17  C   UNL     1       5.215   3.561  14.005  0.00  0.00    +0.000 A 
ATOM     18  C   UNL     1       6.178   3.688  13.006  0.00  0.00    +0.000 A 
ATOM     19  C   UNL     1       7.270   4.527  13.175  0.00  0.00    +0.000 A 
ATOM     20  C   UNL     1       7.410   5.255  14.356  0.00  0.00    +0.000 A 
BRANCH  18  21
ATOM     21  O   UNL     1       6.082   3.007  11.827  0.00  0.00    +0.000 OA
ATOM     22  H   UNL     1       5.151   2.815  11.652  0.00  0.00    +0.000 HD
ENDBRANCH  18  21
ENDBRANCH  13  15
ENDBRANCH  12  13
ENDBRANCH   1  12
TORSDOF 5
ENDMDL
MODEL 5
REMARK VINA RESULT:      -7.3      1.631      3.648
REMARK  Name = 
REMARK  7 active torsions:
REMARK  status: ('A' for Active; 'I' for Inactive)
REMARK    1  A    between atoms: C_1  and  C_2
REMARK    2  A    between atoms: C_6  and  C_7
REMARK    3  A    between atoms: C_9  and  C_11
REMARK    4  A    between atoms: C_11  and  O_12
REMARK    5  A    between atoms: O_12  and  C_13
REMARK    6  A    between atoms: C_13  and  C_15
REMARK    7  A    between atoms: C_18  and  O_19
REMARK                            x       y       z     vdW  Elec       q    Type
REMARK                         _______ _______ _______ _____ _____    ______ ____
ROOT
ATOM      1  C   UNL     1       5.402   5.405  19.528  0.00  0.00    +0.000 C 
ENDROOT
BRANCH   1  10
ATOM      2  C   UNL     1       1.854   5.456  17.992  0.00  0.00    +0.000 C 
ATOM      3  C   UNL     1       2.497   5.068  19.329  0.00  0.00    +0.000 C 
ATOM      4  C   UNL     1       1.437   4.801  20.408  0.00  0.00    +0.000 C 
ATOM      5  C   UNL     1       0.670   3.510  20.152  0.00  0.00    +0.000 C 
ATOM      6  C   UNL     1       1.636   2.342  19.982  0.00  0.00    +0.000 C 
ATOM      7  C   UNL     1       2.715   2.612  18.913  0.00  0.00    +0.000 C 
ATOM      8  C   UNL     1       3.567   1.349  18.764  0.00  0.00    +0.000 C 
ATOM      9  N   UNL     1       3.406   3.903  19.194  0.00  0.00    +0.000 N 
ATOM     10  C   UNL     1       4.811   4.017  19.230  0.00  0.00    +0.000 C 
ATOM     11  O   UNL     1       5.576   3.064  19.076  0.00  0.00    +0.000 OA
ENDBRANCH   1  10
BRANCH   1  12
ATOM     12  O   UNL     1       6.829   5.479  19.482  0.00  0.00    +0.000 OA
BRANCH  12  13
ATOM     13  C   UNL     1       7.381   6.222  18.495  0.00  0.00    +0.000 C 
ATOM     14  O   UNL     1       8.260   7.058  18.622  0.00  0.00    +0.000 OA
BRANCH  13  15
ATOM     15  C   UNL     1       6.877   5.743  17.172  0.00  0.00    +0.000 A 
ATOM     16  C   UNL     1       7.406   4.570  16.616  0.00  0.00    +0.000 A 
ATOM     17  C   UNL     1       6.877   4.043  15.433  0.00  0.00    +0.000 A 
ATOM     18  C   UNL     1       5.821   4.697  14.804  0.00  0.00    +0.000 A 
ATOM     19  C   UNL     1       5.291   5.864  15.335  0.00  0.00    +0.000 A 
ATOM     20  C   UNL     1       5.818   6.394  16.513  0.00  0.00    +0.000 A 
BRANCH  18  21
ATOM     21  O   UNL     1       5.261   4.215  13.657  0.00  0.00    +0.000 OA
ATOM     22  H   UNL     1       4.407   4.647  13.520  0.00  0.00    +0.000 HD
ENDBRANCH  18  21
ENDBRANCH  13  15
ENDBRANCH  12  13
ENDBRANCH   1  12
TORSDOF 5
ENDMDL
MODEL 6
REMARK VINA RESULT:      -7.0      2.212      4.084
REMARK  Name = 
REMARK  7 active torsions:
REMARK  status: ('A' for Active; 'I' for Inactive)
REMARK    1  A    between atoms: C_1  and  C_2
REMARK    2  A    between atoms: C_6  and  C_7
REMARK    3  A    between atoms: C_9  and  C_11
REMARK    4  A    between atoms: C_11  and  O_12
REMARK    5  A    between atoms: O_12  and  C_13
REMARK    6  A    between atoms: C_13  and  C_15
REMARK    7  A    between atoms: C_18  and  O_19
REMARK                            x       y       z     vdW  Elec       q    Type
REMARK                         _______ _______ _______ _____ _____    ______ ____
ROOT
ATOM      1  C   UNL     1       6.559   5.015  18.366  0.00  0.00    +0.000 C 
ENDROOT
BRANCH   1  10
ATOM      2  C   UNL     1       4.117   2.710  20.283  0.00  0.00    +0.000 C 
ATOM      3  C   UNL     1       4.420   3.064  18.822  0.00  0.00    +0.000 C 
ATOM      4  C   UNL     1       3.689   2.125  17.851  0.00  0.00    +0.000 C 
ATOM      5  C   UNL     1       2.186   2.376  17.830  0.00  0.00    +0.000 C 
ATOM      6  C   UNL     1       1.897   3.846  17.546  0.00  0.00    +0.000 C 
ATOM      7  C   UNL     1       2.644   4.797  18.505  0.00  0.00    +0.000 C 
ATOM      8  C   UNL     1       2.212   6.231  18.190  0.00  0.00    +0.000 C 
ATOM      9  N   UNL     1       4.101   4.481  18.513  0.00  0.00    +0.000 N 
ATOM     10  C   UNL     1       5.090   5.470  18.336  0.00  0.00    +0.000 C 
ATOM     11  O   UNL     1       4.837   6.656  18.123  0.00  0.00    +0.000 OA
ENDBRANCH   1  10
BRANCH   1  12
ATOM     12  O   UNL     1       7.070   4.535  17.120  0.00  0.00    +0.000 OA
BRANCH  12  13
ATOM     13  C   UNL     1       7.172   5.424  16.106  0.00  0.00    +0.000 C 
ATOM     14  O   UNL     1       7.743   6.502  16.142  0.00  0.00    +0.000 OA
BRANCH  13  15
ATOM     15  C   UNL     1       6.626   4.818  14.854  0.00  0.00    +0.000 A 
ATOM     16  C   UNL     1       7.395   4.847  13.682  0.00  0.00    +0.000 A 
ATOM     17  C   UNL     1       6.953   4.192  12.527  0.00  0.00    +0.000 A 
ATOM     18  C   UNL     1       5.738   3.513  12.547  0.00  0.00    +0.000 A 
ATOM     19  C   UNL     1       4.960   3.481  13.696  0.00  0.00    +0.000 A 
ATOM     20  C   UNL     1       5.396   4.135  14.848  0.00  0.00    +0.000 A 
BRANCH  18  21
ATOM     21  O   UNL     1       5.271   2.847  11.451  0.00  0.00    +0.000 OA
ATOM     22  H   UNL     1       4.986   3.492  10.791  0.00  0.00    +0.000 HD
ENDBRANCH  18  21
ENDBRANCH  13  15
ENDBRANCH  12  13
ENDBRANCH   1  12
TORSDOF 5
ENDMDL
MODEL 7
REMARK VINA RESULT:      -7.0      1.789      3.829
REMARK  Name = 
REMARK  7 active torsions:
REMARK  status: ('A' for Active; 'I' for Inactive)
REMARK    1  A    between atoms: C_1  and  C_2
REMARK    2  A    between atoms: C_6  and  C_7
REMARK    3  A    between atoms: C_9  and  C_11
REMARK    4  A    between atoms: C_11  and  O_12
REMARK    5  A    between atoms: O_12  and  C_13
REMARK    6  A    between atoms: C_13  and  C_15
REMARK    7  A    between atoms: C_18  and  O_19
REMARK                            x       y       z     vdW  Elec       q    Type
REMARK                         _______ _______ _______ _____ _____    ______ ____
ROOT
ATOM      1  C   UNL     1       4.809   5.901  18.575  0.00  0.00    +0.000 C 
ENDROOT
BRANCH   1  10
ATOM      2  C   UNL     1       1.505   3.974  18.003  0.00  0.00    +0.000 C 
ATOM      3  C   UNL     1       2.241   4.624  19.182  0.00  0.00    +0.000 C 
ATOM      4  C   UNL     1       1.354   4.690  20.434  0.00  0.00    +0.000 C 
ATOM      5  C   UNL     1       1.126   3.315  21.049  0.00  0.00    +0.000 C 
ATOM      6  C   UNL     1       2.459   2.625  21.317  0.00  0.00    +0.000 C 
ATOM      7  C   UNL     1       3.364   2.572  20.068  0.00  0.00    +0.000 C 
ATOM      8  C   UNL     1       4.627   1.784  20.425  0.00  0.00    +0.000 C 
ATOM      9  N   UNL     1       3.521   3.937  19.488  0.00  0.00    +0.000 N 
ATOM     10  C   UNL     1       4.781   4.483  19.170  0.00  0.00    +0.000 C 
ATOM     11  O   UNL     1       5.847   3.903  19.379  0.00  0.00    +0.000 OA
ENDBRANCH   1  10
BRANCH   1  12
ATOM     12  O   UNL     1       6.098   6.520  18.543  0.00  0.00    +0.000 OA
BRANCH  12  13
ATOM     13  C   UNL     1       6.541   6.971  17.347  0.00  0.00    +0.000 C 
ATOM     14  O   UNL     1       7.137   8.016  17.142  0.00  0.00    +0.000 OA
BRANCH  13  15
ATOM     15  C   UNL     1       6.350   5.909  16.313  0.00  0.00    +0.000 A 
ATOM     16  C   UNL     1       5.383   6.087  15.313  0.00  0.00    +0.000 A 
ATOM     17  C   UNL     1       5.259   5.159  14.273  0.00  0.00    +0.000 A 
ATOM     18  C   UNL     1       6.100   4.051  14.240  0.00  0.00    +0.000 A 
ATOM     19  C   UNL     1       7.057   3.854  15.226  0.00  0.00    +0.000 A 
ATOM     20  C   UNL     1       7.181   4.775  16.266  0.00  0.00    +0.000 A 
BRANCH  18  21
ATOM     21  O   UNL     1       6.028   3.126  13.239  0.00  0.00    +0.000 OA
ATOM     22  H   UNL     1       5.876   3.583  12.401  0.00  0.00    +0.000 HD
ENDBRANCH  18  21
ENDBRANCH  13  15
ENDBRANCH  12  13
ENDBRANCH   1  12
TORSDOF 5
ENDMDL
MODEL 8
REMARK VINA RESULT:      -7.0      2.099      3.899
REMARK  Name = 
REMARK  7 active torsions:
REMARK  status: ('A' for Active; 'I' for Inactive)
REMARK    1  A    between atoms: C_1  and  C_2
REMARK    2  A    between atoms: C_6  and  C_7
REMARK    3  A    between atoms: C_9  and  C_11
REMARK    4  A    between atoms: C_11  and  O_12
REMARK    5  A    between atoms: O_12  and  C_13
REMARK    6  A    between atoms: C_13  and  C_15
REMARK    7  A    between atoms: C_18  and  O_19
REMARK                            x       y       z     vdW  Elec       q    Type
REMARK                         _______ _______ _______ _____ _____    ______ ____
ROOT
ATOM      1  C   UNL     1       6.494   5.091  18.698  0.00  0.00    +0.000 C 
ENDROOT
BRANCH   1  10
ATOM      2  C   UNL     1       3.951   2.724  20.399  0.00  0.00    +0.000 C 
ATOM      3  C   UNL     1       4.370   3.088  18.969  0.00  0.00    +0.000 C 
ATOM      4  C   UNL     1       3.749   2.133  17.939  0.00  0.00    +0.000 C 
ATOM      5  C   UNL     1       2.248   2.348  17.788  0.00  0.00    +0.000 C 
ATOM      6  C   UNL     1       1.949   3.812  17.480  0.00  0.00    +0.000 C 
ATOM      7  C   UNL     1       2.587   4.778  18.500  0.00  0.00    +0.000 C 
ATOM      8  C   UNL     1       2.150   6.202  18.148  0.00  0.00    +0.000 C 
ATOM      9  N   UNL     1       4.045   4.497  18.633  0.00  0.00    +0.000 N 
ATOM     10  C   UNL     1       5.022   5.510  18.542  0.00  0.00    +0.000 C 
ATOM     11  O   UNL     1       4.760   6.690  18.307  0.00  0.00    +0.000 OA
ENDBRANCH   1  10
BRANCH   1  12
ATOM     12  O   UNL     1       7.130   4.653  17.495  0.00  0.00    +0.000 OA
BRANCH  12  13
ATOM     13  C   UNL     1       7.165   5.522  16.459  0.00  0.00    +0.000 C 
ATOM     14  O   UNL     1       7.612   6.657  16.480  0.00  0.00    +0.000 OA
BRANCH  13  15
ATOM     15  C   UNL     1       6.729   4.826  15.211  0.00  0.00    +0.000 A 
ATOM     16  C   UNL     1       5.511   4.130  15.199  0.00  0.00    +0.000 A 
ATOM     17  C   UNL     1       5.030   3.562  14.015  0.00  0.00    +0.000 A 
ATOM     18  C   UNL     1       5.772   3.687  12.843  0.00  0.00    +0.000 A 
ATOM     19  C   UNL     1       6.983   4.365  12.839  0.00  0.00    +0.000 A 
ATOM     20  C   UNL     1       7.468   4.929  14.018  0.00  0.00    +0.000 A 
BRANCH  18  21
ATOM     21  O   UNL     1       5.338   3.163  11.660  0.00  0.00    +0.000 OA
ATOM     22  H   UNL     1       5.043   3.884  11.088  0.00  0.00    +0.000 HD
ENDBRANCH  18  21
ENDBRANCH  13  15
ENDBRANCH  12  13
ENDBRANCH   1  12
TORSDOF 5
ENDMDL
MODEL 9
REMARK VINA RESULT:      -7.0      1.849      3.986
REMARK  Name = 
REMARK  7 active torsions:
REMARK  status: ('A' for Active; 'I' for Inactive)
REMARK    1  A    between atoms: C_1  and  C_2
REMARK    2  A    between atoms: C_6  and  C_7
REMARK    3  A    between atoms: C_9  and  C_11
REMARK    4  A    between atoms: C_11  and  O_12
REMARK    5  A    between atoms: O_12  and  C_13
REMARK    6  A    between atoms: C_13  and  C_15
REMARK    7  A    between atoms: C_18  and  O_19
REMARK                            x       y       z     vdW  Elec       q    Type
REMARK                         _______ _______ _______ _____ _____    ______ ____
ROOT
ATOM      1  C   UNL     1       5.839   5.227  19.411  0.00  0.00    +0.000 C 
ENDROOT
BRANCH   1  10
ATOM      2  C   UNL     1       2.286   6.064  18.134  0.00  0.00    +0.000 C 
ATOM      3  C   UNL     1       2.926   5.552  19.431  0.00  0.00    +0.000 C 
ATOM      4  C   UNL     1       1.919   5.538  20.590  0.00  0.00    +0.000 C 
ATOM      5  C   UNL     1       0.865   4.451  20.422  0.00  0.00    +0.000 C 
ATOM      6  C   UNL     1       1.529   3.094  20.212  0.00  0.00    +0.000 C 
ATOM      7  C   UNL     1       2.557   3.106  19.061  0.00  0.00    +0.000 C 
ATOM      8  C   UNL     1       3.090   1.682  18.882  0.00  0.00    +0.000 C 
ATOM      9  N   UNL     1       3.539   4.210  19.259  0.00  0.00    +0.000 N 
ATOM     10  C   UNL     1       4.932   4.005  19.191  0.00  0.00    +0.000 C 
ATOM     11  O   UNL     1       5.450   2.903  19.005  0.00  0.00    +0.000 OA
ENDBRANCH   1  10
BRANCH   1  12
ATOM     12  O   UNL     1       6.610   5.623  18.273  0.00  0.00    +0.000 OA
BRANCH  12  13
ATOM     13  C   UNL     1       5.968   6.297  17.292  0.00  0.00    +0.000 C 
ATOM     14  O   UNL     1       5.525   7.432  17.363  0.00  0.00    +0.000 OA
BRANCH  13  15
ATOM     15  C   UNL     1       6.030   5.509  16.024  0.00  0.00    +0.000 A 
ATOM     16  C   UNL     1       7.161   5.612  15.203  0.00  0.00    +0.000 A 
ATOM     17  C   UNL     1       7.291   4.805  14.068  0.00  0.00    +0.000 A 
ATOM     18  C   UNL     1       6.282   3.897  13.754  0.00  0.00    +0.000 A 
ATOM     19  C   UNL     1       5.152   3.788  14.550  0.00  0.00    +0.000 A 
ATOM     20  C   UNL     1       5.018   4.594  15.681  0.00  0.00    +0.000 A 
BRANCH  18  21
ATOM     21  O   UNL     1       6.369   3.078  12.666  0.00  0.00    +0.000 OA
ATOM     22  H   UNL     1       6.581   2.183  12.964  0.00  0.00    +0.000 HD
ENDBRANCH  18  21
ENDBRANCH  13  15
ENDBRANCH  12  13
ENDBRANCH   1  12
TORSDOF 5
ENDMDL
