MODEL 1
REMARK VINA RESULT:      -7.9      0.000      0.000
REMARK  Name = 
REMARK  2 active torsions:
REMARK  status: ('A' for Active; 'I' for Inactive)
REMARK    1  A    between atoms: C_5  and  N_6
REMARK    2  A    between atoms: C_7  and  C_8
REMARK                            x       y       z     vdW  Elec       q    Type
REMARK                         _______ _______ _______ _____ _____    ______ ____
ROOT
ATOM      1  C   UNL     1       5.692   4.701  15.801  0.00  0.00    +0.000 A 
ATOM      2  C   UNL     1       6.755   5.492  16.199  0.00  0.00    +0.000 A 
ATOM      3  N   UNL     1       7.627   5.605  15.154  0.00  0.00    +0.000 N 
ATOM      4  C   UNL     1       7.152   4.918  14.061  0.00  0.00    +0.000 A 
ATOM      5  C   UNL     1       7.704   4.775  12.783  0.00  0.00    +0.000 A 
ATOM      6  C   UNL     1       6.990   4.020  11.850  0.00  0.00    +0.000 A 
ATOM      7  C   UNL     1       5.777   3.426  12.188  0.00  0.00    +0.000 A 
ATOM      8  C   UNL     1       5.243   3.570  13.475  0.00  0.00    +0.000 A 
ATOM      9  C   UNL     1       5.938   4.338  14.437  0.00  0.00    +0.000 A 
ATOM     10  H   UNL     1       8.496   6.123  15.174  0.00  0.00    +0.000 HD
ENDROOT
BRANCH   1  12
ATOM     11  N   UNL     1       4.722   4.267  17.917  0.00  0.00    +0.000 NA
ATOM     12  C   UNL     1       4.566   4.327  16.635  0.00  0.00    +0.000 C 
BRANCH  11  17
ATOM     13  F   UNL     1       0.686   2.662  21.360  0.00  0.00    +0.000 F 
ATOM     14  C   UNL     1       1.649   3.060  20.518  0.00  0.00    +0.000 A 
ATOM     15  C   UNL     1       2.972   2.737  20.785  0.00  0.00    +0.000 A 
ATOM     16  C   UNL     1       3.970   3.150  19.898  0.00  0.00    +0.000 A 
ATOM     17  C   UNL     1       3.655   3.878  18.742  0.00  0.00    +0.000 A 
ATOM     18  C   UNL     1       2.314   4.215  18.511  0.00  0.00    +0.000 A 
ATOM     19  C   UNL     1       1.311   3.797  19.391  0.00  0.00    +0.000 A 
ENDBRANCH  11  17
ENDBRANCH   1  12
TORSDOF 2
ENDMDL
MODEL 2
REMARK VINA RESULT:      -7.9      0.828      1.119
REMARK  Name = 
REMARK  2 active torsions:
REMARK  status: ('A' for Active; 'I' for Inactive)
REMARK    1  A    between atoms: C_5  and  N_6
REMARK    2  A    between atoms: C_7  and  C_8
REMARK                            x       y       z     vdW  Elec       q    Type
REMARK                         _______ _______ _______ _____ _____    ______ ____
ROOT
ATOM      1  C   UNL     1       5.842   4.568  15.758  0.00  0.00    +0.000 A 
ATOM      2  C   UNL     1       6.853   5.440  16.123  0.00  0.00    +0.000 A 
ATOM      3  N   UNL     1       7.663   5.642  15.042  0.00  0.00    +0.000 N 
ATOM      4  C   UNL     1       7.195   4.936  13.958  0.00  0.00    +0.000 A 
ATOM      5  C   UNL     1       7.697   4.860  12.653  0.00  0.00    +0.000 A 
ATOM      6  C   UNL     1       7.004   4.064  11.739  0.00  0.00    +0.000 A 
ATOM      7  C   UNL     1       5.862   3.364  12.120  0.00  0.00    +0.000 A 
ATOM      8  C   UNL     1       5.379   3.442  13.432  0.00  0.00    +0.000 A 
ATOM      9  C   UNL     1       6.052   4.250  14.377  0.00  0.00    +0.000 A 
ATOM     10  H   UNL     1       8.485   6.230  15.032  0.00  0.00    +0.000 HD
ENDROOT
BRANCH   1  12
ATOM     11  N   UNL     1       4.198   4.920  17.425  0.00  0.00    +0.000 NA
ATOM     12  C   UNL     1       4.792   4.087  16.635  0.00  0.00    +0.000 C 
BRANCH  11  17
ATOM     13  F   UNL     1       0.198   2.962  20.723  0.00  0.00    +0.000 F 
ATOM     14  C   UNL     1       1.172   3.444  19.941  0.00  0.00    +0.000 A 
ATOM     15  C   UNL     1       1.288   2.995  18.633  0.00  0.00    +0.000 A 
ATOM     16  C   UNL     1       2.302   3.509  17.820  0.00  0.00    +0.000 A 
ATOM     17  C   UNL     1       3.199   4.473  18.304  0.00  0.00    +0.000 A 
ATOM     18  C   UNL     1       3.077   4.887  19.638  0.00  0.00    +0.000 A 
ATOM     19  C   UNL     1       2.058   4.383  20.452  0.00  0.00    +0.000 A 
ENDBRANCH  11  17
ENDBRANCH   1  12
TORSDOF 2
ENDMDL
MODEL 3
REMARK VINA RESULT:      -7.5      3.163      7.287
REMARK  Name = 
REMARK  2 active torsions:
REMARK  status: ('A' for Active; 'I' for Inactive)
REMARK    1  A    between atoms: C_5  and  N_6
REMARK    2  A    between atoms: C_7  and  C_8
REMARK                            x       y       z     vdW  Elec       q    Type
REMARK                         _______ _______ _______ _____ _____    ______ ____
ROOT
ATOM      1  C   UNL     1       4.095   4.477  18.010  0.00  0.00    +0.000 A 
ATOM      2  C   UNL     1       4.523   5.450  18.898  0.00  0.00    +0.000 A 
ATOM      3  N   UNL     1       3.635   5.514  19.933  0.00  0.00    +0.000 N 
ATOM      4  C   UNL     1       2.633   4.587  19.759  0.00  0.00    +0.000 A 
ATOM      5  C   UNL     1       1.531   4.295  20.572  0.00  0.00    +0.000 A 
ATOM      6  C   UNL     1       0.668   3.282  20.152  0.00  0.00    +0.000 A 
ATOM      7  C   UNL     1       0.894   2.596  18.961  0.00  0.00    +0.000 A 
ATOM      8  C   UNL     1       1.996   2.907  18.154  0.00  0.00    +0.000 A 
ATOM      9  C   UNL     1       2.894   3.921  18.559  0.00  0.00    +0.000 A 
ATOM     10  H   UNL     1       3.702   6.146  20.720  0.00  0.00    +0.000 HD
ENDROOT
BRANCH   1  12
ATOM     11  N   UNL     1       5.305   5.052  16.059  0.00  0.00    +0.000 NA
ATOM     12  C   UNL     1       4.757   4.123  16.771  0.00  0.00    +0.000 C 
BRANCH  11  17
ATOM     13  F   UNL     1       7.532   3.699  11.167  0.00  0.00    +0.000 F 
ATOM     14  C   UNL     1       7.008   4.038  12.352  0.00  0.00    +0.000 A 
ATOM     15  C   UNL     1       5.784   3.510  12.739  0.00  0.00    +0.000 A 
ATOM     16  C   UNL     1       5.247   3.864  13.980  0.00  0.00    +0.000 A 
ATOM     17  C   UNL     1       5.927   4.738  14.840  0.00  0.00    +0.000 A 
ATOM     18  C   UNL     1       7.147   5.280  14.413  0.00  0.00    +0.000 A 
ATOM     19  C   UNL     1       7.693   4.922  13.176  0.00  0.00    +0.000 A 
ENDBRANCH  11  17
ENDBRANCH   1  12
TORSDOF 2
ENDMDL
MODEL 4
REMARK VINA RESULT:      -7.3      3.162      7.255
REMARK  Name = 
REMARK  2 active torsions:
REMARK  status: ('A' for Active; 'I' for Inactive)
REMARK    1  A    between atoms: C_5  and  N_6
REMARK    2  A    between atoms: C_7  and  C_8
REMARK                            x       y       z     vdW  Elec       q    Type
REMARK                         _______ _______ _______ _____ _____    ______ ____
ROOT
ATOM      1  C   UNL     1       3.815   4.835  17.979  0.00  0.00    +0.000 A 
ATOM      2  C   UNL     1       4.347   5.626  18.982  0.00  0.00    +0.000 A 
ATOM      3  N   UNL     1       3.635   5.413  20.128  0.00  0.00    +0.000 N 
ATOM      4  C   UNL     1       2.650   4.478  19.909  0.00  0.00    +0.000 A 
ATOM      5  C   UNL     1       1.704   3.949  20.795  0.00  0.00    +0.000 A 
ATOM      6  C   UNL     1       0.819   2.990  20.300  0.00  0.00    +0.000 A 
ATOM      7  C   UNL     1       0.873   2.585  18.968  0.00  0.00    +0.000 A 
ATOM      8  C   UNL     1       1.820   3.132  18.092  0.00  0.00    +0.000 A 
ATOM      9  C   UNL     1       2.737   4.096  18.568  0.00  0.00    +0.000 A 
ATOM     10  H   UNL     1       3.807   5.870  21.014  0.00  0.00    +0.000 HD
ENDROOT
BRANCH   1  12
ATOM     11  N   UNL     1       5.458   4.324  16.355  0.00  0.00    +0.000 NA
ATOM     12  C   UNL     1       4.280   4.793  16.608  0.00  0.00    +0.000 C 
BRANCH  11  17
ATOM     13  F   UNL     1       7.594   4.343  11.240  0.00  0.00    +0.000 F 
ATOM     14  C   UNL     1       7.065   4.326  12.471  0.00  0.00    +0.000 A 
ATOM     15  C   UNL     1       7.676   5.041  13.491  0.00  0.00    +0.000 A 
ATOM     16  C   UNL     1       7.114   5.024  14.771  0.00  0.00    +0.000 A 
ATOM     17  C   UNL     1       5.943   4.301  15.037  0.00  0.00    +0.000 A 
ATOM     18  C   UNL     1       5.362   3.563  13.995  0.00  0.00    +0.000 A 
ATOM     19  C   UNL     1       5.916   3.584  12.711  0.00  0.00    +0.000 A 
ENDBRANCH  11  17
ENDBRANCH   1  12
TORSDOF 2
ENDMDL
MODEL 5
REMARK VINA RESULT:      -7.3      1.036      1.333
REMARK  Name = 
REMARK  2 active torsions:
REMARK  status: ('A' for Active; 'I' for Inactive)
REMARK    1  A    between atoms: C_5  and  N_6
REMARK    2  A    between atoms: C_7  and  C_8
REMARK                            x       y       z     vdW  Elec       q    Type
REMARK                         _______ _______ _______ _____ _____    ______ ____
ROOT
ATOM      1  C   UNL     1       6.050   5.081  17.402  0.00  0.00    +0.000 A 
ATOM      2  C   UNL     1       6.984   6.093  17.549  0.00  0.00    +0.000 A 
ATOM      3  N   UNL     1       7.608   6.285  16.349  0.00  0.00    +0.000 N 
ATOM      4  C   UNL     1       7.090   5.433  15.401  0.00  0.00    +0.000 A 
ATOM      5  C   UNL     1       7.416   5.294  14.047  0.00  0.00    +0.000 A 
ATOM      6  C   UNL     1       6.712   4.343  13.306  0.00  0.00    +0.000 A 
ATOM      7  C   UNL     1       5.729   3.556  13.901  0.00  0.00    +0.000 A 
ATOM      8  C   UNL     1       5.423   3.700  15.259  0.00  0.00    +0.000 A 
ATOM      9  C   UNL     1       6.110   4.663  16.033  0.00  0.00    +0.000 A 
ATOM     10  H   UNL     1       8.341   6.960  16.175  0.00  0.00    +0.000 HD
ENDROOT
BRANCH   1  12
ATOM     11  N   UNL     1       3.933   4.427  18.232  0.00  0.00    +0.000 NA
ATOM     12  C   UNL     1       5.198   4.567  18.455  0.00  0.00    +0.000 C 
BRANCH  11  17
ATOM     13  F   UNL     1       0.785   2.470  22.353  0.00  0.00    +0.000 F 
ATOM     14  C   UNL     1       1.532   2.955  21.352  0.00  0.00    +0.000 A 
ATOM     15  C   UNL     1       2.840   2.518  21.197  0.00  0.00    +0.000 A 
ATOM     16  C   UNL     1       3.611   3.023  20.147  0.00  0.00    +0.000 A 
ATOM     17  C   UNL     1       3.082   3.960  19.247  0.00  0.00    +0.000 A 
ATOM     18  C   UNL     1       1.768   4.406  19.444  0.00  0.00    +0.000 A 
ATOM     19  C   UNL     1       0.989   3.897  20.488  0.00  0.00    +0.000 A 
ENDBRANCH  11  17
ENDBRANCH   1  12
TORSDOF 2
ENDMDL
MODEL 6
REMARK VINA RESULT:      -7.0      4.623      7.476
REMARK  Name = 
REMARK  2 active torsions:
REMARK  status: ('A' for Active; 'I' for Inactive)
REMARK    1  A    between atoms: C_5  and  N_6
REMARK    2  A    between atoms: C_7  and  C_8
REMARK                            x       y       z     vdW  Elec       q    Type
REMARK                         _______ _______ _______ _____ _____    ______ ____
ROOT
ATOM      1  C   UNL     1       1.958   8.214  18.927  0.00  0.00    +0.000 A 
ATOM      2  C   UNL     1       2.126   8.989  17.792  0.00  0.00    +0.000 A 
ATOM      3  N   UNL     1       1.506  10.189  17.990  0.00  0.00    +0.000 N 
ATOM      4  C   UNL     1       0.945  10.234  19.246  0.00  0.00    +0.000 A 
ATOM      5  C   UNL     1       0.233  11.262  19.873  0.00  0.00    +0.000 A 
ATOM      6  C   UNL     1      -0.217  11.037  21.176  0.00  0.00    +0.000 A 
ATOM      7  C   UNL     1       0.028   9.826  21.818  0.00  0.00    +0.000 A 
ATOM      8  C   UNL     1       0.733   8.803  21.173  0.00  0.00    +0.000 A 
ATOM      9  C   UNL     1       1.212   9.006  19.858  0.00  0.00    +0.000 A 
ATOM     10  H   UNL     1       1.467  10.943  17.317  0.00  0.00    +0.000 HD
ENDROOT
BRANCH   1  12
ATOM     11  N   UNL     1       2.334   6.017  18.129  0.00  0.00    +0.000 NA
ATOM     12  C   UNL     1       2.452   6.862  19.100  0.00  0.00    +0.000 C 
BRANCH  11  17
ATOM     13  F   UNL     1       3.919   0.723  18.547  0.00  0.00    +0.000 F 
ATOM     14  C   UNL     1       3.551   2.008  18.455  0.00  0.00    +0.000 A 
ATOM     15  C   UNL     1       2.431   2.350  17.711  0.00  0.00    +0.000 A 
ATOM     16  C   UNL     1       2.051   3.692  17.625  0.00  0.00    +0.000 A 
ATOM     17  C   UNL     1       2.777   4.694  18.284  0.00  0.00    +0.000 A 
ATOM     18  C   UNL     1       3.921   4.324  19.005  0.00  0.00    +0.000 A 
ATOM     19  C   UNL     1       4.302   2.982  19.101  0.00  0.00    +0.000 A 
ENDBRANCH  11  17
ENDBRANCH   1  12
TORSDOF 2
ENDMDL
MODEL 7
REMARK VINA RESULT:      -6.9      4.680      6.142
REMARK  Name = 
REMARK  2 active torsions:
REMARK  status: ('A' for Active; 'I' for Inactive)
REMARK    1  A    between atoms: C_5  and  N_6
REMARK    2  A    between atoms: C_7  and  C_8
REMARK                            x       y       z     vdW  Elec       q    Type
REMARK                         _______ _______ _______ _____ _____    ______ ____
ROOT
ATOM      1  C   UNL     1       2.996   6.773  18.096  0.00  0.00    +0.000 A 
ATOM      2  C   UNL     1       4.197   6.985  17.440  0.00  0.00    +0.000 A 
ATOM      3  N   UNL     1       4.677   5.780  17.012  0.00  0.00    +0.000 N 
ATOM      4  C   UNL     1       3.806   4.772  17.355  0.00  0.00    +0.000 A 
ATOM      5  C   UNL     1       3.885   3.396  17.108  0.00  0.00    +0.000 A 
ATOM      6  C   UNL     1       2.838   2.594  17.566  0.00  0.00    +0.000 A 
ATOM      7  C   UNL     1       1.760   3.148  18.252  0.00  0.00    +0.000 A 
ATOM      8  C   UNL     1       1.700   4.525  18.500  0.00  0.00    +0.000 A 
ATOM      9  C   UNL     1       2.740   5.364  18.038  0.00  0.00    +0.000 A 
ATOM     10  H   UNL     1       5.544   5.644  16.510  0.00  0.00    +0.000 HD
ENDROOT
BRANCH   1  12
ATOM     11  N   UNL     1       1.970   7.754  19.989  0.00  0.00    +0.000 NA
ATOM     12  C   UNL     1       2.186   7.802  18.715  0.00  0.00    +0.000 C 
BRANCH  11  17
ATOM     13  F   UNL     1      -1.117  11.502  22.662  0.00  0.00    +0.000 F 
ATOM     14  C   UNL     1      -0.374  10.606  22.000  0.00  0.00    +0.000 A 
ATOM     15  C   UNL     1       0.288   9.609  22.703  0.00  0.00    +0.000 A 
ATOM     16  C   UNL     1       1.056   8.674  22.004  0.00  0.00    +0.000 A 
ATOM     17  C   UNL     1       1.163   8.723  20.607  0.00  0.00    +0.000 A 
ATOM     18  C   UNL     1       0.507   9.758  19.924  0.00  0.00    +0.000 A 
ATOM     19  C   UNL     1      -0.269  10.691  20.617  0.00  0.00    +0.000 A 
ENDBRANCH  11  17
ENDBRANCH   1  12
TORSDOF 2
ENDMDL
MODEL 8
REMARK VINA RESULT:      -6.9      0.980      1.588
REMARK  Name = 
REMARK  2 active torsions:
REMARK  status: ('A' for Active; 'I' for Inactive)
REMARK    1  A    between atoms: C_5  and  N_6
REMARK    2  A    between atoms: C_7  and  C_8
REMARK                            x       y       z     vdW  Elec       q    Type
REMARK                         _______ _______ _______ _____ _____    ______ ____
ROOT
ATOM      1  C   UNL     1       5.762   5.334  17.008  0.00  0.00    +0.000 A 
ATOM      2  C   UNL     1       6.817   6.206  17.214  0.00  0.00    +0.000 A 
ATOM      3  N   UNL     1       7.584   6.233  16.084  0.00  0.00    +0.000 N 
ATOM      4  C   UNL     1       7.046   5.408  15.123  0.00  0.00    +0.000 A 
ATOM      5  C   UNL     1       7.487   5.143  13.821  0.00  0.00    +0.000 A 
ATOM      6  C   UNL     1       6.729   4.260  13.049  0.00  0.00    +0.000 A 
ATOM      7  C   UNL     1       5.582   3.661  13.564  0.00  0.00    +0.000 A 
ATOM      8  C   UNL     1       5.160   3.930  14.872  0.00  0.00    +0.000 A 
ATOM      9  C   UNL     1       5.901   4.829  15.674  0.00  0.00    +0.000 A 
ATOM     10  H   UNL     1       8.425   6.782  15.964  0.00  0.00    +0.000 HD
ENDROOT
BRANCH   1  12
ATOM     11  N   UNL     1       4.834   3.921  18.665  0.00  0.00    +0.000 NA
ATOM     12  C   UNL     1       4.737   5.013  17.981  0.00  0.00    +0.000 C 
BRANCH  11  17
ATOM     13  F   UNL     1       0.735   2.706  22.192  0.00  0.00    +0.000 F 
ATOM     14  C   UNL     1       1.735   2.985  21.346  0.00  0.00    +0.000 A 
ATOM     15  C   UNL     1       1.593   4.018  20.429  0.00  0.00    +0.000 A 
ATOM     16  C   UNL     1       2.643   4.306  19.555  0.00  0.00    +0.000 A 
ATOM     17  C   UNL     1       3.839   3.574  19.592  0.00  0.00    +0.000 A 
ATOM     18  C   UNL     1       3.945   2.518  20.508  0.00  0.00    +0.000 A 
ATOM     19  C   UNL     1       2.900   2.230  21.391  0.00  0.00    +0.000 A 
ENDBRANCH  11  17
ENDBRANCH   1  12
TORSDOF 2
ENDMDL
MODEL 9
REMARK VINA RESULT:      -6.9      4.597      6.234
REMARK  Name = 
REMARK  2 active torsions:
REMARK  status: ('A' for Active; 'I' for Inactive)
REMARK    1  A    between atoms: C_5  and  N_6
REMARK    2  A    between atoms: C_7  and  C_8
REMARK                            x       y       z     vdW  Elec       q    Type
REMARK                         _______ _______ _______ _____ _____    ______ ____
ROOT
ATOM      1  C   UNL     1       3.015   6.476  18.154  0.00  0.00    +0.000 A 
ATOM      2  C   UNL     1       4.235   6.609  17.513  0.00  0.00    +0.000 A 
ATOM      3  N   UNL     1       4.650   5.372  17.109  0.00  0.00    +0.000 N 
ATOM      4  C   UNL     1       3.717   4.421  17.454  0.00  0.00    +0.000 A 
ATOM      5  C   UNL     1       3.720   3.039  17.228  0.00  0.00    +0.000 A 
ATOM      6  C   UNL     1       2.622   2.307  17.681  0.00  0.00    +0.000 A 
ATOM      7  C   UNL     1       1.568   2.932  18.343  0.00  0.00    +0.000 A 
ATOM      8  C   UNL     1       1.585   4.314  18.570  0.00  0.00    +0.000 A 
ATOM      9  C   UNL     1       2.678   5.084  18.112  0.00  0.00    +0.000 A 
ATOM     10  H   UNL     1       5.514   5.178  16.622  0.00  0.00    +0.000 HD
ENDROOT
BRANCH   1  12
ATOM     11  N   UNL     1       2.034   7.552  20.020  0.00  0.00    +0.000 NA
ATOM     12  C   UNL     1       2.256   7.560  18.746  0.00  0.00    +0.000 C 
BRANCH  11  17
ATOM     13  F   UNL     1      -1.034  11.664  22.117  0.00  0.00    +0.000 F 
ATOM     14  C   UNL     1      -0.292  10.662  21.628  0.00  0.00    +0.000 A 
ATOM     15  C   UNL     1      -0.041  10.596  20.264  0.00  0.00    +0.000 A 
ATOM     16  C   UNL     1       0.740   9.552  19.762  0.00  0.00    +0.000 A 
ATOM     17  C   UNL     1       1.276   8.575  20.612  0.00  0.00    +0.000 A 
ATOM     18  C   UNL     1       0.983   8.649  21.981  0.00  0.00    +0.000 A 
ATOM     19  C   UNL     1       0.210   9.697  22.491  0.00  0.00    +0.000 A 
ENDBRANCH  11  17
ENDBRANCH   1  12
TORSDOF 2
ENDMDL
