MODEL 1
REMARK VINA RESULT:      -8.2      0.000      0.000
REMARK  Name = 
REMARK  11 active torsions:
REMARK  status: ('A' for Active; 'I' for Inactive)
REMARK    1  A    between atoms: C_1  and  O_2
REMARK    2  A    between atoms: O_2  and  C_3
REMARK    3  A    between atoms: C_6  and  N_7
REMARK    4  A    between atoms: C_8  and  C_10
REMARK    5  A    between atoms: C_15  and  O_16
REMARK    6  A    between atoms: O_16  and  C_17
REMARK    7  A    between atoms: C_17  and  C_18
REMARK    8  A    between atoms: N_20  and  O_21
REMARK    9  A    between atoms: N_25  and  C_26
REMARK   10  A    between atoms: C_26  and  C_27
REMARK   11  A    between atoms: C_27  and  C_28
REMARK                            x       y       z     vdW  Elec       q    Type
REMARK                         _______ _______ _______ _____ _____    ______ ____
ROOT
ATOM      1  C   UNL     1      -0.895  11.354  20.356  0.00  0.00    +0.000 C 
ATOM      2  C   UNL     1      -2.151  12.012  19.724  0.00  0.00    +0.000 C 
ATOM      3  C   UNL     1      -2.618  11.457  18.400  0.00  0.00    +0.000 A 
ATOM      4  C   UNL     1      -3.860  11.838  17.875  0.00  0.00    +0.000 A 
ATOM      5  C   UNL     1      -4.324  11.301  16.674  0.00  0.00    +0.000 A 
ATOM      6  C   UNL     1      -3.548  10.392  15.953  0.00  0.00    +0.000 A 
ATOM      7  C   UNL     1      -2.303  10.013  16.460  0.00  0.00    +0.000 A 
ATOM      8  C   UNL     1      -1.837  10.533  17.690  0.00  0.00    +0.000 A 
ATOM      9  C   UNL     1      -0.488  10.139  18.245  0.00  0.00    +0.000 C 
ATOM     10  N   UNL     1      -0.488  10.071  19.716  0.00  0.00    +0.000 NA
ENDROOT
BRANCH   1  12
ATOM     11  N   UNL     1       0.603  13.033  19.310  0.00  0.00    +0.000 N 
ATOM     12  C   UNL     1       0.246  12.409  20.516  0.00  0.00    +0.000 C 
ATOM     13  O   UNL     1       0.755  12.655  21.609  0.00  0.00    +0.000 OA
ATOM     14  H   UNL     1       0.168  12.686  18.463  0.00  0.00    +0.000 HD
BRANCH  11  18
ATOM     15  C   UNL     1       3.446  16.154  18.730  0.00  0.00    +0.000 A 
ATOM     16  C   UNL     1       2.312  16.373  19.507  0.00  0.00    +0.000 A 
ATOM     17  C   UNL     1       1.366  15.359  19.713  0.00  0.00    +0.000 A 
ATOM     18  C   UNL     1       1.525  14.101  19.132  0.00  0.00    +0.000 A 
ATOM     19  C   UNL     1       2.650  13.900  18.309  0.00  0.00    +0.000 A 
ATOM     20  C   UNL     1       3.609  14.916  18.114  0.00  0.00    +0.000 A 
BRANCH  15  22
ATOM     21  C   UNL     1       5.654  17.004  18.912  0.00  0.00    +0.000 C 
ATOM     22  O   UNL     1       4.281  17.229  18.619  0.00  0.00    +0.000 OA
ENDBRANCH  15  22
ENDBRANCH  11  18
ENDBRANCH   1  12
BRANCH   6  23
ATOM     23  O   UNL     1      -4.142   9.913  14.814  0.00  0.00    +0.000 OA
BRANCH  23  24
ATOM     24  C   UNL     1      -3.386  10.002  13.612  0.00  0.00    +0.000 C 
BRANCH  24  25
ATOM     25  C   UNL     1      -4.249   9.661  12.395  0.00  0.00    +0.000 C 
ATOM     26  O   UNL     1      -3.792   9.562  11.256  0.00  0.00    +0.000 OA
ATOM     27  N   UNL     1      -5.594   9.526  12.648  0.00  0.00    +0.000 N 
ATOM     28  H   UNL     1      -5.914   9.266  13.578  0.00  0.00    +0.000 HD
BRANCH  27  29
ATOM     29  O   UNL     1      -6.387   9.102  11.556  0.00  0.00    +0.000 OA
ATOM     30  H   UNL     1      -7.013   9.851  11.442  0.00  0.00    +0.000 HD
ENDBRANCH  27  29
ENDBRANCH  24  25
ENDBRANCH  23  24
ENDBRANCH   6  23
BRANCH  10  31
ATOM     31  C   UNL     1       0.779   9.480  20.186  0.00  0.00    +0.000 C 
BRANCH  31  32
ATOM     32  C   UNL     1       1.794   9.126  19.088  0.00  0.00    +0.000 C 
BRANCH  32  33
ATOM     33  C   UNL     1       2.162   7.663  19.143  0.00  0.00    +0.000 A 
ATOM     34  C   UNL     1       2.695   7.026  18.013  0.00  0.00    +0.000 A 
ATOM     35  C   UNL     1       3.001   5.665  18.050  0.00  0.00    +0.000 A 
ATOM     36  C   UNL     1       2.773   4.930  19.212  0.00  0.00    +0.000 A 
ATOM     37  C   UNL     1       2.240   5.555  20.339  0.00  0.00    +0.000 A 
ATOM     38  C   UNL     1       1.934   6.916  20.305  0.00  0.00    +0.000 A 
ENDBRANCH  32  33
ENDBRANCH  31  32
ENDBRANCH  10  31
TORSDOF 10
ENDMDL
MODEL 2
REMARK VINA RESULT:      -8.0      3.570      8.686
REMARK  Name = 
REMARK  11 active torsions:
REMARK  status: ('A' for Active; 'I' for Inactive)
REMARK    1  A    between atoms: C_1  and  O_2
REMARK    2  A    between atoms: O_2  and  C_3
REMARK    3  A    between atoms: C_6  and  N_7
REMARK    4  A    between atoms: C_8  and  C_10
REMARK    5  A    between atoms: C_15  and  O_16
REMARK    6  A    between atoms: O_16  and  C_17
REMARK    7  A    between atoms: C_17  and  C_18
REMARK    8  A    between atoms: N_20  and  O_21
REMARK    9  A    between atoms: N_25  and  C_26
REMARK   10  A    between atoms: C_26  and  C_27
REMARK   11  A    between atoms: C_27  and  C_28
REMARK                            x       y       z     vdW  Elec       q    Type
REMARK                         _______ _______ _______ _____ _____    ______ ____
ROOT
ATOM      1  C   UNL     1       0.956  11.399  20.039  0.00  0.00    +0.000 C 
ATOM      2  C   UNL     1       0.766  10.019  20.724  0.00  0.00    +0.000 C 
ATOM      3  C   UNL     1       1.368   8.822  20.027  0.00  0.00    +0.000 A 
ATOM      4  C   UNL     1       1.437   7.586  20.682  0.00  0.00    +0.000 A 
ATOM      5  C   UNL     1       2.028   6.483  20.066  0.00  0.00    +0.000 A 
ATOM      6  C   UNL     1       2.540   6.579  18.772  0.00  0.00    +0.000 A 
ATOM      7  C   UNL     1       2.467   7.804  18.103  0.00  0.00    +0.000 A 
ATOM      8  C   UNL     1       1.892   8.934  18.731  0.00  0.00    +0.000 A 
ATOM      9  C   UNL     1       1.799  10.261  18.015  0.00  0.00    +0.000 C 
ATOM     10  N   UNL     1       1.956  11.402  18.935  0.00  0.00    +0.000 NA
ENDROOT
BRANCH   1  12
ATOM     11  N   UNL     1      -1.226  11.190  18.876  0.00  0.00    +0.000 N 
ATOM     12  C   UNL     1      -0.432  12.022  19.682  0.00  0.00    +0.000 C 
ATOM     13  O   UNL     1      -0.771  13.131  20.093  0.00  0.00    +0.000 OA
ATOM     14  H   UNL     1      -0.804  10.334  18.536  0.00  0.00    +0.000 HD
BRANCH  11  18
ATOM     15  C   UNL     1      -5.214  11.853  17.528  0.00  0.00    +0.000 A 
ATOM     16  C   UNL     1      -4.863  12.129  18.848  0.00  0.00    +0.000 A 
ATOM     17  C   UNL     1      -3.557  11.921  19.310  0.00  0.00    +0.000 A 
ATOM     18  C   UNL     1      -2.569  11.416  18.466  0.00  0.00    +0.000 A 
ATOM     19  C   UNL     1      -2.941  11.095  17.145  0.00  0.00    +0.000 A 
ATOM     20  C   UNL     1      -4.252  11.318  16.676  0.00  0.00    +0.000 A 
BRANCH  15  22
ATOM     21  C   UNL     1      -6.870  13.467  16.996  0.00  0.00    +0.000 C 
ATOM     22  O   UNL     1      -6.520  12.107  17.218  0.00  0.00    +0.000 OA
ENDBRANCH  15  22
ENDBRANCH  11  18
ENDBRANCH   1  12
BRANCH   6  23
ATOM     23  O   UNL     1       3.130   5.433  18.305  0.00  0.00    +0.000 OA
BRANCH  23  24
ATOM     24  C   UNL     1       3.851   4.652  19.252  0.00  0.00    +0.000 C 
BRANCH  24  25
ATOM     25  C   UNL     1       5.361   4.790  19.041  0.00  0.00    +0.000 C 
ATOM     26  O   UNL     1       6.064   5.548  19.708  0.00  0.00    +0.000 OA
ATOM     27  N   UNL     1       5.879   4.047  18.006  0.00  0.00    +0.000 N 
ATOM     28  H   UNL     1       5.405   3.200  17.699  0.00  0.00    +0.000 HD
BRANCH  27  29
ATOM     29  O   UNL     1       7.287   4.078  17.870  0.00  0.00    +0.000 OA
ATOM     30  H   UNL     1       7.525   3.125  17.887  0.00  0.00    +0.000 HD
ENDBRANCH  27  29
ENDBRANCH  24  25
ENDBRANCH  23  24
ENDBRANCH   6  23
BRANCH  10  31
ATOM     31  C   UNL     1       2.069  12.651  18.159  0.00  0.00    +0.000 C 
BRANCH  31  32
ATOM     32  C   UNL     1       2.874  13.777  18.827  0.00  0.00    +0.000 C 
BRANCH  32  33
ATOM     33  C   UNL     1       2.404  15.132  18.355  0.00  0.00    +0.000 A 
ATOM     34  C   UNL     1       3.206  15.898  17.498  0.00  0.00    +0.000 A 
ATOM     35  C   UNL     1       2.791  17.167  17.091  0.00  0.00    +0.000 A 
ATOM     36  C   UNL     1       1.576  17.681  17.541  0.00  0.00    +0.000 A 
ATOM     37  C   UNL     1       0.774  16.927  18.396  0.00  0.00    +0.000 A 
ATOM     38  C   UNL     1       1.186  15.658  18.804  0.00  0.00    +0.000 A 
ENDBRANCH  32  33
ENDBRANCH  31  32
ENDBRANCH  10  31
TORSDOF 10
ENDMDL
MODEL 3
REMARK VINA RESULT:      -7.9      0.879      1.194
REMARK  Name = 
REMARK  11 active torsions:
REMARK  status: ('A' for Active; 'I' for Inactive)
REMARK    1  A    between atoms: C_1  and  O_2
REMARK    2  A    between atoms: O_2  and  C_3
REMARK    3  A    between atoms: C_6  and  N_7
REMARK    4  A    between atoms: C_8  and  C_10
REMARK    5  A    between atoms: C_15  and  O_16
REMARK    6  A    between atoms: O_16  and  C_17
REMARK    7  A    between atoms: C_17  and  C_18
REMARK    8  A    between atoms: N_20  and  O_21
REMARK    9  A    between atoms: N_25  and  C_26
REMARK   10  A    between atoms: C_26  and  C_27
REMARK   11  A    between atoms: C_27  and  C_28
REMARK                            x       y       z     vdW  Elec       q    Type
REMARK                         _______ _______ _______ _____ _____    ______ ____
ROOT
ATOM      1  C   UNL     1      -0.357  10.761  20.188  0.00  0.00    +0.000 C 
ATOM      2  C   UNL     1      -1.698  11.459  19.837  0.00  0.00    +0.000 C 
ATOM      3  C   UNL     1      -2.293  11.153  18.484  0.00  0.00    +0.000 A 
ATOM      4  C   UNL     1      -3.599  11.559  18.180  0.00  0.00    +0.000 A 
ATOM      5  C   UNL     1      -4.177  11.247  16.949  0.00  0.00    +0.000 A 
ATOM      6  C   UNL     1      -3.457  10.545  15.982  0.00  0.00    +0.000 A 
ATOM      7  C   UNL     1      -2.150  10.145  16.268  0.00  0.00    +0.000 A 
ATOM      8  C   UNL     1      -1.566  10.435  17.523  0.00  0.00    +0.000 A 
ATOM      9  C   UNL     1      -0.150  10.016  17.842  0.00  0.00    +0.000 C 
ATOM     10  N   UNL     1       0.019   9.657  19.261  0.00  0.00    +0.000 NA
ENDROOT
BRANCH   1  12
ATOM     11  N   UNL     1       0.854  12.786  19.420  0.00  0.00    +0.000 N 
ATOM     12  C   UNL     1       0.758  11.827  20.441  0.00  0.00    +0.000 C 
ATOM     13  O   UNL     1       1.459  11.806  21.451  0.00  0.00    +0.000 OA
ATOM     14  H   UNL     1       0.275  12.650  18.600  0.00  0.00    +0.000 HD
BRANCH  11  18
ATOM     15  C   UNL     1       3.450  16.165  19.333  0.00  0.00    +0.000 A 
ATOM     16  C   UNL     1       2.133  16.302  19.764  0.00  0.00    +0.000 A 
ATOM     17  C   UNL     1       1.264  15.203  19.803  0.00  0.00    +0.000 A 
ATOM     18  C   UNL     1       1.688  13.938  19.397  0.00  0.00    +0.000 A 
ATOM     19  C   UNL     1       3.007  13.815  18.918  0.00  0.00    +0.000 A 
ATOM     20  C   UNL     1       3.886  14.918  18.893  0.00  0.00    +0.000 A 
BRANCH  15  22
ATOM     21  C   UNL     1       4.281  17.991  20.600  0.00  0.00    +0.000 C 
ATOM     22  O   UNL     1       4.181  17.318  19.351  0.00  0.00    +0.000 OA
ENDBRANCH  15  22
ENDBRANCH  11  18
ENDBRANCH   1  12
BRANCH   6  23
ATOM     23  O   UNL     1      -4.159  10.269  14.837  0.00  0.00    +0.000 OA
BRANCH  23  24
ATOM     24  C   UNL     1      -3.395  10.014  13.663  0.00  0.00    +0.000 C 
BRANCH  24  25
ATOM     25  C   UNL     1      -4.300   9.616  12.495  0.00  0.00    +0.000 C 
ATOM     26  O   UNL     1      -3.893   9.501  11.340  0.00  0.00    +0.000 OA
ATOM     27  N   UNL     1      -5.628   9.448  12.813  0.00  0.00    +0.000 N 
ATOM     28  H   UNL     1      -5.898   9.202  13.763  0.00  0.00    +0.000 HD
BRANCH  27  29
ATOM     29  O   UNL     1      -6.456   8.971  11.769  0.00  0.00    +0.000 OA
ATOM     30  H   UNL     1      -7.179   8.519  12.258  0.00  0.00    +0.000 HD
ENDBRANCH  27  29
ENDBRANCH  24  25
ENDBRANCH  23  24
ENDBRANCH   6  23
BRANCH  10  31
ATOM     31  C   UNL     1       1.351   9.057  19.465  0.00  0.00    +0.000 C 
BRANCH  31  32
ATOM     32  C   UNL     1       2.248   8.991  18.220  0.00  0.00    +0.000 C 
BRANCH  32  33
ATOM     33  C   UNL     1       2.726   7.581  17.971  0.00  0.00    +0.000 A 
ATOM     34  C   UNL     1       1.953   6.489  18.392  0.00  0.00    +0.000 A 
ATOM     35  C   UNL     1       2.410   5.185  18.197  0.00  0.00    +0.000 A 
ATOM     36  C   UNL     1       3.644   4.962  17.587  0.00  0.00    +0.000 A 
ATOM     37  C   UNL     1       4.420   6.042  17.170  0.00  0.00    +0.000 A 
ATOM     38  C   UNL     1       3.965   7.347  17.362  0.00  0.00    +0.000 A 
ENDBRANCH  32  33
ENDBRANCH  31  32
ENDBRANCH  10  31
TORSDOF 10
ENDMDL
MODEL 4
REMARK VINA RESULT:      -7.9      0.744      1.160
REMARK  Name = 
REMARK  11 active torsions:
REMARK  status: ('A' for Active; 'I' for Inactive)
REMARK    1  A    between atoms: C_1  and  O_2
REMARK    2  A    between atoms: O_2  and  C_3
REMARK    3  A    between atoms: C_6  and  N_7
REMARK    4  A    between atoms: C_8  and  C_10
REMARK    5  A    between atoms: C_15  and  O_16
REMARK    6  A    between atoms: O_16  and  C_17
REMARK    7  A    between atoms: C_17  and  C_18
REMARK    8  A    between atoms: N_20  and  O_21
REMARK    9  A    between atoms: N_25  and  C_26
REMARK   10  A    between atoms: C_26  and  C_27
REMARK   11  A    between atoms: C_27  and  C_28
REMARK                            x       y       z     vdW  Elec       q    Type
REMARK                         _______ _______ _______ _____ _____    ______ ____
ROOT
ATOM      1  C   UNL     1      -0.488  11.123  20.362  0.00  0.00    +0.000 C 
ATOM      2  C   UNL     1      -1.698  11.845  19.709  0.00  0.00    +0.000 C 
ATOM      3  C   UNL     1      -2.227  11.260  18.422  0.00  0.00    +0.000 A 
ATOM      4  C   UNL     1      -3.443  11.710  17.891  0.00  0.00    +0.000 A 
ATOM      5  C   UNL     1      -3.966  11.150  16.725  0.00  0.00    +0.000 A 
ATOM      6  C   UNL     1      -3.275  10.146  16.046  0.00  0.00    +0.000 A 
ATOM      7  C   UNL     1      -2.056   9.696  16.558  0.00  0.00    +0.000 A 
ATOM      8  C   UNL     1      -1.532  10.241  17.754  0.00  0.00    +0.000 A 
ATOM      9  C   UNL     1      -0.210   9.770  18.314  0.00  0.00    +0.000 C 
ATOM     10  N   UNL     1      -0.194   9.780  19.787  0.00  0.00    +0.000 NA
ENDROOT
BRANCH   1  12
ATOM     11  N   UNL     1       0.889  12.905  19.320  0.00  0.00    +0.000 N 
ATOM     12  C   UNL     1       0.735  12.091  20.454  0.00  0.00    +0.000 C 
ATOM     13  O   UNL     1       1.467  12.121  21.442  0.00  0.00    +0.000 OA
ATOM     14  H   UNL     1       0.270  12.730  18.536  0.00  0.00    +0.000 HD
BRANCH  11  18
ATOM     15  C   UNL     1       3.660  16.108  18.855  0.00  0.00    +0.000 A 
ATOM     16  C   UNL     1       3.555  15.122  17.877  0.00  0.00    +0.000 A 
ATOM     17  C   UNL     1       2.648  14.062  18.009  0.00  0.00    +0.000 A 
ATOM     18  C   UNL     1       1.831  13.953  19.133  0.00  0.00    +0.000 A 
ATOM     19  C   UNL     1       1.975  14.927  20.141  0.00  0.00    +0.000 A 
ATOM     20  C   UNL     1       2.877  16.002  20.001  0.00  0.00    +0.000 A 
BRANCH  15  22
ATOM     21  C   UNL     1       5.304  17.593  19.704  0.00  0.00    +0.000 C 
ATOM     22  O   UNL     1       4.582  17.080  18.591  0.00  0.00    +0.000 OA
ENDBRANCH  15  22
ENDBRANCH  11  18
ENDBRANCH   1  12
BRANCH   6  23
ATOM     23  O   UNL     1      -3.921   9.657  14.940  0.00  0.00    +0.000 OA
BRANCH  23  24
ATOM     24  C   UNL     1      -3.719  10.357  13.717  0.00  0.00    +0.000 C 
BRANCH  24  25
ATOM     25  C   UNL     1      -4.476   9.685  12.569  0.00  0.00    +0.000 C 
ATOM     26  O   UNL     1      -5.619   9.245  12.687  0.00  0.00    +0.000 OA
ATOM     27  N   UNL     1      -3.767   9.552  11.398  0.00  0.00    +0.000 N 
ATOM     28  H   UNL     1      -3.003  10.190  11.189  0.00  0.00    +0.000 HD
BRANCH  27  29
ATOM     29  O   UNL     1      -4.490   9.036  10.296  0.00  0.00    +0.000 OA
ATOM     30  H   UNL     1      -4.241   9.650   9.570  0.00  0.00    +0.000 HD
ENDBRANCH  27  29
ENDBRANCH  24  25
ENDBRANCH  23  24
ENDBRANCH   6  23
BRANCH  10  31
ATOM     31  C   UNL     1       1.030   9.115  20.273  0.00  0.00    +0.000 C 
BRANCH  31  32
ATOM     32  C   UNL     1       1.949   8.538  19.186  0.00  0.00    +0.000 C 
BRANCH  32  33
ATOM     33  C   UNL     1       2.074   7.040  19.323  0.00  0.00    +0.000 A 
ATOM     34  C   UNL     1       2.455   6.260  18.221  0.00  0.00    +0.000 A 
ATOM     35  C   UNL     1       2.534   4.871  18.335  0.00  0.00    +0.000 A 
ATOM     36  C   UNL     1       2.229   4.251  19.546  0.00  0.00    +0.000 A 
ATOM     37  C   UNL     1       1.846   5.019  20.644  0.00  0.00    +0.000 A 
ATOM     38  C   UNL     1       1.767   6.408  20.534  0.00  0.00    +0.000 A 
ENDBRANCH  32  33
ENDBRANCH  31  32
ENDBRANCH  10  31
TORSDOF 10
ENDMDL
MODEL 5
REMARK VINA RESULT:      -7.8      4.160      7.473
REMARK  Name = 
REMARK  11 active torsions:
REMARK  status: ('A' for Active; 'I' for Inactive)
REMARK    1  A    between atoms: C_1  and  O_2
REMARK    2  A    between atoms: O_2  and  C_3
REMARK    3  A    between atoms: C_6  and  N_7
REMARK    4  A    between atoms: C_8  and  C_10
REMARK    5  A    between atoms: C_15  and  O_16
REMARK    6  A    between atoms: O_16  and  C_17
REMARK    7  A    between atoms: C_17  and  C_18
REMARK    8  A    between atoms: N_20  and  O_21
REMARK    9  A    between atoms: N_25  and  C_26
REMARK   10  A    between atoms: C_26  and  C_27
REMARK   11  A    between atoms: C_27  and  C_28
REMARK                            x       y       z     vdW  Elec       q    Type
REMARK                         _______ _______ _______ _____ _____    ______ ____
ROOT
ATOM      1  C   UNL     1       0.227  11.373  18.789  0.00  0.00    +0.000 C 
ATOM      2  C   UNL     1       1.257  10.535  17.986  0.00  0.00    +0.000 C 
ATOM      3  C   UNL     1       1.699   9.227  18.599  0.00  0.00    +0.000 A 
ATOM      4  C   UNL     1       2.445   8.313  17.845  0.00  0.00    +0.000 A 
ATOM      5  C   UNL     1       2.824   7.083  18.383  0.00  0.00    +0.000 A 
ATOM      6  C   UNL     1       2.491   6.747  19.696  0.00  0.00    +0.000 A 
ATOM      7  C   UNL     1       1.756   7.655  20.462  0.00  0.00    +0.000 A 
ATOM      8  C   UNL     1       1.346   8.894  19.915  0.00  0.00    +0.000 A 
ATOM      9  C   UNL     1       0.560   9.889  20.735  0.00  0.00    +0.000 C 
ATOM     10  N   UNL     1      -0.410  10.641  19.920  0.00  0.00    +0.000 NA
ENDROOT
BRANCH   1  12
ATOM     11  N   UNL     1       2.176  12.909  18.779  0.00  0.00    +0.000 N 
ATOM     12  C   UNL     1       0.831  12.767  19.156  0.00  0.00    +0.000 C 
ATOM     13  O   UNL     1       0.163  13.639  19.710  0.00  0.00    +0.000 OA
ATOM     14  H   UNL     1       2.641  12.091  18.402  0.00  0.00    +0.000 HD
BRANCH  11  18
ATOM     15  C   UNL     1       4.575  16.427  18.944  0.00  0.00    +0.000 A 
ATOM     16  C   UNL     1       4.470  15.595  20.056  0.00  0.00    +0.000 A 
ATOM     17  C   UNL     1       3.689  14.432  20.022  0.00  0.00    +0.000 A 
ATOM     18  C   UNL     1       2.979  14.079  18.875  0.00  0.00    +0.000 A 
ATOM     19  C   UNL     1       3.051  14.948  17.769  0.00  0.00    +0.000 A 
ATOM     20  C   UNL     1       3.849  16.111  17.799  0.00  0.00    +0.000 A 
BRANCH  15  22
ATOM     21  C   UNL     1       5.454  18.044  20.441  0.00  0.00    +0.000 C 
ATOM     22  O   UNL     1       5.371  17.522  19.121  0.00  0.00    +0.000 OA
ENDBRANCH  15  22
ENDBRANCH  11  18
ENDBRANCH   1  12
BRANCH   6  23
ATOM     23  O   UNL     1       2.889   5.493  20.083  0.00  0.00    +0.000 OA
BRANCH  23  24
ATOM     24  C   UNL     1       3.241   4.585  19.045  0.00  0.00    +0.000 C 
BRANCH  24  25
ATOM     25  C   UNL     1       3.574   3.204  19.615  0.00  0.00    +0.000 C 
ATOM     26  O   UNL     1       2.729   2.468  20.124  0.00  0.00    +0.000 OA
ATOM     27  N   UNL     1       4.904   2.856  19.573  0.00  0.00    +0.000 N 
ATOM     28  H   UNL     1       5.518   3.272  18.876  0.00  0.00    +0.000 HD
BRANCH  27  29
ATOM     29  O   UNL     1       5.210   1.540  19.992  0.00  0.00    +0.000 OA
ATOM     30  H   UNL     1       5.884   1.257  19.335  0.00  0.00    +0.000 HD
ENDBRANCH  27  29
ENDBRANCH  24  25
ENDBRANCH  23  24
ENDBRANCH   6  23
BRANCH  10  31
ATOM     31  C   UNL     1      -1.288  11.434  20.801  0.00  0.00    +0.000 C 
BRANCH  31  32
ATOM     32  C   UNL     1      -0.955  11.375  22.299  0.00  0.00    +0.000 C 
BRANCH  32  33
ATOM     33  C   UNL     1      -1.741  12.408  23.070  0.00  0.00    +0.000 A 
ATOM     34  C   UNL     1      -1.171  13.656  23.361  0.00  0.00    +0.000 A 
ATOM     35  C   UNL     1      -1.882  14.598  24.106  0.00  0.00    +0.000 A 
ATOM     36  C   UNL     1      -3.162  14.299  24.570  0.00  0.00    +0.000 A 
ATOM     37  C   UNL     1      -3.733  13.059  24.289  0.00  0.00    +0.000 A 
ATOM     38  C   UNL     1      -3.026  12.116  23.543  0.00  0.00    +0.000 A 
ENDBRANCH  32  33
ENDBRANCH  31  32
ENDBRANCH  10  31
TORSDOF 10
ENDMDL
MODEL 6
REMARK VINA RESULT:      -7.8      3.989      7.462
REMARK  Name = 
REMARK  11 active torsions:
REMARK  status: ('A' for Active; 'I' for Inactive)
REMARK    1  A    between atoms: C_1  and  O_2
REMARK    2  A    between atoms: O_2  and  C_3
REMARK    3  A    between atoms: C_6  and  N_7
REMARK    4  A    between atoms: C_8  and  C_10
REMARK    5  A    between atoms: C_15  and  O_16
REMARK    6  A    between atoms: O_16  and  C_17
REMARK    7  A    between atoms: C_17  and  C_18
REMARK    8  A    between atoms: N_20  and  O_21
REMARK    9  A    between atoms: N_25  and  C_26
REMARK   10  A    between atoms: C_26  and  C_27
REMARK   11  A    between atoms: C_27  and  C_28
REMARK                            x       y       z     vdW  Elec       q    Type
REMARK                         _______ _______ _______ _____ _____    ______ ____
ROOT
ATOM      1  C   UNL     1      -0.000  11.232  18.711  0.00  0.00    +0.000 C 
ATOM      2  C   UNL     1       0.985  10.392  17.855  0.00  0.00    +0.000 C 
ATOM      3  C   UNL     1       1.541   9.139  18.488  0.00  0.00    +0.000 A 
ATOM      4  C   UNL     1       2.253   8.215  17.712  0.00  0.00    +0.000 A 
ATOM      5  C   UNL     1       2.736   7.032  18.274  0.00  0.00    +0.000 A 
ATOM      6  C   UNL     1       2.545   6.756  19.628  0.00  0.00    +0.000 A 
ATOM      7  C   UNL     1       1.847   7.676  20.415  0.00  0.00    +0.000 A 
ATOM      8  C   UNL     1       1.331   8.865  19.847  0.00  0.00    +0.000 A 
ATOM      9  C   UNL     1       0.583   9.872  20.689  0.00  0.00    +0.000 C 
ATOM     10  N   UNL     1      -0.493  10.539  19.935  0.00  0.00    +0.000 NA
ENDROOT
BRANCH   1  12
ATOM     11  N   UNL     1       1.973  12.729  18.863  0.00  0.00    +0.000 N 
ATOM     12  C   UNL     1       0.573  12.667  18.945  0.00  0.00    +0.000 C 
ATOM     13  O   UNL     1      -0.159  13.631  19.165  0.00  0.00    +0.000 OA
ATOM     14  H   UNL     1       2.470  11.852  18.756  0.00  0.00    +0.000 HD
BRANCH  11  18
ATOM     15  C   UNL     1       4.411  16.210  19.168  0.00  0.00    +0.000 A 
ATOM     16  C   UNL     1       3.878  15.832  17.938  0.00  0.00    +0.000 A 
ATOM     17  C   UNL     1       3.072  14.692  17.817  0.00  0.00    +0.000 A 
ATOM     18  C   UNL     1       2.789  13.892  18.924  0.00  0.00    +0.000 A 
ATOM     19  C   UNL     1       3.369  14.254  20.155  0.00  0.00    +0.000 A 
ATOM     20  C   UNL     1       4.169  15.408  20.280  0.00  0.00    +0.000 A 
BRANCH  15  22
ATOM     21  C   UNL     1       5.590  17.866  20.392  0.00  0.00    +0.000 C 
ATOM     22  O   UNL     1       5.174  17.342  19.137  0.00  0.00    +0.000 OA
ENDBRANCH  15  22
ENDBRANCH  11  18
ENDBRANCH   1  12
BRANCH   6  23
ATOM     23  O   UNL     1       3.034   5.543  20.038  0.00  0.00    +0.000 OA
BRANCH  23  24
ATOM     24  C   UNL     1       3.251   4.565  19.026  0.00  0.00    +0.000 C 
BRANCH  24  25
ATOM     25  C   UNL     1       4.670   3.999  19.106  0.00  0.00    +0.000 C 
ATOM     26  O   UNL     1       4.958   3.002  19.769  0.00  0.00    +0.000 OA
ATOM     27  N   UNL     1       5.628   4.717  18.429  0.00  0.00    +0.000 N 
ATOM     28  H   UNL     1       5.364   5.298  17.636  0.00  0.00    +0.000 HD
BRANCH  27  29
ATOM     29  O   UNL     1       6.922   4.145  18.401  0.00  0.00    +0.000 OA
ATOM     30  H   UNL     1       6.735   3.188  18.522  0.00  0.00    +0.000 HD
ENDBRANCH  27  29
ENDBRANCH  24  25
ENDBRANCH  23  24
ENDBRANCH   6  23
BRANCH  10  31
ATOM     31  C   UNL     1      -1.318  11.344  20.855  0.00  0.00    +0.000 C 
BRANCH  31  32
ATOM     32  C   UNL     1      -0.723  11.572  22.253  0.00  0.00    +0.000 C 
BRANCH  32  33
ATOM     33  C   UNL     1      -1.603  12.484  23.073  0.00  0.00    +0.000 A 
ATOM     34  C   UNL     1      -2.895  12.079  23.436  0.00  0.00    +0.000 A 
ATOM     35  C   UNL     1      -3.724  12.936  24.161  0.00  0.00    +0.000 A 
ATOM     36  C   UNL     1      -3.271  14.204  24.524  0.00  0.00    +0.000 A 
ATOM     37  C   UNL     1      -1.989  14.615  24.164  0.00  0.00    +0.000 A 
ATOM     38  C   UNL     1      -1.158  13.760  23.440  0.00  0.00    +0.000 A 
ENDBRANCH  32  33
ENDBRANCH  31  32
ENDBRANCH  10  31
TORSDOF 10
ENDMDL
MODEL 7
REMARK VINA RESULT:      -7.7      3.393      7.381
REMARK  Name = 
REMARK  11 active torsions:
REMARK  status: ('A' for Active; 'I' for Inactive)
REMARK    1  A    between atoms: C_1  and  O_2
REMARK    2  A    between atoms: O_2  and  C_3
REMARK    3  A    between atoms: C_6  and  N_7
REMARK    4  A    between atoms: C_8  and  C_10
REMARK    5  A    between atoms: C_15  and  O_16
REMARK    6  A    between atoms: O_16  and  C_17
REMARK    7  A    between atoms: C_17  and  C_18
REMARK    8  A    between atoms: N_20  and  O_21
REMARK    9  A    between atoms: N_25  and  C_26
REMARK   10  A    between atoms: C_26  and  C_27
REMARK   11  A    between atoms: C_27  and  C_28
REMARK                            x       y       z     vdW  Elec       q    Type
REMARK                         _______ _______ _______ _____ _____    ______ ____
ROOT
ATOM      1  C   UNL     1       0.271  10.724  18.093  0.00  0.00    +0.000 C 
ATOM      2  C   UNL     1      -1.066  10.179  17.523  0.00  0.00    +0.000 C 
ATOM      3  C   UNL     1      -2.338  10.780  18.073  0.00  0.00    +0.000 A 
ATOM      4  C   UNL     1      -3.567  10.509  17.460  0.00  0.00    +0.000 A 
ATOM      5  C   UNL     1      -4.745  11.090  17.932  0.00  0.00    +0.000 A 
ATOM      6  C   UNL     1      -4.728  11.934  19.043  0.00  0.00    +0.000 A 
ATOM      7  C   UNL     1      -3.509  12.203  19.670  0.00  0.00    +0.000 A 
ATOM      8  C   UNL     1      -2.307  11.638  19.182  0.00  0.00    +0.000 A 
ATOM      9  C   UNL     1      -0.984  11.914  19.857  0.00  0.00    +0.000 C 
ATOM     10  N   UNL     1       0.131  11.972  18.896  0.00  0.00    +0.000 NA
ENDROOT
BRANCH   1  12
ATOM     11  N   UNL     1       1.755   8.748  17.876  0.00  0.00    +0.000 N 
ATOM     12  C   UNL     1       1.074   9.575  18.783  0.00  0.00    +0.000 C 
ATOM     13  O   UNL     1       1.097   9.443  20.006  0.00  0.00    +0.000 OA
ATOM     14  H   UNL     1       1.593   8.910  16.889  0.00  0.00    +0.000 HD
BRANCH  11  18
ATOM     15  C   UNL     1       4.383   5.555  18.906  0.00  0.00    +0.000 A 
ATOM     16  C   UNL     1       4.642   6.346  17.789  0.00  0.00    +0.000 A 
ATOM     17  C   UNL     1       3.792   7.402  17.435  0.00  0.00    +0.000 A 
ATOM     18  C   UNL     1       2.650   7.686  18.183  0.00  0.00    +0.000 A 
ATOM     19  C   UNL     1       2.368   6.854  19.284  0.00  0.00    +0.000 A 
ATOM     20  C   UNL     1       3.231   5.800  19.649  0.00  0.00    +0.000 A 
BRANCH  15  22
ATOM     21  C   UNL     1       6.346   4.438  18.181  0.00  0.00    +0.000 C 
ATOM     22  O   UNL     1       5.296   4.565  19.132  0.00  0.00    +0.000 OA
ENDBRANCH  15  22
ENDBRANCH  11  18
ENDBRANCH   1  12
BRANCH   6  23
ATOM     23  O   UNL     1      -5.946  12.469  19.372  0.00  0.00    +0.000 OA
BRANCH  23  24
ATOM     24  C   UNL     1      -7.098  11.734  18.971  0.00  0.00    +0.000 C 
BRANCH  24  25
ATOM     25  C   UNL     1      -7.339  10.542  19.899  0.00  0.00    +0.000 C 
ATOM     26  O   UNL     1      -7.274  10.624  21.126  0.00  0.00    +0.000 OA
ATOM     27  N   UNL     1      -7.581   9.344  19.267  0.00  0.00    +0.000 N 
ATOM     28  H   UNL     1      -7.968   9.335  18.326  0.00  0.00    +0.000 HD
BRANCH  27  29
ATOM     29  O   UNL     1      -7.916   8.259  20.110  0.00  0.00    +0.000 OA
ATOM     30  H   UNL     1      -8.813   8.012  19.793  0.00  0.00    +0.000 HD
ENDBRANCH  27  29
ENDBRANCH  24  25
ENDBRANCH  23  24
ENDBRANCH   6  23
BRANCH  10  31
ATOM     31  C   UNL     1       1.349  12.451  19.577  0.00  0.00    +0.000 C 
BRANCH  31  32
ATOM     32  C   UNL     1       2.465  12.968  18.656  0.00  0.00    +0.000 C 
BRANCH  32  33
ATOM     33  C   UNL     1       2.338  14.456  18.435  0.00  0.00    +0.000 A 
ATOM     34  C   UNL     1       1.251  15.159  18.972  0.00  0.00    +0.000 A 
ATOM     35  C   UNL     1       1.111  16.527  18.737  0.00  0.00    +0.000 A 
ATOM     36  C   UNL     1       2.052  17.201  17.960  0.00  0.00    +0.000 A 
ATOM     37  C   UNL     1       3.133  16.509  17.419  0.00  0.00    +0.000 A 
ATOM     38  C   UNL     1       3.277  15.141  17.653  0.00  0.00    +0.000 A 
ENDBRANCH  32  33
ENDBRANCH  31  32
ENDBRANCH  10  31
TORSDOF 10
ENDMDL
MODEL 8
REMARK VINA RESULT:      -7.7      3.876      7.549
REMARK  Name = 
REMARK  11 active torsions:
REMARK  status: ('A' for Active; 'I' for Inactive)
REMARK    1  A    between atoms: C_1  and  O_2
REMARK    2  A    between atoms: O_2  and  C_3
REMARK    3  A    between atoms: C_6  and  N_7
REMARK    4  A    between atoms: C_8  and  C_10
REMARK    5  A    between atoms: C_15  and  O_16
REMARK    6  A    between atoms: O_16  and  C_17
REMARK    7  A    between atoms: C_17  and  C_18
REMARK    8  A    between atoms: N_20  and  O_21
REMARK    9  A    between atoms: N_25  and  C_26
REMARK   10  A    between atoms: C_26  and  C_27
REMARK   11  A    between atoms: C_27  and  C_28
REMARK                            x       y       z     vdW  Elec       q    Type
REMARK                         _______ _______ _______ _____ _____    ______ ____
ROOT
ATOM      1  C   UNL     1      -0.015  10.688  18.654  0.00  0.00    +0.000 C 
ATOM      2  C   UNL     1       1.020   9.959  17.756  0.00  0.00    +0.000 C 
ATOM      3  C   UNL     1       1.731   8.772  18.360  0.00  0.00    +0.000 A 
ATOM      4  C   UNL     1       2.506   7.930  17.553  0.00  0.00    +0.000 A 
ATOM      5  C   UNL     1       3.135   6.805  18.089  0.00  0.00    +0.000 A 
ATOM      6  C   UNL     1       3.028   6.509  19.448  0.00  0.00    +0.000 A 
ATOM      7  C   UNL     1       2.267   7.348  20.266  0.00  0.00    +0.000 A 
ATOM      8  C   UNL     1       1.605   8.476  19.725  0.00  0.00    +0.000 A 
ATOM      9  C   UNL     1       0.787   9.396  20.601  0.00  0.00    +0.000 C 
ATOM     10  N   UNL     1      -0.382   9.945  19.892  0.00  0.00    +0.000 NA
ENDROOT
BRANCH   1  12
ATOM     11  N   UNL     1       1.797  12.344  19.016  0.00  0.00    +0.000 N 
ATOM     12  C   UNL     1       0.410  12.176  18.873  0.00  0.00    +0.000 C 
ATOM     13  O   UNL     1      -0.413  13.090  18.900  0.00  0.00    +0.000 OA
ATOM     14  H   UNL     1       2.364  11.506  19.057  0.00  0.00    +0.000 HD
BRANCH  11  18
ATOM     15  C   UNL     1       3.946  16.019  19.218  0.00  0.00    +0.000 A 
ATOM     16  C   UNL     1       3.669  15.302  20.379  0.00  0.00    +0.000 A 
ATOM     17  C   UNL     1       2.966  14.091  20.335  0.00  0.00    +0.000 A 
ATOM     18  C   UNL     1       2.509  13.571  19.124  0.00  0.00    +0.000 A 
ATOM     19  C   UNL     1       2.751  14.323  17.958  0.00  0.00    +0.000 A 
ATOM     20  C   UNL     1       3.471  15.535  18.002  0.00  0.00    +0.000 A 
BRANCH  15  22
ATOM     21  C   UNL     1       4.389  17.876  20.625  0.00  0.00    +0.000 C 
ATOM     22  O   UNL     1       4.640  17.179  19.412  0.00  0.00    +0.000 OA
ENDBRANCH  15  22
ENDBRANCH  11  18
ENDBRANCH   1  12
BRANCH   6  23
ATOM     23  O   UNL     1       3.659   5.355  19.832  0.00  0.00    +0.000 OA
BRANCH  23  24
ATOM     24  C   UNL     1       4.276   4.589  18.803  0.00  0.00    +0.000 C 
BRANCH  24  25
ATOM     25  C   UNL     1       5.800   4.685  18.887  0.00  0.00    +0.000 C 
ATOM     26  O   UNL     1       6.386   5.285  19.788  0.00  0.00    +0.000 OA
ATOM     27  N   UNL     1       6.484   4.099  17.846  0.00  0.00    +0.000 N 
ATOM     28  H   UNL     1       6.057   3.340  17.320  0.00  0.00    +0.000 HD
BRANCH  27  29
ATOM     29  O   UNL     1       7.893   4.082  17.968  0.00  0.00    +0.000 OA
ATOM     30  H   UNL     1       8.138   5.011  17.758  0.00  0.00    +0.000 HD
ENDBRANCH  27  29
ENDBRANCH  24  25
ENDBRANCH  23  24
ENDBRANCH   6  23
BRANCH  10  31
ATOM     31  C   UNL     1      -1.251  10.657  20.848  0.00  0.00    +0.000 C 
BRANCH  31  32
ATOM     32  C   UNL     1      -0.590  11.060  22.175  0.00  0.00    +0.000 C 
BRANCH  32  33
ATOM     33  C   UNL     1      -1.365  12.163  22.853  0.00  0.00    +0.000 A 
ATOM     34  C   UNL     1      -2.660  11.923  23.334  0.00  0.00    +0.000 A 
ATOM     35  C   UNL     1      -3.394  12.951  23.927  0.00  0.00    +0.000 A 
ATOM     36  C   UNL     1      -2.843  14.226  24.040  0.00  0.00    +0.000 A 
ATOM     37  C   UNL     1      -1.558  14.475  23.560  0.00  0.00    +0.000 A 
ATOM     38  C   UNL     1      -0.821  13.448  22.968  0.00  0.00    +0.000 A 
ENDBRANCH  32  33
ENDBRANCH  31  32
ENDBRANCH  10  31
TORSDOF 10
ENDMDL
MODEL 9
REMARK VINA RESULT:      -7.6      4.259      8.508
REMARK  Name = 
REMARK  11 active torsions:
REMARK  status: ('A' for Active; 'I' for Inactive)
REMARK    1  A    between atoms: C_1  and  O_2
REMARK    2  A    between atoms: O_2  and  C_3
REMARK    3  A    between atoms: C_6  and  N_7
REMARK    4  A    between atoms: C_8  and  C_10
REMARK    5  A    between atoms: C_15  and  O_16
REMARK    6  A    between atoms: O_16  and  C_17
REMARK    7  A    between atoms: C_17  and  C_18
REMARK    8  A    between atoms: N_20  and  O_21
REMARK    9  A    between atoms: N_25  and  C_26
REMARK   10  A    between atoms: C_26  and  C_27
REMARK   11  A    between atoms: C_27  and  C_28
REMARK                            x       y       z     vdW  Elec       q    Type
REMARK                         _______ _______ _______ _____ _____    ______ ____
ROOT
ATOM      1  C   UNL     1       0.688  10.771  20.557  0.00  0.00    +0.000 C 
ATOM      2  C   UNL     1       0.830   9.302  21.037  0.00  0.00    +0.000 C 
ATOM      3  C   UNL     1       1.488   8.334  20.084  0.00  0.00    +0.000 A 
ATOM      4  C   UNL     1       1.855   7.055  20.521  0.00  0.00    +0.000 A 
ATOM      5  C   UNL     1       2.502   6.164  19.664  0.00  0.00    +0.000 A 
ATOM      6  C   UNL     1       2.773   6.518  18.342  0.00  0.00    +0.000 A 
ATOM      7  C   UNL     1       2.402   7.787  17.890  0.00  0.00    +0.000 A 
ATOM      8  C   UNL     1       1.769   8.705  18.760  0.00  0.00    +0.000 A 
ATOM      9  C   UNL     1       1.354  10.076  18.282  0.00  0.00    +0.000 C 
ATOM     10  N   UNL     1       1.480  11.096  19.337  0.00  0.00    +0.000 NA
ENDROOT
BRANCH   1  12
ATOM     11  N   UNL     1      -1.203  12.046  21.535  0.00  0.00    +0.000 N 
ATOM     12  C   UNL     1      -0.820  11.179  20.499  0.00  0.00    +0.000 C 
ATOM     13  O   UNL     1      -1.569  10.772  19.612  0.00  0.00    +0.000 OA
ATOM     14  H   UNL     1      -0.515  12.245  22.251  0.00  0.00    +0.000 HD
BRANCH  11  18
ATOM     15  C   UNL     1      -5.013  13.858  22.138  0.00  0.00    +0.000 A 
ATOM     16  C   UNL     1      -4.253  14.177  21.015  0.00  0.00    +0.000 A 
ATOM     17  C   UNL     1      -2.999  13.590  20.797  0.00  0.00    +0.000 A 
ATOM     18  C   UNL     1      -2.466  12.677  21.706  0.00  0.00    +0.000 A 
ATOM     19  C   UNL     1      -3.218  12.394  22.863  0.00  0.00    +0.000 A 
ATOM     20  C   UNL     1      -4.486  12.974  23.075  0.00  0.00    +0.000 A 
BRANCH  15  22
ATOM     21  C   UNL     1      -6.582  15.306  21.104  0.00  0.00    +0.000 C 
ATOM     22  O   UNL     1      -6.214  14.503  22.219  0.00  0.00    +0.000 OA
ENDBRANCH  15  22
ENDBRANCH  11  18
ENDBRANCH   1  12
BRANCH   6  23
ATOM     23  O   UNL     1       3.450   5.566  17.624  0.00  0.00    +0.000 OA
BRANCH  23  24
ATOM     24  C   UNL     1       4.625   5.028  18.220  0.00  0.00    +0.000 C 
BRANCH  24  25
ATOM     25  C   UNL     1       4.480   3.524  18.461  0.00  0.00    +0.000 C 
ATOM     26  O   UNL     1       3.786   2.796  17.752  0.00  0.00    +0.000 OA
ATOM     27  N   UNL     1       5.136   3.041  19.569  0.00  0.00    +0.000 N 
ATOM     28  H   UNL     1       5.951   3.531  19.933  0.00  0.00    +0.000 HD
BRANCH  27  29
ATOM     29  O   UNL     1       5.103   1.637  19.741  0.00  0.00    +0.000 OA
ATOM     30  H   UNL     1       4.433   1.524  20.451  0.00  0.00    +0.000 HD
ENDBRANCH  27  29
ENDBRANCH  24  25
ENDBRANCH  23  24
ENDBRANCH   6  23
BRANCH  10  31
ATOM     31  C   UNL     1       1.269  12.437  18.759  0.00  0.00    +0.000 C 
BRANCH  31  32
ATOM     32  C   UNL     1       1.738  13.616  19.625  0.00  0.00    +0.000 C 
BRANCH  32  33
ATOM     33  C   UNL     1       2.097  14.807  18.770  0.00  0.00    +0.000 A 
ATOM     34  C   UNL     1       3.225  14.764  17.939  0.00  0.00    +0.000 A 
ATOM     35  C   UNL     1       3.581  15.878  17.176  0.00  0.00    +0.000 A 
ATOM     36  C   UNL     1       2.817  17.042  17.242  0.00  0.00    +0.000 A 
ATOM     37  C   UNL     1       1.696  17.093  18.068  0.00  0.00    +0.000 A 
ATOM     38  C   UNL     1       1.337  15.982  18.831  0.00  0.00    +0.000 A 
ENDBRANCH  32  33
ENDBRANCH  31  32
ENDBRANCH  10  31
TORSDOF 10
ENDMDL
