MODEL 1
REMARK VINA RESULT:      -6.1      0.000      0.000
REMARK  Name = 
REMARK  6 active torsions:
REMARK  status: ('A' for Active; 'I' for Inactive)
REMARK    1  A    between atoms: C_1  and  C_2
REMARK    2  A    between atoms: C_2  and  C_3
REMARK    3  A    between atoms: C_3  and  S_4
REMARK    4  A    between atoms: S_4  and  C_5
REMARK    5  A    between atoms: N_6  and  C_7
REMARK    6  A    between atoms: N_8  and  C_9
REMARK                            x       y       z     vdW  Elec       q    Type
REMARK                         _______ _______ _______ _____ _____    ______ ____
ROOT
ATOM      1  C   UNL     1       5.873   5.051  16.707  0.00  0.00    +0.000 C 
ATOM      2  N   UNL     1       6.137   5.901  17.631  0.00  0.00    +0.000 NA
ATOM      3  C   UNL     1       7.262   6.804  17.648  0.00  0.00    +0.000 C 
ATOM      4  N   UNL     1       4.728   4.297  16.689  0.00  0.00    +0.000 N 
ATOM      5  H   UNL     1       4.451   3.909  15.799  0.00  0.00    +0.000 HD
ENDROOT
BRANCH   4   6
ATOM      6  C   UNL     1       3.897   4.043  17.790  0.00  0.00    +0.000 A 
ATOM      7  C   UNL     1       4.304   3.160  18.799  0.00  0.00    +0.000 A 
ATOM      8  C   UNL     1       3.439   2.840  19.857  0.00  0.00    +0.000 A 
ATOM      9  C   UNL     1       2.165   3.403  19.913  0.00  0.00    +0.000 A 
ATOM     10 CL   UNL     1       1.098   3.006  21.200  0.00  0.00    +0.000 Cl
ATOM     11  C   UNL     1       1.744   4.276  18.920  0.00  0.00    +0.000 A 
ATOM     12  C   UNL     1       2.604   4.586  17.865  0.00  0.00    +0.000 A 
ENDBRANCH   4   6
BRANCH   1  13
ATOM     13  S   UNL     1       6.878   4.743  15.301  0.00  0.00    +0.000 S 
BRANCH  13  14
ATOM     14  C   UNL     1       5.671   4.065  14.116  0.00  0.00    +0.000 C 
BRANCH  14  16
ATOM     15  C   UNL     1       5.151   3.041  11.887  0.00  0.00    +0.000 C 
ATOM     16  C   UNL     1       6.248   3.629  12.770  0.00  0.00    +0.000 C 
ENDBRANCH  14  16
ENDBRANCH  13  14
ENDBRANCH   1  13
TORSDOF 4
ENDMDL
MODEL 2
REMARK VINA RESULT:      -6.1      0.183      1.257
REMARK  Name = 
REMARK  6 active torsions:
REMARK  status: ('A' for Active; 'I' for Inactive)
REMARK    1  A    between atoms: C_1  and  C_2
REMARK    2  A    between atoms: C_2  and  C_3
REMARK    3  A    between atoms: C_3  and  S_4
REMARK    4  A    between atoms: S_4  and  C_5
REMARK    5  A    between atoms: N_6  and  C_7
REMARK    6  A    between atoms: N_8  and  C_9
REMARK                            x       y       z     vdW  Elec       q    Type
REMARK                         _______ _______ _______ _____ _____    ______ ____
ROOT
ATOM      1  C   UNL     1       5.800   4.949  16.703  0.00  0.00    +0.000 C 
ATOM      2  N   UNL     1       6.103   5.653  17.731  0.00  0.00    +0.000 NA
ATOM      3  C   UNL     1       7.274   6.486  17.866  0.00  0.00    +0.000 C 
ATOM      4  N   UNL     1       4.617   4.264  16.587  0.00  0.00    +0.000 N 
ATOM      5  H   UNL     1       4.325   4.014  15.653  0.00  0.00    +0.000 HD
ENDROOT
BRANCH   4   6
ATOM      6  C   UNL     1       3.769   3.909  17.646  0.00  0.00    +0.000 A 
ATOM      7  C   UNL     1       2.520   4.525  17.795  0.00  0.00    +0.000 A 
ATOM      8  C   UNL     1       1.708   4.232  18.900  0.00  0.00    +0.000 A 
ATOM      9  C   UNL     1       2.140   3.320  19.862  0.00  0.00    +0.000 A 
ATOM     10 CL   UNL     1       1.155   2.965  21.224  0.00  0.00    +0.000 Cl
ATOM     11  C   UNL     1       3.376   2.703  19.733  0.00  0.00    +0.000 A 
ATOM     12  C   UNL     1       4.185   3.002  18.636  0.00  0.00    +0.000 A 
ENDBRANCH   4   6
BRANCH   1  13
ATOM     13  S   UNL     1       6.794   4.779  15.266  0.00  0.00    +0.000 S 
BRANCH  13  14
ATOM     14  C   UNL     1       5.598   4.128  14.055  0.00  0.00    +0.000 C 
BRANCH  14  16
ATOM     15  C   UNL     1       5.103   3.139  11.804  0.00  0.00    +0.000 C 
ATOM     16  C   UNL     1       6.204   3.598  12.755  0.00  0.00    +0.000 C 
ENDBRANCH  14  16
ENDBRANCH  13  14
ENDBRANCH   1  13
TORSDOF 4
ENDMDL
MODEL 3
REMARK VINA RESULT:      -6.0      3.741      5.861
REMARK  Name = 
REMARK  6 active torsions:
REMARK  status: ('A' for Active; 'I' for Inactive)
REMARK    1  A    between atoms: C_1  and  C_2
REMARK    2  A    between atoms: C_2  and  C_3
REMARK    3  A    between atoms: C_3  and  S_4
REMARK    4  A    between atoms: S_4  and  C_5
REMARK    5  A    between atoms: N_6  and  C_7
REMARK    6  A    between atoms: N_8  and  C_9
REMARK                            x       y       z     vdW  Elec       q    Type
REMARK                         _______ _______ _______ _____ _____    ______ ____
ROOT
ATOM      1  C   UNL     1       4.223   2.924  18.404  0.00  0.00    +0.000 C 
ATOM      2  N   UNL     1       4.772   2.996  19.561  0.00  0.00    +0.000 NA
ATOM      3  C   UNL     1       4.405   2.212  20.717  0.00  0.00    +0.000 C 
ATOM      4  N   UNL     1       4.688   3.613  17.312  0.00  0.00    +0.000 N 
ATOM      5  H   UNL     1       4.416   3.266  16.404  0.00  0.00    +0.000 HD
ENDROOT
BRANCH   4   6
ATOM      6  C   UNL     1       5.527   4.736  17.349  0.00  0.00    +0.000 A 
ATOM      7  C   UNL     1       6.824   4.638  17.869  0.00  0.00    +0.000 A 
ATOM      8  C   UNL     1       7.633   5.778  17.984  0.00  0.00    +0.000 A 
ATOM      9  C   UNL     1       7.151   7.022  17.578  0.00  0.00    +0.000 A 
ATOM     10 CL   UNL     1       8.134   8.423  17.726  0.00  0.00    +0.000 Cl
ATOM     11  C   UNL     1       5.867   7.138  17.064  0.00  0.00    +0.000 A 
ATOM     12  C   UNL     1       5.062   6.003  16.958  0.00  0.00    +0.000 A 
ENDBRANCH   4   6
BRANCH   1  13
ATOM     13  S   UNL     1       2.845   1.916  17.999  0.00  0.00    +0.000 S 
BRANCH  13  14
ATOM     14  C   UNL     1       1.449   3.051  18.289  0.00  0.00    +0.000 C 
BRANCH  14  16
ATOM     15  C   UNL     1       1.079   4.218  20.478  0.00  0.00    +0.000 C 
ATOM     16  C   UNL     1       0.801   2.954  19.670  0.00  0.00    +0.000 C 
ENDBRANCH  14  16
ENDBRANCH  13  14
ENDBRANCH   1  13
TORSDOF 4
ENDMDL
MODEL 4
REMARK VINA RESULT:      -5.9      1.186      1.277
REMARK  Name = 
REMARK  6 active torsions:
REMARK  status: ('A' for Active; 'I' for Inactive)
REMARK    1  A    between atoms: C_1  and  C_2
REMARK    2  A    between atoms: C_2  and  C_3
REMARK    3  A    between atoms: C_3  and  S_4
REMARK    4  A    between atoms: S_4  and  C_5
REMARK    5  A    between atoms: N_6  and  C_7
REMARK    6  A    between atoms: N_8  and  C_9
REMARK                            x       y       z     vdW  Elec       q    Type
REMARK                         _______ _______ _______ _____ _____    ______ ____
ROOT
ATOM      1  C   UNL     1       5.323   4.992  16.963  0.00  0.00    +0.000 C 
ATOM      2  N   UNL     1       6.232   4.631  17.794  0.00  0.00    +0.000 NA
ATOM      3  C   UNL     1       7.652   4.627  17.538  0.00  0.00    +0.000 C 
ATOM      4  N   UNL     1       3.996   5.082  17.299  0.00  0.00    +0.000 N 
ATOM      5  H   UNL     1       3.415   5.663  16.711  0.00  0.00    +0.000 HD
ENDROOT
BRANCH   4   6
ATOM      6  C   UNL     1       3.385   4.462  18.399  0.00  0.00    +0.000 A 
ATOM      7  C   UNL     1       2.905   3.149  18.299  0.00  0.00    +0.000 A 
ATOM      8  C   UNL     1       2.220   2.559  19.371  0.00  0.00    +0.000 A 
ATOM      9  C   UNL     1       2.012   3.276  20.548  0.00  0.00    +0.000 A 
ATOM     10 CL   UNL     1       1.163   2.562  21.860  0.00  0.00    +0.000 Cl
ATOM     11  C   UNL     1       2.476   4.579  20.663  0.00  0.00    +0.000 A 
ATOM     12  C   UNL     1       3.152   5.166  19.592  0.00  0.00    +0.000 A 
ENDBRANCH   4   6
BRANCH   1  13
ATOM     13  S   UNL     1       5.609   5.479  15.301  0.00  0.00    +0.000 S 
BRANCH  13  14
ATOM     14  C   UNL     1       5.831   3.872  14.471  0.00  0.00    +0.000 C 
BRANCH  14  16
ATOM     15  C   UNL     1       5.621   3.124  12.086  0.00  0.00    +0.000 C 
ATOM     16  C   UNL     1       6.452   3.936  13.075  0.00  0.00    +0.000 C 
ENDBRANCH  14  16
ENDBRANCH  13  14
ENDBRANCH   1  13
TORSDOF 4
ENDMDL
MODEL 5
REMARK VINA RESULT:      -5.9      1.487      2.048
REMARK  Name = 
REMARK  6 active torsions:
REMARK  status: ('A' for Active; 'I' for Inactive)
REMARK    1  A    between atoms: C_1  and  C_2
REMARK    2  A    between atoms: C_2  and  C_3
REMARK    3  A    between atoms: C_3  and  S_4
REMARK    4  A    between atoms: S_4  and  C_5
REMARK    5  A    between atoms: N_6  and  C_7
REMARK    6  A    between atoms: N_8  and  C_9
REMARK                            x       y       z     vdW  Elec       q    Type
REMARK                         _______ _______ _______ _____ _____    ______ ____
ROOT
ATOM      1  C   UNL     1       5.922   5.626  18.231  0.00  0.00    +0.000 C 
ATOM      2  N   UNL     1       6.550   5.392  19.324  0.00  0.00    +0.000 NA
ATOM      3  C   UNL     1       7.961   5.603  19.546  0.00  0.00    +0.000 C 
ATOM      4  N   UNL     1       4.559   5.513  18.112  0.00  0.00    +0.000 N 
ATOM      5  H   UNL     1       4.126   6.009  17.347  0.00  0.00    +0.000 HD
ENDROOT
BRANCH   4   6
ATOM      6  C   UNL     1       3.719   4.795  18.975  0.00  0.00    +0.000 A 
ATOM      7  C   UNL     1       2.912   5.465  19.904  0.00  0.00    +0.000 A 
ATOM      8  C   UNL     1       2.135   4.745  20.823  0.00  0.00    +0.000 A 
ATOM      9  C   UNL     1       2.159   3.352  20.818  0.00  0.00    +0.000 A 
ATOM     10 CL   UNL     1       1.218   2.464  21.949  0.00  0.00    +0.000 Cl
ATOM     11  C   UNL     1       2.956   2.670  19.908  0.00  0.00    +0.000 A 
ATOM     12  C   UNL     1       3.733   3.390  18.999  0.00  0.00    +0.000 A 
ENDBRANCH   4   6
BRANCH   1  13
ATOM     13  S   UNL     1       6.662   6.171  16.736  0.00  0.00    +0.000 S 
BRANCH  13  14
ATOM     14  C   UNL     1       7.051   4.594  15.910  0.00  0.00    +0.000 C 
BRANCH  14  16
ATOM     15  C   UNL     1       6.182   3.892  13.664  0.00  0.00    +0.000 C 
ATOM     16  C   UNL     1       5.888   3.942  15.161  0.00  0.00    +0.000 C 
ENDBRANCH  14  16
ENDBRANCH  13  14
ENDBRANCH   1  13
TORSDOF 4
ENDMDL
MODEL 6
REMARK VINA RESULT:      -5.8      3.920      5.483
REMARK  Name = 
REMARK  6 active torsions:
REMARK  status: ('A' for Active; 'I' for Inactive)
REMARK    1  A    between atoms: C_1  and  C_2
REMARK    2  A    between atoms: C_2  and  C_3
REMARK    3  A    between atoms: C_3  and  S_4
REMARK    4  A    between atoms: S_4  and  C_5
REMARK    5  A    between atoms: N_6  and  C_7
REMARK    6  A    between atoms: N_8  and  C_9
REMARK                            x       y       z     vdW  Elec       q    Type
REMARK                         _______ _______ _______ _____ _____    ______ ____
ROOT
ATOM      1  C   UNL     1       4.394   3.571  19.394  0.00  0.00    +0.000 C 
ATOM      2  N   UNL     1       3.838   4.529  20.040  0.00  0.00    +0.000 NA
ATOM      3  C   UNL     1       2.619   4.432  20.807  0.00  0.00    +0.000 C 
ATOM      4  N   UNL     1       5.612   3.694  18.775  0.00  0.00    +0.000 N 
ATOM      5  H   UNL     1       6.111   2.838  18.577  0.00  0.00    +0.000 HD
ENDROOT
BRANCH   4   6
ATOM      6  C   UNL     1       6.234   4.900  18.422  0.00  0.00    +0.000 A 
ATOM      7  C   UNL     1       7.398   5.319  19.079  0.00  0.00    +0.000 A 
ATOM      8  C   UNL     1       7.973   6.565  18.785  0.00  0.00    +0.000 A 
ATOM      9  C   UNL     1       7.387   7.398  17.833  0.00  0.00    +0.000 A 
ATOM     10 CL   UNL     1       8.080   8.929  17.478  0.00  0.00    +0.000 Cl
ATOM     11  C   UNL     1       6.231   7.001  17.176  0.00  0.00    +0.000 A 
ATOM     12  C   UNL     1       5.658   5.764  17.476  0.00  0.00    +0.000 A 
ENDBRANCH   4   6
BRANCH   1  13
ATOM     13  S   UNL     1       3.741   1.950  19.230  0.00  0.00    +0.000 S 
BRANCH  13  14
ATOM     14  C   UNL     1       2.517   2.169  17.898  0.00  0.00    +0.000 C 
BRANCH  14  16
ATOM     15  C   UNL     1       1.383   4.364  17.463  0.00  0.00    +0.000 C 
ATOM     16  C   UNL     1       2.598   3.497  17.145  0.00  0.00    +0.000 C 
ENDBRANCH  14  16
ENDBRANCH  13  14
ENDBRANCH   1  13
TORSDOF 4
ENDMDL
MODEL 7
REMARK VINA RESULT:      -5.8      1.217      1.481
REMARK  Name = 
REMARK  6 active torsions:
REMARK  status: ('A' for Active; 'I' for Inactive)
REMARK    1  A    between atoms: C_1  and  C_2
REMARK    2  A    between atoms: C_2  and  C_3
REMARK    3  A    between atoms: C_3  and  S_4
REMARK    4  A    between atoms: S_4  and  C_5
REMARK    5  A    between atoms: N_6  and  C_7
REMARK    6  A    between atoms: N_8  and  C_9
REMARK                            x       y       z     vdW  Elec       q    Type
REMARK                         _______ _______ _______ _____ _____    ______ ____
ROOT
ATOM      1  C   UNL     1       5.355   5.006  16.908  0.00  0.00    +0.000 C 
ATOM      2  N   UNL     1       6.196   4.652  17.810  0.00  0.00    +0.000 NA
ATOM      3  C   UNL     1       7.630   4.614  17.654  0.00  0.00    +0.000 C 
ATOM      4  N   UNL     1       4.010   5.131  17.148  0.00  0.00    +0.000 N 
ATOM      5  H   UNL     1       3.484   5.706  16.505  0.00  0.00    +0.000 HD
ENDROOT
BRANCH   4   6
ATOM      6  C   UNL     1       3.312   4.554  18.219  0.00  0.00    +0.000 A 
ATOM      7  C   UNL     1       3.090   5.280  19.396  0.00  0.00    +0.000 A 
ATOM      8  C   UNL     1       2.466   4.676  20.498  0.00  0.00    +0.000 A 
ATOM      9  C   UNL     1       2.060   3.344  20.428  0.00  0.00    +0.000 A 
ATOM     10 CL   UNL     1       1.306   2.596  21.778  0.00  0.00    +0.000 Cl
ATOM     11  C   UNL     1       2.276   2.609  19.271  0.00  0.00    +0.000 A 
ATOM     12  C   UNL     1       2.903   3.211  18.179  0.00  0.00    +0.000 A 
ENDBRANCH   4   6
BRANCH   1  13
ATOM     13  S   UNL     1       5.765   5.440  15.257  0.00  0.00    +0.000 S 
BRANCH  13  14
ATOM     14  C   UNL     1       6.131   3.814  14.521  0.00  0.00    +0.000 C 
BRANCH  14  16
ATOM     15  C   UNL     1       6.969   3.954  12.161  0.00  0.00    +0.000 C 
ATOM     16  C   UNL     1       5.760   3.664  13.045  0.00  0.00    +0.000 C 
ENDBRANCH  14  16
ENDBRANCH  13  14
ENDBRANCH   1  13
TORSDOF 4
ENDMDL
MODEL 8
REMARK VINA RESULT:      -5.8      3.743      5.681
REMARK  Name = 
REMARK  6 active torsions:
REMARK  status: ('A' for Active; 'I' for Inactive)
REMARK    1  A    between atoms: C_1  and  C_2
REMARK    2  A    between atoms: C_2  and  C_3
REMARK    3  A    between atoms: C_3  and  S_4
REMARK    4  A    between atoms: S_4  and  C_5
REMARK    5  A    between atoms: N_6  and  C_7
REMARK    6  A    between atoms: N_8  and  C_9
REMARK                            x       y       z     vdW  Elec       q    Type
REMARK                         _______ _______ _______ _____ _____    ______ ____
ROOT
ATOM      1  C   UNL     1       3.345   5.128  19.776  0.00  0.00    +0.000 C 
ATOM      2  N   UNL     1       3.192   6.298  19.272  0.00  0.00    +0.000 NA
ATOM      3  C   UNL     1       2.238   7.286  19.714  0.00  0.00    +0.000 C 
ATOM      4  N   UNL     1       4.345   4.272  19.389  0.00  0.00    +0.000 N 
ATOM      5  H   UNL     1       4.589   3.534  20.035  0.00  0.00    +0.000 HD
ENDROOT
BRANCH   4   6
ATOM      6  C   UNL     1       5.073   4.350  18.193  0.00  0.00    +0.000 A 
ATOM      7  C   UNL     1       6.402   4.791  18.196  0.00  0.00    +0.000 A 
ATOM      8  C   UNL     1       7.103   4.949  16.992  0.00  0.00    +0.000 A 
ATOM      9  C   UNL     1       6.479   4.666  15.777  0.00  0.00    +0.000 A 
ATOM     10 CL   UNL     1       7.329   4.869  14.298  0.00  0.00    +0.000 Cl
ATOM     11  C   UNL     1       5.161   4.232  15.755  0.00  0.00    +0.000 A 
ATOM     12  C   UNL     1       4.464   4.083  16.955  0.00  0.00    +0.000 A 
ENDBRANCH   4   6
BRANCH   1  13
ATOM     13  S   UNL     1       2.364   4.444  21.061  0.00  0.00    +0.000 S 
BRANCH  13  14
ATOM     14  C   UNL     1       0.916   3.829  20.142  0.00  0.00    +0.000 C 
BRANCH  14  16
ATOM     15  C   UNL     1       1.627   2.036  18.539  0.00  0.00    +0.000 C 
ATOM     16  C   UNL     1       1.169   3.485  18.674  0.00  0.00    +0.000 C 
ENDBRANCH  14  16
ENDBRANCH  13  14
ENDBRANCH   1  13
TORSDOF 4
ENDMDL
MODEL 9
REMARK VINA RESULT:      -5.8      3.775      5.910
REMARK  Name = 
REMARK  6 active torsions:
REMARK  status: ('A' for Active; 'I' for Inactive)
REMARK    1  A    between atoms: C_1  and  C_2
REMARK    2  A    between atoms: C_2  and  C_3
REMARK    3  A    between atoms: C_3  and  S_4
REMARK    4  A    between atoms: S_4  and  C_5
REMARK    5  A    between atoms: N_6  and  C_7
REMARK    6  A    between atoms: N_8  and  C_9
REMARK                            x       y       z     vdW  Elec       q    Type
REMARK                         _______ _______ _______ _____ _____    ______ ____
ROOT
ATOM      1  C   UNL     1       4.208   2.850  18.499  0.00  0.00    +0.000 C 
ATOM      2  N   UNL     1       4.705   2.915  19.679  0.00  0.00    +0.000 NA
ATOM      3  C   UNL     1       4.337   2.077  20.795  0.00  0.00    +0.000 C 
ATOM      4  N   UNL     1       4.677   3.597  17.448  0.00  0.00    +0.000 N 
ATOM      5  H   UNL     1       4.461   3.263  16.519  0.00  0.00    +0.000 HD
ENDROOT
BRANCH   4   6
ATOM      6  C   UNL     1       5.450   4.762  17.551  0.00  0.00    +0.000 A 
ATOM      7  C   UNL     1       4.924   6.002  17.165  0.00  0.00    +0.000 A 
ATOM      8  C   UNL     1       5.724   7.154  17.189  0.00  0.00    +0.000 A 
ATOM      9  C   UNL     1       7.053   7.073  17.600  0.00  0.00    +0.000 A 
ATOM     10 CL   UNL     1       8.041   8.479  17.620  0.00  0.00    +0.000 Cl
ATOM     11  C   UNL     1       7.593   5.853  17.982  0.00  0.00    +0.000 A 
ATOM     12  C   UNL     1       6.796   4.707  17.950  0.00  0.00    +0.000 A 
ENDBRANCH   4   6
BRANCH   1  13
ATOM     13  S   UNL     1       2.905   1.781  18.008  0.00  0.00    +0.000 S 
BRANCH  13  14
ATOM     14  C   UNL     1       1.460   2.561  18.798  0.00  0.00    +0.000 C 
BRANCH  14  16
ATOM     15  C   UNL     1       1.367   4.527  20.352  0.00  0.00    +0.000 C 
ATOM     16  C   UNL     1       1.511   4.085  18.899  0.00  0.00    +0.000 C 
ENDBRANCH  14  16
ENDBRANCH  13  14
ENDBRANCH   1  13
TORSDOF 4
ENDMDL
