MODEL 1
REMARK VINA RESULT:      -7.6      0.000      0.000
REMARK  Name = 
REMARK  11 active torsions:
REMARK  status: ('A' for Active; 'I' for Inactive)
REMARK    1  A    between atoms: C_1  and  C_2
REMARK    2  A    between atoms: C_2  and  C_3
REMARK    3  A    between atoms: N_7  and  S_8
REMARK    4  A    between atoms: S_8  and  C_11
REMARK    5  A    between atoms: C_14  and  O_15
REMARK    6  A    between atoms: O_15  and  C_16
REMARK    7  A    between atoms: C_16  and  C_17
REMARK    8  A    between atoms: C_18  and  C_19
REMARK    9  A    between atoms: C_19  and  O_20
REMARK   10  A    between atoms: C_23  and  C_24
REMARK   11  A    between atoms: N_26  and  O_27
REMARK                            x       y       z     vdW  Elec       q    Type
REMARK                         _______ _______ _______ _____ _____    ______ ____
ROOT
ATOM      1  S   UNL     1       2.749   6.129  18.195  0.00  0.00    +0.000 S 
ATOM      2  O   UNL     1       3.978   6.334  17.460  0.00  0.00    +0.000 OA
ATOM      3  O   UNL     1       1.603   5.493  17.582  0.00  0.00    +0.000 OA
ENDROOT
BRANCH   1  10
ATOM      4  C   UNL     1       4.020   1.438  19.071  0.00  0.00    +0.000 C 
ATOM      5  C   UNL     1       3.139   2.707  19.043  0.00  0.00    +0.000 C 
ATOM      6  C   UNL     1       2.463   2.758  17.668  0.00  0.00    +0.000 C 
ATOM      7  S   UNL     1       1.802   2.387  20.314  0.00  0.00    +0.000 S 
ATOM      8  C   UNL     1       1.038   4.044  20.379  0.00  0.00    +0.000 C 
ATOM      9  C   UNL     1       2.045   5.169  20.656  0.00  0.00    +0.000 C 
ATOM     10  N   UNL     1       3.117   5.260  19.621  0.00  0.00    +0.000 NA
ATOM     11  C   UNL     1       3.924   3.969  19.519  0.00  0.00    +0.000 C 
BRANCH  11  12
ATOM     12  C   UNL     1       5.322   4.222  18.947  0.00  0.00    +0.000 C 
ATOM     13  O   UNL     1       6.246   4.803  19.506  0.00  0.00    +0.000 OA
ATOM     14  N   UNL     1       5.408   3.819  17.626  0.00  0.00    +0.000 N 
ATOM     15  H   UNL     1       4.750   3.169  17.208  0.00  0.00    +0.000 HD
BRANCH  14  16
ATOM     16  O   UNL     1       6.634   4.024  16.963  0.00  0.00    +0.000 OA
ATOM     17  H   UNL     1       6.432   3.731  16.047  0.00  0.00    +0.000 HD
ENDBRANCH  14  16
ENDBRANCH  11  12
ENDBRANCH   1  10
BRANCH   1  18
ATOM     18  C   UNL     1       2.221   7.757  18.727  0.00  0.00    +0.000 A 
ATOM     19  C   UNL     1       2.155   8.820  17.822  0.00  0.00    +0.000 A 
ATOM     20  C   UNL     1       1.602  10.048  18.223  0.00  0.00    +0.000 A 
ATOM     21  C   UNL     1       1.050  10.208  19.498  0.00  0.00    +0.000 A 
ATOM     22  C   UNL     1       1.081   9.128  20.380  0.00  0.00    +0.000 A 
ATOM     23  C   UNL     1       1.678   7.914  20.007  0.00  0.00    +0.000 A 
BRANCH  21  24
ATOM     24  O   UNL     1       0.569  11.458  19.788  0.00  0.00    +0.000 OA
BRANCH  24  25
ATOM     25  C   UNL     1      -0.051  12.211  18.732  0.00  0.00    +0.000 C 
BRANCH  25  26
ATOM     26  C   UNL     1      -1.426  11.767  18.460  0.00  0.00    +0.000 C 
ATOM     27  C   UNL     1      -2.514  11.423  18.081  0.00  0.00    +0.000 C 
BRANCH  27  28
ATOM     28  C   UNL     1      -3.778  11.008  17.468  0.00  0.00    +0.000 C 
BRANCH  28  29
ATOM     29  O   UNL     1      -4.372  12.090  16.770  0.00  0.00    +0.000 OA
ATOM     30  H   UNL     1      -3.659  12.530  16.277  0.00  0.00    +0.000 HD
ENDBRANCH  28  29
ENDBRANCH  27  28
ENDBRANCH  25  26
ENDBRANCH  24  25
ENDBRANCH  21  24
ENDBRANCH   1  18
TORSDOF 9
ENDMDL
MODEL 2
REMARK VINA RESULT:      -7.6      2.473      2.779
REMARK  Name = 
REMARK  11 active torsions:
REMARK  status: ('A' for Active; 'I' for Inactive)
REMARK    1  A    between atoms: C_1  and  C_2
REMARK    2  A    between atoms: C_2  and  C_3
REMARK    3  A    between atoms: N_7  and  S_8
REMARK    4  A    between atoms: S_8  and  C_11
REMARK    5  A    between atoms: C_14  and  O_15
REMARK    6  A    between atoms: O_15  and  C_16
REMARK    7  A    between atoms: C_16  and  C_17
REMARK    8  A    between atoms: C_18  and  C_19
REMARK    9  A    between atoms: C_19  and  O_20
REMARK   10  A    between atoms: C_23  and  C_24
REMARK   11  A    between atoms: N_26  and  O_27
REMARK                            x       y       z     vdW  Elec       q    Type
REMARK                         _______ _______ _______ _____ _____    ______ ____
ROOT
ATOM      1  S   UNL     1       2.785   6.444  18.461  0.00  0.00    +0.000 S 
ATOM      2  O   UNL     1       3.990   6.993  17.880  0.00  0.00    +0.000 OA
ATOM      3  O   UNL     1       1.756   5.848  17.636  0.00  0.00    +0.000 OA
ENDROOT
BRANCH   1  10
ATOM      4  C   UNL     1       3.756   1.606  18.252  0.00  0.00    +0.000 C 
ATOM      5  C   UNL     1       2.985   2.905  18.579  0.00  0.00    +0.000 C 
ATOM      6  C   UNL     1       2.167   3.270  17.335  0.00  0.00    +0.000 C 
ATOM      7  S   UNL     1       1.776   2.414  19.922  0.00  0.00    +0.000 S 
ATOM      8  C   UNL     1       1.163   4.066  20.400  0.00  0.00    +0.000 C 
ATOM      9  C   UNL     1       2.282   5.051  20.759  0.00  0.00    +0.000 C 
ATOM     10  N   UNL     1       3.236   5.286  19.636  0.00  0.00    +0.000 NA
ATOM     11  C   UNL     1       3.919   3.997  19.186  0.00  0.00    +0.000 C 
BRANCH  11  12
ATOM     12  C   UNL     1       5.261   4.278  18.503  0.00  0.00    +0.000 C 
ATOM     13  O   UNL     1       5.517   4.139  17.312  0.00  0.00    +0.000 OA
ATOM     14  N   UNL     1       6.238   4.604  19.426  0.00  0.00    +0.000 N 
ATOM     15  H   UNL     1       6.021   4.919  20.366  0.00  0.00    +0.000 HD
BRANCH  14  16
ATOM     16  O   UNL     1       7.535   4.856  18.936  0.00  0.00    +0.000 OA
ATOM     17  H   UNL     1       7.357   5.204  18.034  0.00  0.00    +0.000 HD
ENDBRANCH  14  16
ENDBRANCH  11  12
ENDBRANCH   1  10
BRANCH   1  18
ATOM     18  C   UNL     1       2.018   7.792  19.360  0.00  0.00    +0.000 A 
ATOM     19  C   UNL     1       1.492   8.896  18.685  0.00  0.00    +0.000 A 
ATOM     20  C   UNL     1       0.767   9.870  19.391  0.00  0.00    +0.000 A 
ATOM     21  C   UNL     1       0.503   9.722  20.757  0.00  0.00    +0.000 A 
ATOM     22  C   UNL     1       0.995   8.594  21.414  0.00  0.00    +0.000 A 
ATOM     23  C   UNL     1       1.763   7.641  20.728  0.00  0.00    +0.000 A 
BRANCH  21  24
ATOM     24  O   UNL     1      -0.184  10.749  21.347  0.00  0.00    +0.000 OA
BRANCH  24  25
ATOM     25  C   UNL     1      -0.585  10.602  22.719  0.00  0.00    +0.000 C 
BRANCH  25  26
ATOM     26  C   UNL     1      -1.695  11.498  23.079  0.00  0.00    +0.000 C 
ATOM     27  C   UNL     1      -2.679  12.097  23.423  0.00  0.00    +0.000 C 
BRANCH  27  28
ATOM     28  C   UNL     1      -3.930  12.686  23.906  0.00  0.00    +0.000 C 
BRANCH  28  29
ATOM     29  O   UNL     1      -4.570  11.814  24.823  0.00  0.00    +0.000 OA
ATOM     30  H   UNL     1      -4.375  12.152  25.713  0.00  0.00    +0.000 HD
ENDBRANCH  28  29
ENDBRANCH  27  28
ENDBRANCH  25  26
ENDBRANCH  24  25
ENDBRANCH  21  24
ENDBRANCH   1  18
TORSDOF 9
ENDMDL
MODEL 3
REMARK VINA RESULT:      -7.6      0.866      1.018
REMARK  Name = 
REMARK  11 active torsions:
REMARK  status: ('A' for Active; 'I' for Inactive)
REMARK    1  A    between atoms: C_1  and  C_2
REMARK    2  A    between atoms: C_2  and  C_3
REMARK    3  A    between atoms: N_7  and  S_8
REMARK    4  A    between atoms: S_8  and  C_11
REMARK    5  A    between atoms: C_14  and  O_15
REMARK    6  A    between atoms: O_15  and  C_16
REMARK    7  A    between atoms: C_16  and  C_17
REMARK    8  A    between atoms: C_18  and  C_19
REMARK    9  A    between atoms: C_19  and  O_20
REMARK   10  A    between atoms: C_23  and  C_24
REMARK   11  A    between atoms: N_26  and  O_27
REMARK                            x       y       z     vdW  Elec       q    Type
REMARK                         _______ _______ _______ _____ _____    ______ ____
ROOT
ATOM      1  S   UNL     1       2.755   6.234  18.160  0.00  0.00    +0.000 S 
ATOM      2  O   UNL     1       3.926   6.503  17.356  0.00  0.00    +0.000 OA
ATOM      3  O   UNL     1       1.601   5.559  17.606  0.00  0.00    +0.000 OA
ENDROOT
BRANCH   1  10
ATOM      4  C   UNL     1       4.022   1.521  18.919  0.00  0.00    +0.000 C 
ATOM      5  C   UNL     1       3.165   2.807  18.974  0.00  0.00    +0.000 C 
ATOM      6  C   UNL     1       2.358   2.868  17.673  0.00  0.00    +0.000 C 
ATOM      7  S   UNL     1       1.954   2.511  20.372  0.00  0.00    +0.000 S 
ATOM      8  C   UNL     1       1.230   4.181  20.507  0.00  0.00    +0.000 C 
ATOM      9  C   UNL     1       2.279   5.288  20.681  0.00  0.00    +0.000 C 
ATOM     10  N   UNL     1       3.245   5.359  19.545  0.00  0.00    +0.000 NA
ATOM     11  C   UNL     1       4.015   4.055  19.367  0.00  0.00    +0.000 C 
BRANCH  11  12
ATOM     12  C   UNL     1       5.355   4.282  18.659  0.00  0.00    +0.000 C 
ATOM     13  O   UNL     1       5.633   3.971  17.506  0.00  0.00    +0.000 OA
ATOM     14  N   UNL     1       6.305   4.787  19.528  0.00  0.00    +0.000 N 
ATOM     15  H   UNL     1       6.062   5.235  20.406  0.00  0.00    +0.000 HD
BRANCH  14  16
ATOM     16  O   UNL     1       7.598   5.014  19.015  0.00  0.00    +0.000 OA
ATOM     17  H   UNL     1       7.691   4.298  18.349  0.00  0.00    +0.000 HD
ENDBRANCH  14  16
ENDBRANCH  11  12
ENDBRANCH   1  10
BRANCH   1  18
ATOM     18  C   UNL     1       2.192   7.829  18.753  0.00  0.00    +0.000 A 
ATOM     19  C   UNL     1       2.095   8.922  17.887  0.00  0.00    +0.000 A 
ATOM     20  C   UNL     1       1.516  10.121  18.334  0.00  0.00    +0.000 A 
ATOM     21  C   UNL     1       0.968  10.223  19.617  0.00  0.00    +0.000 A 
ATOM     22  C   UNL     1       1.029   9.113  20.459  0.00  0.00    +0.000 A 
ATOM     23  C   UNL     1       1.652   7.927  20.040  0.00  0.00    +0.000 A 
BRANCH  21  24
ATOM     24  O   UNL     1       0.460  11.449  19.953  0.00  0.00    +0.000 OA
BRANCH  24  25
ATOM     25  C   UNL     1      -0.963  11.576  20.120  0.00  0.00    +0.000 C 
BRANCH  25  26
ATOM     26  C   UNL     1      -1.705  11.213  18.903  0.00  0.00    +0.000 C 
ATOM     27  C   UNL     1      -2.171  10.862  17.852  0.00  0.00    +0.000 C 
BRANCH  27  28
ATOM     28  C   UNL     1      -2.594  10.367  16.540  0.00  0.00    +0.000 C 
BRANCH  28  29
ATOM     29  O   UNL     1      -2.850  11.448  15.659  0.00  0.00    +0.000 OA
ATOM     30  H   UNL     1      -3.106  12.205  16.212  0.00  0.00    +0.000 HD
ENDBRANCH  28  29
ENDBRANCH  27  28
ENDBRANCH  25  26
ENDBRANCH  24  25
ENDBRANCH  21  24
ENDBRANCH   1  18
TORSDOF 9
ENDMDL
MODEL 4
REMARK VINA RESULT:      -7.6      4.643      6.979
REMARK  Name = 
REMARK  11 active torsions:
REMARK  status: ('A' for Active; 'I' for Inactive)
REMARK    1  A    between atoms: C_1  and  C_2
REMARK    2  A    between atoms: C_2  and  C_3
REMARK    3  A    between atoms: N_7  and  S_8
REMARK    4  A    between atoms: S_8  and  C_11
REMARK    5  A    between atoms: C_14  and  O_15
REMARK    6  A    between atoms: O_15  and  C_16
REMARK    7  A    between atoms: C_16  and  C_17
REMARK    8  A    between atoms: C_18  and  C_19
REMARK    9  A    between atoms: C_19  and  O_20
REMARK   10  A    between atoms: C_23  and  C_24
REMARK   11  A    between atoms: N_26  and  O_27
REMARK                            x       y       z     vdW  Elec       q    Type
REMARK                         _______ _______ _______ _____ _____    ______ ____
ROOT
ATOM      1  S   UNL     1       4.698   4.735  17.685  0.00  0.00    +0.000 S 
ATOM      2  O   UNL     1       5.242   3.479  17.217  0.00  0.00    +0.000 OA
ATOM      3  O   UNL     1       3.649   5.417  16.960  0.00  0.00    +0.000 OA
ENDROOT
BRANCH   1  10
ATOM      4  C   UNL     1       0.894   2.292  19.672  0.00  0.00    +0.000 C 
ATOM      5  C   UNL     1       1.746   3.496  19.211  0.00  0.00    +0.000 C 
ATOM      6  C   UNL     1       1.424   3.737  17.732  0.00  0.00    +0.000 C 
ATOM      7  S   UNL     1       1.074   4.953  20.177  0.00  0.00    +0.000 S 
ATOM      8  C   UNL     1       2.336   6.204  19.760  0.00  0.00    +0.000 C 
ATOM      9  C   UNL     1       3.771   5.744  20.051  0.00  0.00    +0.000 C 
ATOM     10  N   UNL     1       4.154   4.517  19.292  0.00  0.00    +0.000 NA
ATOM     11  C   UNL     1       3.245   3.336  19.615  0.00  0.00    +0.000 C 
BRANCH  11  12
ATOM     12  C   UNL     1       3.939   1.998  19.344  0.00  0.00    +0.000 C 
ATOM     13  O   UNL     1       3.630   1.176  18.488  0.00  0.00    +0.000 OA
ATOM     14  N   UNL     1       4.921   1.739  20.284  0.00  0.00    +0.000 N 
ATOM     15  H   UNL     1       5.329   2.465  20.863  0.00  0.00    +0.000 HD
BRANCH  14  16
ATOM     16  O   UNL     1       5.620   0.521  20.173  0.00  0.00    +0.000 OA
ATOM     17  H   UNL     1       4.903  -0.145  20.258  0.00  0.00    +0.000 HD
ENDBRANCH  14  16
ENDBRANCH  11  12
ENDBRANCH   1  10
BRANCH   1  18
ATOM     18  C   UNL     1       6.087   5.864  17.779  0.00  0.00    +0.000 A 
ATOM     19  C   UNL     1       6.064   7.086  17.101  0.00  0.00    +0.000 A 
ATOM     20  C   UNL     1       7.095   8.019  17.303  0.00  0.00    +0.000 A 
ATOM     21  C   UNL     1       8.117   7.776  18.227  0.00  0.00    +0.000 A 
ATOM     22  C   UNL     1       8.108   6.572  18.932  0.00  0.00    +0.000 A 
ATOM     23  C   UNL     1       7.111   5.612  18.700  0.00  0.00    +0.000 A 
BRANCH  21  24
ATOM     24  O   UNL     1       9.084   8.741  18.315  0.00  0.00    +0.000 OA
BRANCH  24  25
ATOM     25  C   UNL     1       8.713  10.034  18.822  0.00  0.00    +0.000 C 
BRANCH  25  26
ATOM     26  C   UNL     1       9.675  11.082  18.448  0.00  0.00    +0.000 C 
ATOM     27  C   UNL     1      10.575  11.828  18.169  0.00  0.00    +0.000 C 
BRANCH  27  28
ATOM     28  C   UNL     1      11.771  12.607  17.842  0.00  0.00    +0.000 C 
BRANCH  28  29
ATOM     29  O   UNL     1      11.957  12.669  16.438  0.00  0.00    +0.000 OA
ATOM     30  H   UNL     1      12.096  13.605  16.215  0.00  0.00    +0.000 HD
ENDBRANCH  28  29
ENDBRANCH  27  28
ENDBRANCH  25  26
ENDBRANCH  24  25
ENDBRANCH  21  24
ENDBRANCH   1  18
TORSDOF 9
ENDMDL
MODEL 5
REMARK VINA RESULT:      -7.4      1.816      1.989
REMARK  Name = 
REMARK  11 active torsions:
REMARK  status: ('A' for Active; 'I' for Inactive)
REMARK    1  A    between atoms: C_1  and  C_2
REMARK    2  A    between atoms: C_2  and  C_3
REMARK    3  A    between atoms: N_7  and  S_8
REMARK    4  A    between atoms: S_8  and  C_11
REMARK    5  A    between atoms: C_14  and  O_15
REMARK    6  A    between atoms: O_15  and  C_16
REMARK    7  A    between atoms: C_16  and  C_17
REMARK    8  A    between atoms: C_18  and  C_19
REMARK    9  A    between atoms: C_19  and  O_20
REMARK   10  A    between atoms: C_23  and  C_24
REMARK   11  A    between atoms: N_26  and  O_27
REMARK                            x       y       z     vdW  Elec       q    Type
REMARK                         _______ _______ _______ _____ _____    ______ ____
ROOT
ATOM      1  S   UNL     1       2.771   6.153  18.230  0.00  0.00    +0.000 S 
ATOM      2  O   UNL     1       4.009   6.413  17.528  0.00  0.00    +0.000 OA
ATOM      3  O   UNL     1       1.650   5.524  17.567  0.00  0.00    +0.000 OA
ENDROOT
BRANCH   1  10
ATOM      4  C   UNL     1       3.958   1.413  18.941  0.00  0.00    +0.000 C 
ATOM      5  C   UNL     1       3.101   2.699  18.960  0.00  0.00    +0.000 C 
ATOM      6  C   UNL     1       2.420   2.808  17.591  0.00  0.00    +0.000 C 
ATOM      7  S   UNL     1       1.764   2.360  20.226  0.00  0.00    +0.000 S 
ATOM      8  C   UNL     1       1.032   4.028  20.351  0.00  0.00    +0.000 C 
ATOM      9  C   UNL     1       2.060   5.124  20.660  0.00  0.00    +0.000 C 
ATOM     10  N   UNL     1       3.129   5.230  19.624  0.00  0.00    +0.000 NA
ATOM     11  C   UNL     1       3.912   3.929  19.474  0.00  0.00    +0.000 C 
BRANCH  11  12
ATOM     12  C   UNL     1       5.312   4.175  18.903  0.00  0.00    +0.000 C 
ATOM     13  O   UNL     1       6.249   4.719  19.478  0.00  0.00    +0.000 OA
ATOM     14  N   UNL     1       5.383   3.816  17.569  0.00  0.00    +0.000 N 
ATOM     15  H   UNL     1       4.712   3.193  17.133  0.00  0.00    +0.000 HD
BRANCH  14  16
ATOM     16  O   UNL     1       6.611   4.021  16.907  0.00  0.00    +0.000 OA
ATOM     17  H   UNL     1       6.672   3.231  16.326  0.00  0.00    +0.000 HD
ENDBRANCH  14  16
ENDBRANCH  11  12
ENDBRANCH   1  10
BRANCH   1  18
ATOM     18  C   UNL     1       2.201   7.747  18.821  0.00  0.00    +0.000 A 
ATOM     19  C   UNL     1       1.965   8.798  17.932  0.00  0.00    +0.000 A 
ATOM     20  C   UNL     1       1.381   9.990  18.394  0.00  0.00    +0.000 A 
ATOM     21  C   UNL     1       0.967  10.120  19.724  0.00  0.00    +0.000 A 
ATOM     22  C   UNL     1       1.167   9.049  20.595  0.00  0.00    +0.000 A 
ATOM     23  C   UNL     1       1.796   7.874  20.154  0.00  0.00    +0.000 A 
BRANCH  21  24
ATOM     24  O   UNL     1       0.441  11.337  20.068  0.00  0.00    +0.000 OA
BRANCH  24  25
ATOM     25  C   UNL     1      -0.976  11.533  19.928  0.00  0.00    +0.000 C 
BRANCH  25  26
ATOM     26  C   UNL     1      -1.610  11.968  21.181  0.00  0.00    +0.000 C 
ATOM     27  C   UNL     1      -2.209  12.185  22.201  0.00  0.00    +0.000 C 
BRANCH  27  28
ATOM     28  C   UNL     1      -2.993  12.296  23.432  0.00  0.00    +0.000 C 
BRANCH  28  29
ATOM     29  O   UNL     1      -4.380  12.295  23.141  0.00  0.00    +0.000 OA
ATOM     30  H   UNL     1      -4.826  12.710  23.899  0.00  0.00    +0.000 HD
ENDBRANCH  28  29
ENDBRANCH  27  28
ENDBRANCH  25  26
ENDBRANCH  24  25
ENDBRANCH  21  24
ENDBRANCH   1  18
TORSDOF 9
ENDMDL
MODEL 6
REMARK VINA RESULT:      -7.4      1.843      2.739
REMARK  Name = 
REMARK  11 active torsions:
REMARK  status: ('A' for Active; 'I' for Inactive)
REMARK    1  A    between atoms: C_1  and  C_2
REMARK    2  A    between atoms: C_2  and  C_3
REMARK    3  A    between atoms: N_7  and  S_8
REMARK    4  A    between atoms: S_8  and  C_11
REMARK    5  A    between atoms: C_14  and  O_15
REMARK    6  A    between atoms: O_15  and  C_16
REMARK    7  A    between atoms: C_16  and  C_17
REMARK    8  A    between atoms: C_18  and  C_19
REMARK    9  A    between atoms: C_19  and  O_20
REMARK   10  A    between atoms: C_23  and  C_24
REMARK   11  A    between atoms: N_26  and  O_27
REMARK                            x       y       z     vdW  Elec       q    Type
REMARK                         _______ _______ _______ _____ _____    ______ ____
ROOT
ATOM      1  S   UNL     1       2.746   6.121  18.220  0.00  0.00    +0.000 S 
ATOM      2  O   UNL     1       3.975   6.377  17.502  0.00  0.00    +0.000 OA
ATOM      3  O   UNL     1       1.627   5.460  17.584  0.00  0.00    +0.000 OA
ENDROOT
BRANCH   1  10
ATOM      4  C   UNL     1       4.020   1.421  19.044  0.00  0.00    +0.000 C 
ATOM      5  C   UNL     1       3.140   2.692  19.035  0.00  0.00    +0.000 C 
ATOM      6  C   UNL     1       2.451   2.755  17.668  0.00  0.00    +0.000 C 
ATOM      7  S   UNL     1       1.816   2.362  20.317  0.00  0.00    +0.000 S 
ATOM      8  C   UNL     1       1.055   4.019  20.404  0.00  0.00    +0.000 C 
ATOM      9  C   UNL     1       2.065   5.141  20.680  0.00  0.00    +0.000 C 
ATOM     10  N   UNL     1       3.126   5.239  19.635  0.00  0.00    +0.000 NA
ATOM     11  C   UNL     1       3.931   3.949  19.514  0.00  0.00    +0.000 C 
BRANCH  11  12
ATOM     12  C   UNL     1       5.324   4.205  18.930  0.00  0.00    +0.000 C 
ATOM     13  O   UNL     1       6.252   4.786  19.483  0.00  0.00    +0.000 OA
ATOM     14  N   UNL     1       5.399   3.805  17.608  0.00  0.00    +0.000 N 
ATOM     15  H   UNL     1       4.738   3.154  17.194  0.00  0.00    +0.000 HD
BRANCH  14  16
ATOM     16  O   UNL     1       6.619   4.013  16.935  0.00  0.00    +0.000 OA
ATOM     17  H   UNL     1       6.388   3.794  16.005  0.00  0.00    +0.000 HD
ENDBRANCH  14  16
ENDBRANCH  11  12
ENDBRANCH   1  10
BRANCH   1  18
ATOM     18  C   UNL     1       2.161   7.722  18.774  0.00  0.00    +0.000 A 
ATOM     19  C   UNL     1       1.869   8.735  17.856  0.00  0.00    +0.000 A 
ATOM     20  C   UNL     1       1.275   9.929  18.296  0.00  0.00    +0.000 A 
ATOM     21  C   UNL     1       0.905  10.100  19.635  0.00  0.00    +0.000 A 
ATOM     22  C   UNL     1       1.160   9.066  20.535  0.00  0.00    +0.000 A 
ATOM     23  C   UNL     1       1.800   7.890  20.116  0.00  0.00    +0.000 A 
BRANCH  21  24
ATOM     24  O   UNL     1       0.364  11.317  19.954  0.00  0.00    +0.000 OA
BRANCH  24  25
ATOM     25  C   UNL     1       1.180  12.260  20.669  0.00  0.00    +0.000 C 
BRANCH  25  26
ATOM     26  C   UNL     1       2.065  13.026  19.779  0.00  0.00    +0.000 C 
ATOM     27  C   UNL     1       2.658  13.737  19.012  0.00  0.00    +0.000 C 
BRANCH  27  28
ATOM     28  C   UNL     1       3.243  14.690  18.067  0.00  0.00    +0.000 C 
BRANCH  28  29
ATOM     29  O   UNL     1       4.544  14.277  17.683  0.00  0.00    +0.000 OA
ATOM     30  H   UNL     1       5.063  15.086  17.540  0.00  0.00    +0.000 HD
ENDBRANCH  28  29
ENDBRANCH  27  28
ENDBRANCH  25  26
ENDBRANCH  24  25
ENDBRANCH  21  24
ENDBRANCH   1  18
TORSDOF 9
ENDMDL
MODEL 7
REMARK VINA RESULT:      -7.4      0.741      1.185
REMARK  Name = 
REMARK  11 active torsions:
REMARK  status: ('A' for Active; 'I' for Inactive)
REMARK    1  A    between atoms: C_1  and  C_2
REMARK    2  A    between atoms: C_2  and  C_3
REMARK    3  A    between atoms: N_7  and  S_8
REMARK    4  A    between atoms: S_8  and  C_11
REMARK    5  A    between atoms: C_14  and  O_15
REMARK    6  A    between atoms: O_15  and  C_16
REMARK    7  A    between atoms: C_16  and  C_17
REMARK    8  A    between atoms: C_18  and  C_19
REMARK    9  A    between atoms: C_19  and  O_20
REMARK   10  A    between atoms: C_23  and  C_24
REMARK   11  A    between atoms: N_26  and  O_27
REMARK                            x       y       z     vdW  Elec       q    Type
REMARK                         _______ _______ _______ _____ _____    ______ ____
ROOT
ATOM      1  S   UNL     1       2.814   6.173  18.259  0.00  0.00    +0.000 S 
ATOM      2  O   UNL     1       4.070   6.541  17.645  0.00  0.00    +0.000 OA
ATOM      3  O   UNL     1       1.827   5.392  17.545  0.00  0.00    +0.000 OA
ENDROOT
BRANCH   1  10
ATOM      4  C   UNL     1       4.225   1.562  19.323  0.00  0.00    +0.000 C 
ATOM      5  C   UNL     1       3.298   2.794  19.221  0.00  0.00    +0.000 C 
ATOM      6  C   UNL     1       2.681   2.781  17.818  0.00  0.00    +0.000 C 
ATOM      7  S   UNL     1       1.921   2.456  20.443  0.00  0.00    +0.000 S 
ATOM      8  C   UNL     1       1.092   4.082  20.428  0.00  0.00    +0.000 C 
ATOM      9  C   UNL     1       2.041   5.253  20.715  0.00  0.00    +0.000 C 
ATOM     10  N   UNL     1       3.152   5.358  19.724  0.00  0.00    +0.000 NA
ATOM     11  C   UNL     1       4.012   4.099  19.693  0.00  0.00    +0.000 C 
BRANCH  11  12
ATOM     12  C   UNL     1       5.423   4.391  19.173  0.00  0.00    +0.000 C 
ATOM     13  O   UNL     1       6.295   5.033  19.749  0.00  0.00    +0.000 OA
ATOM     14  N   UNL     1       5.586   3.942  17.875  0.00  0.00    +0.000 N 
ATOM     15  H   UNL     1       4.976   3.248  17.454  0.00  0.00    +0.000 HD
BRANCH  14  16
ATOM     16  O   UNL     1       6.832   4.176  17.258  0.00  0.00    +0.000 OA
ATOM     17  H   UNL     1       6.571   4.536  16.382  0.00  0.00    +0.000 HD
ENDBRANCH  14  16
ENDBRANCH  11  12
ENDBRANCH   1  10
BRANCH   1  18
ATOM     18  C   UNL     1       2.025   7.716  18.719  0.00  0.00    +0.000 A 
ATOM     19  C   UNL     1       1.651   7.962  20.043  0.00  0.00    +0.000 A 
ATOM     20  C   UNL     1       1.169   9.230  20.410  0.00  0.00    +0.000 A 
ATOM     21  C   UNL     1       1.119  10.278  19.485  0.00  0.00    +0.000 A 
ATOM     22  C   UNL     1       1.537  10.035  18.177  0.00  0.00    +0.000 A 
ATOM     23  C   UNL     1       1.971   8.759  17.787  0.00  0.00    +0.000 A 
BRANCH  21  24
ATOM     24  O   UNL     1       0.601  11.459  19.948  0.00  0.00    +0.000 OA
BRANCH  24  25
ATOM     25  C   UNL     1      -0.811  11.529  20.207  0.00  0.00    +0.000 C 
BRANCH  25  26
ATOM     26  C   UNL     1      -1.614  11.395  18.983  0.00  0.00    +0.000 C 
ATOM     27  C   UNL     1      -2.131  11.254  17.907  0.00  0.00    +0.000 C 
BRANCH  27  28
ATOM     28  C   UNL     1      -2.615  11.033  16.542  0.00  0.00    +0.000 C 
BRANCH  28  29
ATOM     29  O   UNL     1      -3.062   9.697  16.382  0.00  0.00    +0.000 OA
ATOM     30  H   UNL     1      -2.803   9.217  17.187  0.00  0.00    +0.000 HD
ENDBRANCH  28  29
ENDBRANCH  27  28
ENDBRANCH  25  26
ENDBRANCH  24  25
ENDBRANCH  21  24
ENDBRANCH   1  18
TORSDOF 9
ENDMDL
MODEL 8
REMARK VINA RESULT:      -7.4      1.494      2.143
REMARK  Name = 
REMARK  11 active torsions:
REMARK  status: ('A' for Active; 'I' for Inactive)
REMARK    1  A    between atoms: C_1  and  C_2
REMARK    2  A    between atoms: C_2  and  C_3
REMARK    3  A    between atoms: N_7  and  S_8
REMARK    4  A    between atoms: S_8  and  C_11
REMARK    5  A    between atoms: C_14  and  O_15
REMARK    6  A    between atoms: O_15  and  C_16
REMARK    7  A    between atoms: C_16  and  C_17
REMARK    8  A    between atoms: C_18  and  C_19
REMARK    9  A    between atoms: C_19  and  O_20
REMARK   10  A    between atoms: C_23  and  C_24
REMARK   11  A    between atoms: N_26  and  O_27
REMARK                            x       y       z     vdW  Elec       q    Type
REMARK                         _______ _______ _______ _____ _____    ______ ____
ROOT
ATOM      1  S   UNL     1       2.713   6.001  18.238  0.00  0.00    +0.000 S 
ATOM      2  O   UNL     1       3.905   6.041  17.420  0.00  0.00    +0.000 OA
ATOM      3  O   UNL     1       1.504   5.355  17.775  0.00  0.00    +0.000 OA
ENDROOT
BRANCH   1  10
ATOM      4  C   UNL     1       4.423   1.564  19.570  0.00  0.00    +0.000 C 
ATOM      5  C   UNL     1       3.419   2.728  19.406  0.00  0.00    +0.000 C 
ATOM      6  C   UNL     1       2.786   2.585  18.018  0.00  0.00    +0.000 C 
ATOM      7  S   UNL     1       2.083   2.386  20.671  0.00  0.00    +0.000 S 
ATOM      8  C   UNL     1       1.154   3.954  20.567  0.00  0.00    +0.000 C 
ATOM      9  C   UNL     1       2.032   5.197  20.761  0.00  0.00    +0.000 C 
ATOM     10  N   UNL     1       3.121   5.305  19.746  0.00  0.00    +0.000 NA
ATOM     11  C   UNL     1       4.058   4.101  19.780  0.00  0.00    +0.000 C 
BRANCH  11  12
ATOM     12  C   UNL     1       5.441   4.445  19.219  0.00  0.00    +0.000 C 
ATOM     13  O   UNL     1       6.264   5.204  19.719  0.00  0.00    +0.000 OA
ATOM     14  N   UNL     1       5.632   3.883  17.969  0.00  0.00    +0.000 N 
ATOM     15  H   UNL     1       5.074   3.108  17.626  0.00  0.00    +0.000 HD
BRANCH  14  16
ATOM     16  O   UNL     1       6.854   4.147  17.319  0.00  0.00    +0.000 OA
ATOM     17  H   UNL     1       7.421   3.405  17.624  0.00  0.00    +0.000 HD
ENDBRANCH  14  16
ENDBRANCH  11  12
ENDBRANCH   1  10
BRANCH   1  18
ATOM     18  C   UNL     1       2.295   7.711  18.577  0.00  0.00    +0.000 A 
ATOM     19  C   UNL     1       2.408   8.686  17.582  0.00  0.00    +0.000 A 
ATOM     20  C   UNL     1       1.939   9.989  17.821  0.00  0.00    +0.000 A 
ATOM     21  C   UNL     1       1.296  10.315  19.020  0.00  0.00    +0.000 A 
ATOM     22  C   UNL     1       1.148   9.323  19.990  0.00  0.00    +0.000 A 
ATOM     23  C   UNL     1       1.659   8.033  19.781  0.00  0.00    +0.000 A 
BRANCH  21  24
ATOM     24  O   UNL     1       0.910  11.622  19.155  0.00  0.00    +0.000 OA
BRANCH  24  25
ATOM     25  C   UNL     1      -0.493  11.910  19.275  0.00  0.00    +0.000 C 
BRANCH  25  26
ATOM     26  C   UNL     1      -0.981  11.758  20.654  0.00  0.00    +0.000 C 
ATOM     27  C   UNL     1      -1.258  11.530  21.801  0.00  0.00    +0.000 C 
BRANCH  27  28
ATOM     28  C   UNL     1      -1.455  11.170  23.207  0.00  0.00    +0.000 C 
BRANCH  28  29
ATOM     29  O   UNL     1      -1.012   9.844  23.448  0.00  0.00    +0.000 OA
ATOM     30  H   UNL     1      -0.625   9.523  22.616  0.00  0.00    +0.000 HD
ENDBRANCH  28  29
ENDBRANCH  27  28
ENDBRANCH  25  26
ENDBRANCH  24  25
ENDBRANCH  21  24
ENDBRANCH   1  18
TORSDOF 9
ENDMDL
MODEL 9
REMARK VINA RESULT:      -7.3      1.432      1.896
REMARK  Name = 
REMARK  11 active torsions:
REMARK  status: ('A' for Active; 'I' for Inactive)
REMARK    1  A    between atoms: C_1  and  C_2
REMARK    2  A    between atoms: C_2  and  C_3
REMARK    3  A    between atoms: N_7  and  S_8
REMARK    4  A    between atoms: S_8  and  C_11
REMARK    5  A    between atoms: C_14  and  O_15
REMARK    6  A    between atoms: O_15  and  C_16
REMARK    7  A    between atoms: C_16  and  C_17
REMARK    8  A    between atoms: C_18  and  C_19
REMARK    9  A    between atoms: C_19  and  O_20
REMARK   10  A    between atoms: C_23  and  C_24
REMARK   11  A    between atoms: N_26  and  O_27
REMARK                            x       y       z     vdW  Elec       q    Type
REMARK                         _______ _______ _______ _____ _____    ______ ____
ROOT
ATOM      1  S   UNL     1       2.789   6.143  18.215  0.00  0.00    +0.000 S 
ATOM      2  O   UNL     1       4.019   6.398  17.498  0.00  0.00    +0.000 OA
ATOM      3  O   UNL     1       1.666   5.493  17.575  0.00  0.00    +0.000 OA
ENDROOT
BRANCH   1  10
ATOM      4  C   UNL     1       4.022   1.426  19.005  0.00  0.00    +0.000 C 
ATOM      5  C   UNL     1       3.154   2.705  19.007  0.00  0.00    +0.000 C 
ATOM      6  C   UNL     1       2.461   2.783  17.642  0.00  0.00    +0.000 C 
ATOM      7  S   UNL     1       1.830   2.380  20.291  0.00  0.00    +0.000 S 
ATOM      8  C   UNL     1       1.085   4.043  20.390  0.00  0.00    +0.000 C 
ATOM      9  C   UNL     1       2.107   5.153  20.670  0.00  0.00    +0.000 C 
ATOM     10  N   UNL     1       3.166   5.249  19.623  0.00  0.00    +0.000 NA
ATOM     11  C   UNL     1       3.958   3.952  19.491  0.00  0.00    +0.000 C 
BRANCH  11  12
ATOM     12  C   UNL     1       5.352   4.198  18.904  0.00  0.00    +0.000 C 
ATOM     13  O   UNL     1       6.282   4.779  19.453  0.00  0.00    +0.000 OA
ATOM     14  N   UNL     1       5.423   3.790  17.585  0.00  0.00    +0.000 N 
ATOM     15  H   UNL     1       4.760   3.140  17.175  0.00  0.00    +0.000 HD
BRANCH  14  16
ATOM     16  O   UNL     1       6.644   3.989  16.909  0.00  0.00    +0.000 OA
ATOM     17  H   UNL     1       7.284   3.512  17.482  0.00  0.00    +0.000 HD
ENDBRANCH  14  16
ENDBRANCH  11  12
ENDBRANCH   1  10
BRANCH   1  18
ATOM     18  C   UNL     1       2.214   7.743  18.781  0.00  0.00    +0.000 A 
ATOM     19  C   UNL     1       2.012   8.792  17.880  0.00  0.00    +0.000 A 
ATOM     20  C   UNL     1       1.423   9.990  18.319  0.00  0.00    +0.000 A 
ATOM     21  C   UNL     1       0.970  10.130  19.635  0.00  0.00    +0.000 A 
ATOM     22  C   UNL     1       1.136   9.062  20.517  0.00  0.00    +0.000 A 
ATOM     23  C   UNL     1       1.769   7.880  20.101  0.00  0.00    +0.000 A 
BRANCH  21  24
ATOM     24  O   UNL     1       0.443  11.353  19.958  0.00  0.00    +0.000 OA
BRANCH  24  25
ATOM     25  C   UNL     1      -0.475  11.964  19.037  0.00  0.00    +0.000 C 
BRANCH  25  26
ATOM     26  C   UNL     1      -0.189  13.390  18.821  0.00  0.00    +0.000 C 
ATOM     27  C   UNL     1      -0.052  14.583  18.771  0.00  0.00    +0.000 C 
BRANCH  27  28
ATOM     28  C   UNL     1       0.031  16.043  18.851  0.00  0.00    +0.000 C 
BRANCH  28  29
ATOM     29  O   UNL     1      -1.247  16.626  18.655  0.00  0.00    +0.000 OA
ATOM     30  H   UNL     1      -1.526  16.983  19.515  0.00  0.00    +0.000 HD
ENDBRANCH  28  29
ENDBRANCH  27  28
ENDBRANCH  25  26
ENDBRANCH  24  25
ENDBRANCH  21  24
ENDBRANCH   1  18
TORSDOF 9
ENDMDL
