MODEL 1
REMARK VINA RESULT:      -8.0      0.000      0.000
REMARK  Name = 
REMARK  4 active torsions:
REMARK  status: ('A' for Active; 'I' for Inactive)
REMARK    1  A    between atoms: S_2  and  C_4
REMARK    2  A    between atoms: S_2  and  C_16
REMARK    3  A    between atoms: C_4  and  C_5
REMARK    4  A    between atoms: C_5  and  N_6
REMARK                            x       y       z     vdW  Elec       q    Type
REMARK                         _______ _______ _______ _____ _____    ______ ____
ROOT
ATOM      1  C   UNL     1       5.512   4.437  18.237  0.00  0.00    +0.000 C 
ENDROOT
BRANCH   1   2
ATOM      2  N   UNL     1       4.247   3.709  18.291  0.00  0.00    +0.000 N 
ATOM      3  C   UNL     1       4.065   2.485  17.516  0.00  0.00    +0.000 C 
ATOM      4  C   UNL     1       3.502   1.397  18.426  0.00  0.00    +0.000 C 
ATOM      5  O   UNL     1       2.226   1.764  18.964  0.00  0.00    +0.000 OA
ATOM      6  C   UNL     1       2.190   3.064  19.426  0.00  0.00    +0.000 A 
ATOM      7  C   UNL     1       1.078   3.379  20.212  0.00  0.00    +0.000 A 
ATOM      8  C   UNL     1       0.929   4.663  20.724  0.00  0.00    +0.000 A 
ATOM      9  C   UNL     1       1.901   5.623  20.464  0.00  0.00    +0.000 A 
ATOM     10  C   UNL     1       3.021   5.304  19.686  0.00  0.00    +0.000 A 
ATOM     11  C   UNL     1       3.185   4.028  19.128  0.00  0.00    +0.000 A 
ENDBRANCH   1   2
BRANCH   1  12
ATOM     12  C   UNL     1       5.574   5.350  17.026  0.00  0.00    +0.000 C 
BRANCH  12  14
ATOM     13  O   UNL     1       7.722   6.680  16.318  0.00  0.00    +0.000 OA
ATOM     14  S   UNL     1       7.217   5.320  16.353  0.00  0.00    +0.000 S 
ATOM     15  O   UNL     1       7.963   4.271  17.023  0.00  0.00    +0.000 OA
BRANCH  14  16
ATOM     16  C   UNL     1       6.971   4.812  14.667  0.00  0.00    +0.000 A 
ATOM     17  C   UNL     1       7.799   5.325  13.666  0.00  0.00    +0.000 A 
ATOM     18  C   UNL     1       7.621   4.907  12.346  0.00  0.00    +0.000 A 
ATOM     19  C   UNL     1       6.630   3.975  12.038  0.00  0.00    +0.000 A 
ATOM     20  C   UNL     1       5.818   3.449  13.047  0.00  0.00    +0.000 A 
ATOM     21  C   UNL     1       5.990   3.865  14.368  0.00  0.00    +0.000 A 
ENDBRANCH  14  16
ENDBRANCH  12  14
ENDBRANCH   1  12
TORSDOF 4
ENDMDL
MODEL 2
REMARK VINA RESULT:      -7.8      0.344      1.113
REMARK  Name = 
REMARK  4 active torsions:
REMARK  status: ('A' for Active; 'I' for Inactive)
REMARK    1  A    between atoms: S_2  and  C_4
REMARK    2  A    between atoms: S_2  and  C_16
REMARK    3  A    between atoms: C_4  and  C_5
REMARK    4  A    between atoms: C_5  and  N_6
REMARK                            x       y       z     vdW  Elec       q    Type
REMARK                         _______ _______ _______ _____ _____    ______ ____
ROOT
ATOM      1  C   UNL     1       5.295   4.944  18.264  0.00  0.00    +0.000 C 
ENDROOT
BRANCH   1   2
ATOM      2  N   UNL     1       4.174   4.010  18.218  0.00  0.00    +0.000 N 
ATOM      3  C   UNL     1       4.190   2.879  17.294  0.00  0.00    +0.000 C 
ATOM      4  C   UNL     1       3.836   1.605  18.057  0.00  0.00    +0.000 C 
ATOM      5  O   UNL     1       2.525   1.679  18.629  0.00  0.00    +0.000 OA
ATOM      6  C   UNL     1       2.275   2.886  19.251  0.00  0.00    +0.000 A 
ATOM      7  C   UNL     1       1.137   2.904  20.063  0.00  0.00    +0.000 A 
ATOM      8  C   UNL     1       0.780   4.070  20.732  0.00  0.00    +0.000 A 
ATOM      9  C   UNL     1       1.569   5.207  20.600  0.00  0.00    +0.000 A 
ATOM     10  C   UNL     1       2.716   5.184  19.795  0.00  0.00    +0.000 A 
ATOM     11  C   UNL     1       3.085   4.034  19.083  0.00  0.00    +0.000 A 
ENDBRANCH   1   2
BRANCH   1  12
ATOM     12  C   UNL     1       5.479   5.653  16.935  0.00  0.00    +0.000 C 
BRANCH  12  14
ATOM     13  O   UNL     1       7.782   6.745  16.314  0.00  0.00    +0.000 OA
ATOM     14  S   UNL     1       7.153   5.439  16.383  0.00  0.00    +0.000 S 
ATOM     15  O   UNL     1       7.752   4.369  17.157  0.00  0.00    +0.000 OA
BRANCH  14  16
ATOM     16  C   UNL     1       6.972   4.859  14.712  0.00  0.00    +0.000 A 
ATOM     17  C   UNL     1       5.959   3.947  14.406  0.00  0.00    +0.000 A 
ATOM     18  C   UNL     1       5.803   3.512  13.089  0.00  0.00    +0.000 A 
ATOM     19  C   UNL     1       6.646   3.996  12.089  0.00  0.00    +0.000 A 
ATOM     20  C   UNL     1       7.643   4.925  12.397  0.00  0.00    +0.000 A 
ATOM     21  C   UNL     1       7.807   5.363  13.713  0.00  0.00    +0.000 A 
ENDBRANCH  14  16
ENDBRANCH  12  14
ENDBRANCH   1  12
TORSDOF 4
ENDMDL
MODEL 3
REMARK VINA RESULT:      -7.6      1.421      2.530
REMARK  Name = 
REMARK  4 active torsions:
REMARK  status: ('A' for Active; 'I' for Inactive)
REMARK    1  A    between atoms: S_2  and  C_4
REMARK    2  A    between atoms: S_2  and  C_16
REMARK    3  A    between atoms: C_4  and  C_5
REMARK    4  A    between atoms: C_5  and  N_6
REMARK                            x       y       z     vdW  Elec       q    Type
REMARK                         _______ _______ _______ _____ _____    ______ ____
ROOT
ATOM      1  C   UNL     1       4.168   4.903  16.758  0.00  0.00    +0.000 C 
ENDROOT
BRANCH   1   2
ATOM      2  N   UNL     1       3.602   5.116  18.087  0.00  0.00    +0.000 N 
ATOM      3  C   UNL     1       3.948   6.307  18.857  0.00  0.00    +0.000 C 
ATOM      4  C   UNL     1       2.668   6.956  19.376  0.00  0.00    +0.000 C 
ATOM      5  O   UNL     1       1.942   6.075  20.242  0.00  0.00    +0.000 OA
ATOM      6  C   UNL     1       1.851   4.789  19.750  0.00  0.00    +0.000 A 
ATOM      7  C   UNL     1       0.923   3.974  20.403  0.00  0.00    +0.000 A 
ATOM      8  C   UNL     1       0.753   2.653  20.001  0.00  0.00    +0.000 A 
ATOM      9  C   UNL     1       1.499   2.158  18.937  0.00  0.00    +0.000 A 
ATOM     10  C   UNL     1       2.421   2.980  18.275  0.00  0.00    +0.000 A 
ATOM     11  C   UNL     1       2.639   4.305  18.677  0.00  0.00    +0.000 A 
ENDBRANCH   1   2
BRANCH   1  12
ATOM     12  C   UNL     1       5.417   4.044  16.820  0.00  0.00    +0.000 C 
BRANCH  12  14
ATOM     13  O   UNL     1       6.489   6.401  16.397  0.00  0.00    +0.000 OA
ATOM     14  S   UNL     1       6.810   4.993  16.257  0.00  0.00    +0.000 S 
ATOM     15  O   UNL     1       8.007   4.443  16.863  0.00  0.00    +0.000 OA
BRANCH  14  16
ATOM     16  C   UNL     1       6.878   4.644  14.515  0.00  0.00    +0.000 A 
ATOM     17  C   UNL     1       6.013   3.692  13.969  0.00  0.00    +0.000 A 
ATOM     18  C   UNL     1       6.051   3.437  12.598  0.00  0.00    +0.000 A 
ATOM     19  C   UNL     1       6.938   4.139  11.782  0.00  0.00    +0.000 A 
ATOM     20  C   UNL     1       7.786   5.105  12.330  0.00  0.00    +0.000 A 
ATOM     21  C   UNL     1       7.755   5.364  13.702  0.00  0.00    +0.000 A 
ENDBRANCH  14  16
ENDBRANCH  12  14
ENDBRANCH   1  12
TORSDOF 4
ENDMDL
MODEL 4
REMARK VINA RESULT:      -7.6      1.410      2.342
REMARK  Name = 
REMARK  4 active torsions:
REMARK  status: ('A' for Active; 'I' for Inactive)
REMARK    1  A    between atoms: S_2  and  C_4
REMARK    2  A    between atoms: S_2  and  C_16
REMARK    3  A    between atoms: C_4  and  C_5
REMARK    4  A    between atoms: C_5  and  N_6
REMARK                            x       y       z     vdW  Elec       q    Type
REMARK                         _______ _______ _______ _____ _____    ______ ____
ROOT
ATOM      1  C   UNL     1       4.288   5.469  17.008  0.00  0.00    +0.000 C 
ENDROOT
BRANCH   1   2
ATOM      2  N   UNL     1       3.588   5.394  18.288  0.00  0.00    +0.000 N 
ATOM      3  C   UNL     1       3.774   6.436  19.294  0.00  0.00    +0.000 C 
ATOM      4  C   UNL     1       2.407   6.903  19.787  0.00  0.00    +0.000 C 
ATOM      5  O   UNL     1       1.672   5.836  20.398  0.00  0.00    +0.000 OA
ATOM      6  C   UNL     1       1.721   4.663  19.671  0.00  0.00    +0.000 A 
ATOM      7  C   UNL     1       0.798   3.689  20.064  0.00  0.00    +0.000 A 
ATOM      8  C   UNL     1       0.763   2.462  19.412  0.00  0.00    +0.000 A 
ATOM      9  C   UNL     1       1.638   2.219  18.358  0.00  0.00    +0.000 A 
ATOM     10  C   UNL     1       2.554   3.200  17.958  0.00  0.00    +0.000 A 
ATOM     11  C   UNL     1       2.637   4.435  18.616  0.00  0.00    +0.000 A 
ENDBRANCH   1   2
BRANCH   1  12
ATOM     12  C   UNL     1       5.376   4.416  16.911  0.00  0.00    +0.000 C 
BRANCH  12  14
ATOM     13  O   UNL     1       6.727   6.607  16.403  0.00  0.00    +0.000 OA
ATOM     14  S   UNL     1       6.865   5.166  16.298  0.00  0.00    +0.000 S 
ATOM     15  O   UNL     1       7.996   4.485  16.899  0.00  0.00    +0.000 OA
BRANCH  14  16
ATOM     16  C   UNL     1       6.854   4.767  14.566  0.00  0.00    +0.000 A 
ATOM     17  C   UNL     1       7.737   5.421  13.703  0.00  0.00    +0.000 A 
ATOM     18  C   UNL     1       7.744   5.088  12.347  0.00  0.00    +0.000 A 
ATOM     19  C   UNL     1       6.883   4.101  11.867  0.00  0.00    +0.000 A 
ATOM     20  C   UNL     1       6.018   3.435  12.738  0.00  0.00    +0.000 A 
ATOM     21  C   UNL     1       6.003   3.765  14.094  0.00  0.00    +0.000 A 
ENDBRANCH  14  16
ENDBRANCH  12  14
ENDBRANCH   1  12
TORSDOF 4
ENDMDL
MODEL 5
REMARK VINA RESULT:      -7.4      1.886      7.198
REMARK  Name = 
REMARK  4 active torsions:
REMARK  status: ('A' for Active; 'I' for Inactive)
REMARK    1  A    between atoms: S_2  and  C_4
REMARK    2  A    between atoms: S_2  and  C_16
REMARK    3  A    between atoms: C_4  and  C_5
REMARK    4  A    between atoms: C_5  and  N_6
REMARK                            x       y       z     vdW  Elec       q    Type
REMARK                         _______ _______ _______ _____ _____    ______ ____
ROOT
ATOM      1  C   UNL     1       4.214   3.681  16.501  0.00  0.00    +0.000 C 
ENDROOT
BRANCH   1   2
ATOM      2  N   UNL     1       5.211   4.595  15.949  0.00  0.00    +0.000 N 
ATOM      3  C   UNL     1       5.692   5.728  16.735  0.00  0.00    +0.000 C 
ATOM      4  C   UNL     1       7.217   5.745  16.706  0.00  0.00    +0.000 C 
ATOM      5  O   UNL     1       7.719   5.897  15.373  0.00  0.00    +0.000 OA
ATOM      6  C   UNL     1       7.073   5.091  14.458  0.00  0.00    +0.000 A 
ATOM      7  C   UNL     1       7.705   4.986  13.216  0.00  0.00    +0.000 A 
ATOM      8  C   UNL     1       7.139   4.210  12.211  0.00  0.00    +0.000 A 
ATOM      9  C   UNL     1       5.952   3.527  12.456  0.00  0.00    +0.000 A 
ATOM     10  C   UNL     1       5.326   3.623  13.706  0.00  0.00    +0.000 A 
ATOM     11  C   UNL     1       5.854   4.423  14.729  0.00  0.00    +0.000 A 
ENDBRANCH   1   2
BRANCH   1  12
ATOM     12  C   UNL     1       4.243   3.681  18.018  0.00  0.00    +0.000 C 
BRANCH  12  14
ATOM     13  O   UNL     1       1.685   3.362  17.532  0.00  0.00    +0.000 OA
ATOM     14  S   UNL     1       2.578   3.656  18.637  0.00  0.00    +0.000 S 
ATOM     15  O   UNL     1       2.555   2.850  19.842  0.00  0.00    +0.000 OA
BRANCH  14  16
ATOM     16  C   UNL     1       2.282   5.344  19.111  0.00  0.00    +0.000 A 
ATOM     17  C   UNL     1       1.874   5.630  20.417  0.00  0.00    +0.000 A 
ATOM     18  C   UNL     1       1.665   6.957  20.795  0.00  0.00    +0.000 A 
ATOM     19  C   UNL     1       1.877   7.986  19.877  0.00  0.00    +0.000 A 
ATOM     20  C   UNL     1       2.307   7.695  18.579  0.00  0.00    +0.000 A 
ATOM     21  C   UNL     1       2.514   6.370  18.193  0.00  0.00    +0.000 A 
ENDBRANCH  14  16
ENDBRANCH  12  14
ENDBRANCH   1  12
TORSDOF 4
ENDMDL
MODEL 6
REMARK VINA RESULT:      -7.4      2.536      4.007
REMARK  Name = 
REMARK  4 active torsions:
REMARK  status: ('A' for Active; 'I' for Inactive)
REMARK    1  A    between atoms: S_2  and  C_4
REMARK    2  A    between atoms: S_2  and  C_16
REMARK    3  A    between atoms: C_4  and  C_5
REMARK    4  A    between atoms: C_5  and  N_6
REMARK                            x       y       z     vdW  Elec       q    Type
REMARK                         _______ _______ _______ _____ _____    ______ ____
ROOT
ATOM      1  C   UNL     1       3.775   4.416  16.486  0.00  0.00    +0.000 C 
ENDROOT
BRANCH   1   2
ATOM      2  N   UNL     1       3.437   4.909  17.819  0.00  0.00    +0.000 N 
ATOM      3  C   UNL     1       3.804   6.263  18.223  0.00  0.00    +0.000 C 
ATOM      4  C   UNL     1       2.583   6.954  18.823  0.00  0.00    +0.000 C 
ATOM      5  O   UNL     1       2.106   6.268  19.987  0.00  0.00    +0.000 OA
ATOM      6  C   UNL     1       2.046   4.899  19.820  0.00  0.00    +0.000 A 
ATOM      7  C   UNL     1       1.326   4.218  20.804  0.00  0.00    +0.000 A 
ATOM      8  C   UNL     1       1.208   2.833  20.746  0.00  0.00    +0.000 A 
ATOM      9  C   UNL     1       1.795   2.138  19.694  0.00  0.00    +0.000 A 
ATOM     10  C   UNL     1       2.507   2.824  18.701  0.00  0.00    +0.000 A 
ATOM     11  C   UNL     1       2.671   4.215  18.749  0.00  0.00    +0.000 A 
ENDBRANCH   1   2
BRANCH   1  12
ATOM     12  C   UNL     1       5.209   3.922  16.427  0.00  0.00    +0.000 C 
BRANCH  12  14
ATOM     13  O   UNL     1       7.239   4.473  14.859  0.00  0.00    +0.000 OA
ATOM     14  S   UNL     1       6.220   5.151  15.639  0.00  0.00    +0.000 S 
ATOM     15  O   UNL     1       5.346   6.129  15.020  0.00  0.00    +0.000 OA
BRANCH  14  16
ATOM     16  C   UNL     1       7.046   5.947  16.996  0.00  0.00    +0.000 A 
ATOM     17  C   UNL     1       7.445   5.189  18.100  0.00  0.00    +0.000 A 
ATOM     18  C   UNL     1       8.115   5.811  19.154  0.00  0.00    +0.000 A 
ATOM     19  C   UNL     1       8.394   7.177  19.094  0.00  0.00    +0.000 A 
ATOM     20  C   UNL     1       8.013   7.926  17.978  0.00  0.00    +0.000 A 
ATOM     21  C   UNL     1       7.339   7.311  16.922  0.00  0.00    +0.000 A 
ENDBRANCH  14  16
ENDBRANCH  12  14
ENDBRANCH   1  12
TORSDOF 4
ENDMDL
MODEL 7
REMARK VINA RESULT:      -7.3      2.522      6.420
REMARK  Name = 
REMARK  4 active torsions:
REMARK  status: ('A' for Active; 'I' for Inactive)
REMARK    1  A    between atoms: S_2  and  C_4
REMARK    2  A    between atoms: S_2  and  C_16
REMARK    3  A    between atoms: C_4  and  C_5
REMARK    4  A    between atoms: C_5  and  N_6
REMARK                            x       y       z     vdW  Elec       q    Type
REMARK                         _______ _______ _______ _____ _____    ______ ____
ROOT
ATOM      1  C   UNL     1       4.624   3.255  18.334  0.00  0.00    +0.000 C 
ENDROOT
BRANCH   1   2
ATOM      2  N   UNL     1       5.405   4.103  17.437  0.00  0.00    +0.000 N 
ATOM      3  C   UNL     1       5.213   4.025  15.991  0.00  0.00    +0.000 C 
ATOM      4  C   UNL     1       5.031   5.434  15.435  0.00  0.00    +0.000 C 
ATOM      5  O   UNL     1       6.183   6.252  15.677  0.00  0.00    +0.000 OA
ATOM      6  C   UNL     1       6.668   6.132  16.963  0.00  0.00    +0.000 A 
ATOM      7  C   UNL     1       7.598   7.107  17.334  0.00  0.00    +0.000 A 
ATOM      8  C   UNL     1       8.164   7.081  18.604  0.00  0.00    +0.000 A 
ATOM      9  C   UNL     1       7.787   6.090  19.504  0.00  0.00    +0.000 A 
ATOM     10  C   UNL     1       6.846   5.119  19.135  0.00  0.00    +0.000 A 
ATOM     11  C   UNL     1       6.281   5.100  17.852  0.00  0.00    +0.000 A 
ENDBRANCH   1   2
BRANCH   1  12
ATOM     12  C   UNL     1       3.308   2.844  17.700  0.00  0.00    +0.000 C 
BRANCH  12  14
ATOM     13  O   UNL     1       0.728   2.876  18.177  0.00  0.00    +0.000 OA
ATOM     14  S   UNL     1       1.987   3.136  18.851  0.00  0.00    +0.000 S 
ATOM     15  O   UNL     1       2.312   2.463  20.094  0.00  0.00    +0.000 OA
BRANCH  14  16
ATOM     16  C   UNL     1       2.069   4.886  19.147  0.00  0.00    +0.000 A 
ATOM     17  C   UNL     1       2.356   5.751  18.088  0.00  0.00    +0.000 A 
ATOM     18  C   UNL     1       2.395   7.127  18.318  0.00  0.00    +0.000 A 
ATOM     19  C   UNL     1       2.136   7.630  19.593  0.00  0.00    +0.000 A 
ATOM     20  C   UNL     1       1.828   6.762  20.643  0.00  0.00    +0.000 A 
ATOM     21  C   UNL     1       1.790   5.384  20.422  0.00  0.00    +0.000 A 
ENDBRANCH  14  16
ENDBRANCH  12  14
ENDBRANCH   1  12
TORSDOF 4
ENDMDL
MODEL 8
REMARK VINA RESULT:      -7.3      1.177      1.331
REMARK  Name = 
REMARK  4 active torsions:
REMARK  status: ('A' for Active; 'I' for Inactive)
REMARK    1  A    between atoms: S_2  and  C_4
REMARK    2  A    between atoms: S_2  and  C_16
REMARK    3  A    between atoms: C_4  and  C_5
REMARK    4  A    between atoms: C_5  and  N_6
REMARK                            x       y       z     vdW  Elec       q    Type
REMARK                         _______ _______ _______ _____ _____    ______ ____
ROOT
ATOM      1  C   UNL     1       4.043   4.277  16.441  0.00  0.00    +0.000 C 
ENDROOT
BRANCH   1   2
ATOM      2  N   UNL     1       3.106   3.923  17.504  0.00  0.00    +0.000 N 
ATOM      3  C   UNL     1       2.591   2.561  17.614  0.00  0.00    +0.000 C 
ATOM      4  C   UNL     1       2.749   2.082  19.054  0.00  0.00    +0.000 C 
ATOM      5  O   UNL     1       2.010   2.901  19.968  0.00  0.00    +0.000 OA
ATOM      6  C   UNL     1       2.160   4.251  19.726  0.00  0.00    +0.000 A 
ATOM      7  C   UNL     1       1.703   5.087  20.748  0.00  0.00    +0.000 A 
ATOM      8  C   UNL     1       1.792   6.468  20.609  0.00  0.00    +0.000 A 
ATOM      9  C   UNL     1       2.355   7.007  19.457  0.00  0.00    +0.000 A 
ATOM     10  C   UNL     1       2.824   6.168  18.438  0.00  0.00    +0.000 A 
ATOM     11  C   UNL     1       2.719   4.773  18.534  0.00  0.00    +0.000 A 
ENDBRANCH   1   2
BRANCH   1  12
ATOM     12  C   UNL     1       5.404   3.644  16.670  0.00  0.00    +0.000 C 
BRANCH  12  14
ATOM     13  O   UNL     1       6.164   6.148  16.481  0.00  0.00    +0.000 OA
ATOM     14  S   UNL     1       6.672   4.811  16.240  0.00  0.00    +0.000 S 
ATOM     15  O   UNL     1       7.915   4.372  16.845  0.00  0.00    +0.000 OA
BRANCH  14  16
ATOM     16  C   UNL     1       6.834   4.624  14.479  0.00  0.00    +0.000 A 
ATOM     17  C   UNL     1       7.724   5.443  13.779  0.00  0.00    +0.000 A 
ATOM     18  C   UNL     1       7.868   5.279  12.401  0.00  0.00    +0.000 A 
ATOM     19  C   UNL     1       7.136   4.295  11.735  0.00  0.00    +0.000 A 
ATOM     20  C   UNL     1       6.264   3.465  12.444  0.00  0.00    +0.000 A 
ATOM     21  C   UNL     1       6.113   3.625  13.822  0.00  0.00    +0.000 A 
ENDBRANCH  14  16
ENDBRANCH  12  14
ENDBRANCH   1  12
TORSDOF 4
ENDMDL
MODEL 9
REMARK VINA RESULT:      -7.3      2.567      6.484
REMARK  Name = 
REMARK  4 active torsions:
REMARK  status: ('A' for Active; 'I' for Inactive)
REMARK    1  A    between atoms: S_2  and  C_4
REMARK    2  A    between atoms: S_2  and  C_16
REMARK    3  A    between atoms: C_4  and  C_5
REMARK    4  A    between atoms: C_5  and  N_6
REMARK                            x       y       z     vdW  Elec       q    Type
REMARK                         _______ _______ _______ _____ _____    ______ ____
ROOT
ATOM      1  C   UNL     1       4.629   3.298  18.261  0.00  0.00    +0.000 C 
ENDROOT
BRANCH   1   2
ATOM      2  N   UNL     1       5.388   4.195  17.393  0.00  0.00    +0.000 N 
ATOM      3  C   UNL     1       5.156   4.203  15.952  0.00  0.00    +0.000 C 
ATOM      4  C   UNL     1       4.966   5.643  15.484  0.00  0.00    +0.000 C 
ATOM      5  O   UNL     1       6.128   6.440  15.741  0.00  0.00    +0.000 OA
ATOM      6  C   UNL     1       6.650   6.243  17.004  0.00  0.00    +0.000 A 
ATOM      7  C   UNL     1       7.595   7.191  17.405  0.00  0.00    +0.000 A 
ATOM      8  C   UNL     1       8.197   7.087  18.654  0.00  0.00    +0.000 A 
ATOM      9  C   UNL     1       7.839   6.046  19.504  0.00  0.00    +0.000 A 
ATOM     10  C   UNL     1       6.883   5.103  19.106  0.00  0.00    +0.000 A 
ATOM     11  C   UNL     1       6.282   5.161  17.841  0.00  0.00    +0.000 A 
ENDBRANCH   1   2
BRANCH   1  12
ATOM     12  C   UNL     1       3.295   2.927  17.640  0.00  0.00    +0.000 C 
BRANCH  12  14
ATOM     13  O   UNL     1       0.732   2.878  18.202  0.00  0.00    +0.000 OA
ATOM     14  S   UNL     1       2.004   3.170  18.836  0.00  0.00    +0.000 S 
ATOM     15  O   UNL     1       2.390   2.498  20.063  0.00  0.00    +0.000 OA
BRANCH  14  16
ATOM     16  C   UNL     1       2.043   4.920  19.145  0.00  0.00    +0.000 A 
ATOM     17  C   UNL     1       1.822   5.396  20.441  0.00  0.00    +0.000 A 
ATOM     18  C   UNL     1       1.877   6.768  20.686  0.00  0.00    +0.000 A 
ATOM     19  C   UNL     1       2.165   7.652  19.646  0.00  0.00    +0.000 A 
ATOM     20  C   UNL     1       2.407   7.170  18.358  0.00  0.00    +0.000 A 
ATOM     21  C   UNL     1       2.350   5.798  18.104  0.00  0.00    +0.000 A 
ENDBRANCH  14  16
ENDBRANCH  12  14
ENDBRANCH   1  12
TORSDOF 4
ENDMDL
