MODEL 1
REMARK VINA RESULT:      -9.4      0.000      0.000
REMARK  Name = 
REMARK  7 active torsions:
REMARK  status: ('A' for Active; 'I' for Inactive)
REMARK    1  A    between atoms: C_1  and  C_2
REMARK    2  A    between atoms: C_4  and  C_5
REMARK    3  A    between atoms: N_6  and  C_7
REMARK    4  A    between atoms: C_10  and  C_11
REMARK    5  A    between atoms: N_13  and  C_14
REMARK    6  A    between atoms: C_18  and  S_19
REMARK    7  A    between atoms: S_19  and  N_22
REMARK                            x       y       z     vdW  Elec       q    Type
REMARK                         _______ _______ _______ _____ _____    ______ ____
ROOT
ATOM      1  C   UNL     1       1.641   8.385  19.309  0.00  0.00    +0.000 C 
ATOM      2  O   UNL     1       1.614   8.630  18.115  0.00  0.00    +0.000 OA
ATOM      3  N   UNL     1       2.152   7.194  19.765  0.00  0.00    +0.000 N 
ATOM      4  H   UNL     1       2.122   7.025  20.780  0.00  0.00    +0.000 HD
ENDROOT
BRANCH   1   8
ATOM      5  C   UNL     1      -0.460  11.185  21.819  0.00  0.00    +0.000 A 
ATOM      6  C   UNL     1      -0.299  11.399  20.440  0.00  0.00    +0.000 A 
ATOM      7  C   UNL     1       0.429  10.508  19.663  0.00  0.00    +0.000 A 
ATOM      8  C   UNL     1       0.994   9.354  20.228  0.00  0.00    +0.000 A 
ATOM      9  C   UNL     1       0.868   9.149  21.615  0.00  0.00    +0.000 A 
ATOM     10  C   UNL     1       0.163  10.066  22.400  0.00  0.00    +0.000 A 
BRANCH   5  16
ATOM     11  C   UNL     1      -4.246  12.542  24.608  0.00  0.00    +0.000 C 
ATOM     12  C   UNL     1      -2.973  12.647  23.840  0.00  0.00    +0.000 A 
ATOM     13  C   UNL     1      -2.225  13.785  23.640  0.00  0.00    +0.000 A 
ATOM     14  C   UNL     1      -1.150  13.374  22.884  0.00  0.00    +0.000 A 
ATOM     15  C   UNL     1      -0.090  14.303  22.364  0.00  0.00    +0.000 C 
ATOM     16  N   UNL     1      -1.278  12.042  22.640  0.00  0.00    +0.000 N 
ATOM     17  N   UNL     1      -2.394  11.609  23.212  0.00  0.00    +0.000 NA
ENDBRANCH   5  16
ENDBRANCH   1   8
BRANCH   3  18
ATOM     18  C   UNL     1       2.627   6.095  18.967  0.00  0.00    +0.000 A 
ATOM     19  C   UNL     1       2.229   4.745  19.145  0.00  0.00    +0.000 A 
ATOM     20  C   UNL     1       2.787   3.730  18.368  0.00  0.00    +0.000 A 
ATOM     21  C   UNL     1       3.753   4.024  17.407  0.00  0.00    +0.000 A 
ATOM     22  C   UNL     1       4.171   5.346  17.213  0.00  0.00    +0.000 A 
ATOM     23  C   UNL     1       3.601   6.369  17.984  0.00  0.00    +0.000 A 
BRANCH  22  24
ATOM     24  S   UNL     1       5.506   5.725  16.058  0.00  0.00    +0.000 S 
ATOM     25  O   UNL     1       5.490   4.716  14.901  0.00  0.00    +0.000 OA
ATOM     26  O   UNL     1       5.210   7.015  15.276  0.00  0.00    +0.000 OA
BRANCH  24  27
ATOM     27  N   UNL     1       7.236   5.856  16.508  0.00  0.00    +0.000 NA
ATOM     28  C   UNL     1       7.603   4.806  17.465  0.00  0.00    +0.000 C 
ATOM     29  C   UNL     1       7.403   5.426  18.834  0.00  0.00    +0.000 C 
ATOM     30  C   UNL     1       8.019   6.781  18.597  0.00  0.00    +0.000 C 
ATOM     31  C   UNL     1       7.496   7.133  17.206  0.00  0.00    +0.000 C 
ENDBRANCH  24  27
ENDBRANCH  22  24
ENDBRANCH   3  18
TORSDOF 5
ENDMDL
MODEL 2
REMARK VINA RESULT:      -9.0      5.441      8.729
REMARK  Name = 
REMARK  7 active torsions:
REMARK  status: ('A' for Active; 'I' for Inactive)
REMARK    1  A    between atoms: C_1  and  C_2
REMARK    2  A    between atoms: C_4  and  C_5
REMARK    3  A    between atoms: N_6  and  C_7
REMARK    4  A    between atoms: C_10  and  C_11
REMARK    5  A    between atoms: N_13  and  C_14
REMARK    6  A    between atoms: C_18  and  S_19
REMARK    7  A    between atoms: S_19  and  N_22
REMARK                            x       y       z     vdW  Elec       q    Type
REMARK                         _______ _______ _______ _____ _____    ______ ____
ROOT
ATOM      1  C   UNL     1       7.951   8.059  18.107  0.00  0.00    +0.000 C 
ATOM      2  O   UNL     1       8.518   7.211  18.775  0.00  0.00    +0.000 OA
ATOM      3  N   UNL     1       7.023   7.696  17.161  0.00  0.00    +0.000 N 
ATOM      4  H   UNL     1       6.598   8.450  16.604  0.00  0.00    +0.000 HD
ENDROOT
BRANCH   1   8
ATOM      5  C   UNL     1       9.475  12.065  18.534  0.00  0.00    +0.000 A 
ATOM      6  C   UNL     1       9.921  11.009  19.346  0.00  0.00    +0.000 A 
ATOM      7  C   UNL     1       9.375   9.739  19.225  0.00  0.00    +0.000 A 
ATOM      8  C   UNL     1       8.388   9.468  18.265  0.00  0.00    +0.000 A 
ATOM      9  C   UNL     1       7.909  10.527  17.471  0.00  0.00    +0.000 A 
ATOM     10  C   UNL     1       8.437  11.813  17.619  0.00  0.00    +0.000 A 
BRANCH   5  16
ATOM     11  C   UNL     1      10.162  16.710  19.914  0.00  0.00    +0.000 C 
ATOM     12  C   UNL     1      10.350  15.438  19.160  0.00  0.00    +0.000 A 
ATOM     13  C   UNL     1      11.215  15.225  18.110  0.00  0.00    +0.000 A 
ATOM     14  C   UNL     1      11.030  13.905  17.761  0.00  0.00    +0.000 A 
ATOM     15  C   UNL     1      11.725  13.241  16.608  0.00  0.00    +0.000 C 
ATOM     16  N   UNL     1      10.077  13.374  18.574  0.00  0.00    +0.000 N 
ATOM     17  N   UNL     1       9.659  14.313  19.412  0.00  0.00    +0.000 NA
ENDBRANCH   5  16
ENDBRANCH   1   8
BRANCH   3  18
ATOM     18  C   UNL     1       6.657   6.358  16.777  0.00  0.00    +0.000 A 
ATOM     19  C   UNL     1       7.012   5.754  15.544  0.00  0.00    +0.000 A 
ATOM     20  C   UNL     1       6.562   4.473  15.223  0.00  0.00    +0.000 A 
ATOM     21  C   UNL     1       5.748   3.767  16.107  0.00  0.00    +0.000 A 
ATOM     22  C   UNL     1       5.375   4.341  17.329  0.00  0.00    +0.000 A 
ATOM     23  C   UNL     1       5.837   5.622  17.658  0.00  0.00    +0.000 A 
BRANCH  22  24
ATOM     24  S   UNL     1       4.223   3.488  18.428  0.00  0.00    +0.000 S 
ATOM     25  O   UNL     1       3.803   2.152  17.800  0.00  0.00    +0.000 OA
ATOM     26  O   UNL     1       4.942   2.966  19.682  0.00  0.00    +0.000 OA
BRANCH  24  27
ATOM     27  N   UNL     1       2.693   4.190  19.043  0.00  0.00    +0.000 NA
ATOM     28  C   UNL     1       2.004   4.937  17.984  0.00  0.00    +0.000 C 
ATOM     29  C   UNL     1       2.487   6.368  18.126  0.00  0.00    +0.000 C 
ATOM     30  C   UNL     1       2.415   6.517  19.625  0.00  0.00    +0.000 C 
ATOM     31  C   UNL     1       2.965   5.178  20.108  0.00  0.00    +0.000 C 
ENDBRANCH  24  27
ENDBRANCH  22  24
ENDBRANCH   3  18
TORSDOF 5
ENDMDL
MODEL 3
REMARK VINA RESULT:      -9.0      1.672      2.280
REMARK  Name = 
REMARK  7 active torsions:
REMARK  status: ('A' for Active; 'I' for Inactive)
REMARK    1  A    between atoms: C_1  and  C_2
REMARK    2  A    between atoms: C_4  and  C_5
REMARK    3  A    between atoms: N_6  and  C_7
REMARK    4  A    between atoms: C_10  and  C_11
REMARK    5  A    between atoms: N_13  and  C_14
REMARK    6  A    between atoms: C_18  and  S_19
REMARK    7  A    between atoms: S_19  and  N_22
REMARK                            x       y       z     vdW  Elec       q    Type
REMARK                         _______ _______ _______ _____ _____    ______ ____
ROOT
ATOM      1  C   UNL     1       1.866   7.866  19.813  0.00  0.00    +0.000 C 
ATOM      2  O   UNL     1       2.043   7.992  18.613  0.00  0.00    +0.000 OA
ATOM      3  N   UNL     1       2.400   6.795  20.488  0.00  0.00    +0.000 N 
ATOM      4  H   UNL     1       2.194   6.720  21.493  0.00  0.00    +0.000 HD
ENDROOT
BRANCH   1   8
ATOM      5  C   UNL     1      -0.557  10.735  21.921  0.00  0.00    +0.000 A 
ATOM      6  C   UNL     1       0.106   9.692  22.587  0.00  0.00    +0.000 A 
ATOM      7  C   UNL     1       0.837   8.748  21.878  0.00  0.00    +0.000 A 
ATOM      8  C   UNL     1       0.960   8.832  20.483  0.00  0.00    +0.000 A 
ATOM      9  C   UNL     1       0.270   9.853  19.803  0.00  0.00    +0.000 A 
ATOM     10  C   UNL     1      -0.493  10.782  20.517  0.00  0.00    +0.000 A 
BRANCH   5  16
ATOM     11  C   UNL     1      -4.090  12.860  24.560  0.00  0.00    +0.000 C 
ATOM     12  C   UNL     1      -2.838  12.721  23.762  0.00  0.00    +0.000 A 
ATOM     13  C   UNL     1      -1.982  13.735  23.393  0.00  0.00    +0.000 A 
ATOM     14  C   UNL     1      -0.980  13.111  22.683  0.00  0.00    +0.000 A 
ATOM     15  C   UNL     1       0.153  13.840  22.021  0.00  0.00    +0.000 C 
ATOM     16  N   UNL     1      -1.255  11.779  22.629  0.00  0.00    +0.000 N 
ATOM     17  N   UNL     1      -2.390  11.551  23.275  0.00  0.00    +0.000 NA
ENDBRANCH   5  16
ENDBRANCH   1   8
BRANCH   3  18
ATOM     18  C   UNL     1       3.128   5.691  19.920  0.00  0.00    +0.000 A 
ATOM     19  C   UNL     1       2.801   4.326  20.125  0.00  0.00    +0.000 A 
ATOM     20  C   UNL     1       3.599   3.315  19.589  0.00  0.00    +0.000 A 
ATOM     21  C   UNL     1       4.737   3.628  18.849  0.00  0.00    +0.000 A 
ATOM     22  C   UNL     1       5.089   4.967  18.636  0.00  0.00    +0.000 A 
ATOM     23  C   UNL     1       4.281   5.984  19.163  0.00  0.00    +0.000 A 
BRANCH  22  24
ATOM     24  S   UNL     1       6.625   5.386  17.784  0.00  0.00    +0.000 S 
ATOM     25  O   UNL     1       7.307   6.564  18.495  0.00  0.00    +0.000 OA
ATOM     26  O   UNL     1       7.692   4.302  18.005  0.00  0.00    +0.000 OA
BRANCH  24  27
ATOM     27  N   UNL     1       6.745   5.791  16.042  0.00  0.00    +0.000 NA
ATOM     28  C   UNL     1       5.410   5.891  15.440  0.00  0.00    +0.000 C 
ATOM     29  C   UNL     1       5.113   4.506  14.896  0.00  0.00    +0.000 C 
ATOM     30  C   UNL     1       6.443   4.187  14.261  0.00  0.00    +0.000 C 
ATOM     31  C   UNL     1       7.429   4.709  15.303  0.00  0.00    +0.000 C 
ENDBRANCH  24  27
ENDBRANCH  22  24
ENDBRANCH   3  18
TORSDOF 5
ENDMDL
MODEL 4
REMARK VINA RESULT:      -9.0      1.775      2.173
REMARK  Name = 
REMARK  7 active torsions:
REMARK  status: ('A' for Active; 'I' for Inactive)
REMARK    1  A    between atoms: C_1  and  C_2
REMARK    2  A    between atoms: C_4  and  C_5
REMARK    3  A    between atoms: N_6  and  C_7
REMARK    4  A    between atoms: C_10  and  C_11
REMARK    5  A    between atoms: N_13  and  C_14
REMARK    6  A    between atoms: C_18  and  S_19
REMARK    7  A    between atoms: S_19  and  N_22
REMARK                            x       y       z     vdW  Elec       q    Type
REMARK                         _______ _______ _______ _____ _____    ______ ____
ROOT
ATOM      1  C   UNL     1       1.342   8.181  20.512  0.00  0.00    +0.000 C 
ATOM      2  O   UNL     1       1.718   8.448  19.383  0.00  0.00    +0.000 OA
ATOM      3  N   UNL     1       1.517   6.919  21.025  0.00  0.00    +0.000 N 
ATOM      4  H   UNL     1       1.153   6.738  21.970  0.00  0.00    +0.000 HD
ENDROOT
BRANCH   1   8
ATOM      5  C   UNL     1      -1.060  11.163  22.484  0.00  0.00    +0.000 A 
ATOM      6  C   UNL     1      -0.763  11.236  21.113  0.00  0.00    +0.000 A 
ATOM      7  C   UNL     1       0.058  10.291  20.513  0.00  0.00    +0.000 A 
ATOM      8  C   UNL     1       0.585   9.221  21.252  0.00  0.00    +0.000 A 
ATOM      9  C   UNL     1       0.321   9.159  22.633  0.00  0.00    +0.000 A 
ATOM     10  C   UNL     1      -0.478  10.131  23.242  0.00  0.00    +0.000 A 
BRANCH   5  16
ATOM     11  C   UNL     1      -5.210  12.739  24.546  0.00  0.00    +0.000 C 
ATOM     12  C   UNL     1      -3.824  12.777  23.997  0.00  0.00    +0.000 A 
ATOM     13  C   UNL     1      -3.017  13.886  23.881  0.00  0.00    +0.000 A 
ATOM     14  C   UNL     1      -1.845  13.414  23.331  0.00  0.00    +0.000 A 
ATOM     15  C   UNL     1      -0.684  14.292  22.960  0.00  0.00    +0.000 C 
ATOM     16  N   UNL     1      -1.975  12.076  23.122  0.00  0.00    +0.000 N 
ATOM     17  N   UNL     1      -3.183  11.698  23.516  0.00  0.00    +0.000 NA
ENDBRANCH   5  16
ENDBRANCH   1   8
BRANCH   3  18
ATOM     18  C   UNL     1       2.057   5.774  20.339  0.00  0.00    +0.000 A 
ATOM     19  C   UNL     1       1.389   4.529  20.211  0.00  0.00    +0.000 A 
ATOM     20  C   UNL     1       2.011   3.449  19.584  0.00  0.00    +0.000 A 
ATOM     21  C   UNL     1       3.304   3.572  19.080  0.00  0.00    +0.000 A 
ATOM     22  C   UNL     1       3.992   4.786  19.199  0.00  0.00    +0.000 A 
ATOM     23  C   UNL     1       3.363   5.876  19.816  0.00  0.00    +0.000 A 
BRANCH  22  24
ATOM     24  S   UNL     1       5.709   4.924  18.659  0.00  0.00    +0.000 S 
ATOM     25  O   UNL     1       6.571   5.464  19.809  0.00  0.00    +0.000 OA
ATOM     26  O   UNL     1       6.348   3.536  18.492  0.00  0.00    +0.000 OA
BRANCH  24  27
ATOM     27  N   UNL     1       6.255   5.849  17.224  0.00  0.00    +0.000 NA
ATOM     28  C   UNL     1       5.147   6.048  16.284  0.00  0.00    +0.000 C 
ATOM     29  C   UNL     1       5.229   4.882  15.318  0.00  0.00    +0.000 C 
ATOM     30  C   UNL     1       6.716   4.853  15.073  0.00  0.00    +0.000 C 
ATOM     31  C   UNL     1       7.276   5.089  16.473  0.00  0.00    +0.000 C 
ENDBRANCH  24  27
ENDBRANCH  22  24
ENDBRANCH   3  18
TORSDOF 5
ENDMDL
MODEL 5
REMARK VINA RESULT:      -9.0      6.113      8.533
REMARK  Name = 
REMARK  7 active torsions:
REMARK  status: ('A' for Active; 'I' for Inactive)
REMARK    1  A    between atoms: C_1  and  C_2
REMARK    2  A    between atoms: C_4  and  C_5
REMARK    3  A    between atoms: N_6  and  C_7
REMARK    4  A    between atoms: C_10  and  C_11
REMARK    5  A    between atoms: N_13  and  C_14
REMARK    6  A    between atoms: C_18  and  S_19
REMARK    7  A    between atoms: S_19  and  N_22
REMARK                            x       y       z     vdW  Elec       q    Type
REMARK                         _______ _______ _______ _____ _____    ______ ____
ROOT
ATOM      1  C   UNL     1       7.966   8.162  18.178  0.00  0.00    +0.000 C 
ATOM      2  O   UNL     1       8.383   7.293  18.925  0.00  0.00    +0.000 OA
ATOM      3  N   UNL     1       7.089   7.851  17.168  0.00  0.00    +0.000 N 
ATOM      4  H   UNL     1       6.793   8.616  16.547  0.00  0.00    +0.000 HD
ENDROOT
BRANCH   1   8
ATOM      5  C   UNL     1       9.357  12.213  18.628  0.00  0.00    +0.000 A 
ATOM      6  C   UNL     1       8.396  11.860  17.667  0.00  0.00    +0.000 A 
ATOM      7  C   UNL     1       8.004  10.538  17.506  0.00  0.00    +0.000 A 
ATOM      8  C   UNL     1       8.533   9.526  18.321  0.00  0.00    +0.000 A 
ATOM      9  C   UNL     1       9.522   9.864  19.264  0.00  0.00    +0.000 A 
ATOM     10  C   UNL     1       9.939  11.191  19.400  0.00  0.00    +0.000 A 
BRANCH   5  16
ATOM     11  C   UNL     1       9.263  16.631  20.734  0.00  0.00    +0.000 C 
ATOM     12  C   UNL     1       9.652  15.545  19.789  0.00  0.00    +0.000 A 
ATOM     13  C   UNL     1      10.523  15.652  18.728  0.00  0.00    +0.000 A 
ATOM     14  C   UNL     1      10.560  14.392  18.173  0.00  0.00    +0.000 A 
ATOM     15  C   UNL     1      11.338  14.048  16.935  0.00  0.00    +0.000 C 
ATOM     16  N   UNL     1       9.726  13.583  18.881  0.00  0.00    +0.000 N 
ATOM     17  N   UNL     1       9.168  14.292  19.853  0.00  0.00    +0.000 NA
ENDBRANCH   5  16
ENDBRANCH   1   8
BRANCH   3  18
ATOM     18  C   UNL     1       6.619   6.540  16.803  0.00  0.00    +0.000 A 
ATOM     19  C   UNL     1       7.203   5.732  15.794  0.00  0.00    +0.000 A 
ATOM     20  C   UNL     1       6.645   4.498  15.459  0.00  0.00    +0.000 A 
ATOM     21  C   UNL     1       5.499   4.040  16.106  0.00  0.00    +0.000 A 
ATOM     22  C   UNL     1       4.896   4.819  17.102  0.00  0.00    +0.000 A 
ATOM     23  C   UNL     1       5.463   6.053  17.448  0.00  0.00    +0.000 A 
BRANCH  22  24
ATOM     24  S   UNL     1       3.344   4.295  17.862  0.00  0.00    +0.000 S 
ATOM     25  O   UNL     1       2.359   5.473  17.892  0.00  0.00    +0.000 OA
ATOM     26  O   UNL     1       2.571   3.341  16.937  0.00  0.00    +0.000 OA
BRANCH  24  27
ATOM     27  N   UNL     1       3.205   3.559  19.490  0.00  0.00    +0.000 NA
ATOM     28  C   UNL     1       2.445   2.305  19.428  0.00  0.00    +0.000 C 
ATOM     29  C   UNL     1       1.005   2.697  19.698  0.00  0.00    +0.000 C 
ATOM     30  C   UNL     1       1.208   3.653  20.845  0.00  0.00    +0.000 C 
ATOM     31  C   UNL     1       2.436   4.440  20.394  0.00  0.00    +0.000 C 
ENDBRANCH  24  27
ENDBRANCH  22  24
ENDBRANCH   3  18
TORSDOF 5
ENDMDL
MODEL 6
REMARK VINA RESULT:      -9.0      6.426      9.009
REMARK  Name = 
REMARK  7 active torsions:
REMARK  status: ('A' for Active; 'I' for Inactive)
REMARK    1  A    between atoms: C_1  and  C_2
REMARK    2  A    between atoms: C_4  and  C_5
REMARK    3  A    between atoms: N_6  and  C_7
REMARK    4  A    between atoms: C_10  and  C_11
REMARK    5  A    between atoms: N_13  and  C_14
REMARK    6  A    between atoms: C_18  and  S_19
REMARK    7  A    between atoms: S_19  and  N_22
REMARK                            x       y       z     vdW  Elec       q    Type
REMARK                         _______ _______ _______ _____ _____    ______ ____
ROOT
ATOM      1  C   UNL     1       7.781   8.029  18.053  0.00  0.00    +0.000 C 
ATOM      2  O   UNL     1       8.253   7.173  18.782  0.00  0.00    +0.000 OA
ATOM      3  N   UNL     1       6.874   7.691  17.078  0.00  0.00    +0.000 N 
ATOM      4  H   UNL     1       6.531   8.447  16.470  0.00  0.00    +0.000 HD
ENDROOT
BRANCH   1   8
ATOM      5  C   UNL     1       9.566  11.937  18.348  0.00  0.00    +0.000 A 
ATOM      6  C   UNL     1      10.032  10.849  19.103  0.00  0.00    +0.000 A 
ATOM      7  C   UNL     1       9.405   9.612  19.030  0.00  0.00    +0.000 A 
ATOM      8  C   UNL     1       8.311   9.409  18.175  0.00  0.00    +0.000 A 
ATOM      9  C   UNL     1       7.814  10.503  17.441  0.00  0.00    +0.000 A 
ATOM     10  C   UNL     1       8.427  11.755  17.543  0.00  0.00    +0.000 A 
BRANCH   5  16
ATOM     11  C   UNL     1      10.502  16.572  17.084  0.00  0.00    +0.000 C 
ATOM     12  C   UNL     1      10.673  15.245  17.742  0.00  0.00    +0.000 A 
ATOM     13  C   UNL     1      11.725  14.852  18.537  0.00  0.00    +0.000 A 
ATOM     14  C   UNL     1      11.425  13.560  18.908  0.00  0.00    +0.000 A 
ATOM     15  C   UNL     1      12.333  12.696  19.735  0.00  0.00    +0.000 C 
ATOM     16  N   UNL     1      10.242  13.210  18.334  0.00  0.00    +0.000 N 
ATOM     17  N   UNL     1       9.797  14.233  17.617  0.00  0.00    +0.000 NA
ENDBRANCH   5  16
ENDBRANCH   1   8
BRANCH   3  18
ATOM     18  C   UNL     1       6.430   6.366  16.731  0.00  0.00    +0.000 A 
ATOM     19  C   UNL     1       7.029   5.557  15.732  0.00  0.00    +0.000 A 
ATOM     20  C   UNL     1       6.497   4.308  15.414  0.00  0.00    +0.000 A 
ATOM     21  C   UNL     1       5.360   3.835  16.068  0.00  0.00    +0.000 A 
ATOM     22  C   UNL     1       4.742   4.615  17.054  0.00  0.00    +0.000 A 
ATOM     23  C   UNL     1       5.285   5.865  17.384  0.00  0.00    +0.000 A 
BRANCH  22  24
ATOM     24  S   UNL     1       3.202   4.070  17.822  0.00  0.00    +0.000 S 
ATOM     25  O   UNL     1       2.306   5.285  18.103  0.00  0.00    +0.000 OA
ATOM     26  O   UNL     1       2.314   3.327  16.811  0.00  0.00    +0.000 OA
BRANCH  24  27
ATOM     27  N   UNL     1       3.102   3.090  19.319  0.00  0.00    +0.000 NA
ATOM     28  C   UNL     1       2.117   2.012  19.167  0.00  0.00    +0.000 C 
ATOM     29  C   UNL     1       0.814   2.585  19.690  0.00  0.00    +0.000 C 
ATOM     30  C   UNL     1       1.315   3.274  20.934  0.00  0.00    +0.000 C 
ATOM     31  C   UNL     1       2.614   3.911  20.447  0.00  0.00    +0.000 C 
ENDBRANCH  24  27
ENDBRANCH  22  24
ENDBRANCH   3  18
TORSDOF 5
ENDMDL
MODEL 7
REMARK VINA RESULT:      -8.9      2.422      3.510
REMARK  Name = 
REMARK  7 active torsions:
REMARK  status: ('A' for Active; 'I' for Inactive)
REMARK    1  A    between atoms: C_1  and  C_2
REMARK    2  A    between atoms: C_4  and  C_5
REMARK    3  A    between atoms: N_6  and  C_7
REMARK    4  A    between atoms: C_10  and  C_11
REMARK    5  A    between atoms: N_13  and  C_14
REMARK    6  A    between atoms: C_18  and  S_19
REMARK    7  A    between atoms: S_19  and  N_22
REMARK                            x       y       z     vdW  Elec       q    Type
REMARK                         _______ _______ _______ _____ _____    ______ ____
ROOT
ATOM      1  C   UNL     1       1.464   8.084  20.549  0.00  0.00    +0.000 C 
ATOM      2  O   UNL     1       1.838   7.126  21.204  0.00  0.00    +0.000 OA
ATOM      3  N   UNL     1       1.843   8.222  19.236  0.00  0.00    +0.000 N 
ATOM      4  H   UNL     1       1.525   9.065  18.739  0.00  0.00    +0.000 HD
ENDROOT
BRANCH   1   8
ATOM      5  C   UNL     1      -0.962  11.116  22.414  0.00  0.00    +0.000 A 
ATOM      6  C   UNL     1      -0.678  11.133  21.039  0.00  0.00    +0.000 A 
ATOM      7  C   UNL     1       0.150  10.175  20.471  0.00  0.00    +0.000 A 
ATOM      8  C   UNL     1       0.699   9.145  21.251  0.00  0.00    +0.000 A 
ATOM      9  C   UNL     1       0.449   9.139  22.636  0.00  0.00    +0.000 A 
ATOM     10  C   UNL     1      -0.358  10.125  23.210  0.00  0.00    +0.000 A 
BRANCH   5  16
ATOM     11  C   UNL     1      -5.121  12.726  24.430  0.00  0.00    +0.000 C 
ATOM     12  C   UNL     1      -3.738  12.757  23.876  0.00  0.00    +0.000 A 
ATOM     13  C   UNL     1      -2.941  13.869  23.717  0.00  0.00    +0.000 A 
ATOM     14  C   UNL     1      -1.766  13.388  23.182  0.00  0.00    +0.000 A 
ATOM     15  C   UNL     1      -0.614  14.263  22.776  0.00  0.00    +0.000 C 
ATOM     16  N   UNL     1      -1.883  12.042  23.022  0.00  0.00    +0.000 N 
ATOM     17  N   UNL     1      -3.087  11.667  23.433  0.00  0.00    +0.000 NA
ENDBRANCH   5  16
ENDBRANCH   1   8
BRANCH   3  18
ATOM     18  C   UNL     1       2.739   7.369  18.501  0.00  0.00    +0.000 A 
ATOM     19  C   UNL     1       3.753   7.836  17.625  0.00  0.00    +0.000 A 
ATOM     20  C   UNL     1       4.537   6.939  16.901  0.00  0.00    +0.000 A 
ATOM     21  C   UNL     1       4.334   5.565  17.019  0.00  0.00    +0.000 A 
ATOM     22  C   UNL     1       3.335   5.074  17.870  0.00  0.00    +0.000 A 
ATOM     23  C   UNL     1       2.555   5.974  18.608  0.00  0.00    +0.000 A 
BRANCH  22  24
ATOM     24  S   UNL     1       2.980   3.305  17.940  0.00  0.00    +0.000 S 
ATOM     25  O   UNL     1       1.924   2.947  16.885  0.00  0.00    +0.000 OA
ATOM     26  O   UNL     1       4.164   2.483  17.405  0.00  0.00    +0.000 OA
BRANCH  24  27
ATOM     27  N   UNL     1       2.450   2.430  19.411  0.00  0.00    +0.000 NA
ATOM     28  C   UNL     1       1.017   2.639  19.651  0.00  0.00    +0.000 C 
ATOM     29  C   UNL     1       0.938   3.840  20.574  0.00  0.00    +0.000 C 
ATOM     30  C   UNL     1       2.043   3.496  21.540  0.00  0.00    +0.000 C 
ATOM     31  C   UNL     1       3.131   2.966  20.609  0.00  0.00    +0.000 C 
ENDBRANCH  24  27
ENDBRANCH  22  24
ENDBRANCH   3  18
TORSDOF 5
ENDMDL
MODEL 8
REMARK VINA RESULT:      -8.9      0.891      1.890
REMARK  Name = 
REMARK  7 active torsions:
REMARK  status: ('A' for Active; 'I' for Inactive)
REMARK    1  A    between atoms: C_1  and  C_2
REMARK    2  A    between atoms: C_4  and  C_5
REMARK    3  A    between atoms: N_6  and  C_7
REMARK    4  A    between atoms: C_10  and  C_11
REMARK    5  A    between atoms: N_13  and  C_14
REMARK    6  A    between atoms: C_18  and  S_19
REMARK    7  A    between atoms: S_19  and  N_22
REMARK                            x       y       z     vdW  Elec       q    Type
REMARK                         _______ _______ _______ _____ _____    ______ ____
ROOT
ATOM      1  C   UNL     1       1.541   8.726  18.736  0.00  0.00    +0.000 C 
ATOM      2  O   UNL     1       1.421   8.752  17.522  0.00  0.00    +0.000 OA
ATOM      3  N   UNL     1       2.133   7.653  19.355  0.00  0.00    +0.000 N 
ATOM      4  H   UNL     1       2.180   7.668  20.383  0.00  0.00    +0.000 HD
ENDROOT
BRANCH   1   8
ATOM      5  C   UNL     1      -0.071  11.885  21.181  0.00  0.00    +0.000 A 
ATOM      6  C   UNL     1       0.160  10.596  21.689  0.00  0.00    +0.000 A 
ATOM      7  C   UNL     1       0.629   9.581  20.867  0.00  0.00    +0.000 A 
ATOM      8  C   UNL     1       0.917   9.825  19.514  0.00  0.00    +0.000 A 
ATOM      9  C   UNL     1       0.655  11.103  18.987  0.00  0.00    +0.000 A 
ATOM     10  C   UNL     1       0.150  12.114  19.811  0.00  0.00    +0.000 A 
BRANCH   5  16
ATOM     11  C   UNL     1       0.134  16.272  23.342  0.00  0.00    +0.000 C 
ATOM     12  C   UNL     1      -0.360  14.906  23.003  0.00  0.00    +0.000 A 
ATOM     13  C   UNL     1      -1.432  14.256  23.572  0.00  0.00    +0.000 A 
ATOM     14  C   UNL     1      -1.491  13.041  22.927  0.00  0.00    +0.000 A 
ATOM     15  C   UNL     1      -2.476  11.960  23.270  0.00  0.00    +0.000 C 
ATOM     16  N   UNL     1      -0.477  12.983  22.022  0.00  0.00    +0.000 N 
ATOM     17  N   UNL     1       0.214  14.113  22.083  0.00  0.00    +0.000 NA
ENDBRANCH   5  16
ENDBRANCH   1   8
BRANCH   3  18
ATOM     18  C   UNL     1       2.599   6.443  18.730  0.00  0.00    +0.000 A 
ATOM     19  C   UNL     1       2.125   5.144  19.048  0.00  0.00    +0.000 A 
ATOM     20  C   UNL     1       2.676   4.016  18.439  0.00  0.00    +0.000 A 
ATOM     21  C   UNL     1       3.709   4.146  17.513  0.00  0.00    +0.000 A 
ATOM     22  C   UNL     1       4.203   5.415  17.185  0.00  0.00    +0.000 A 
ATOM     23  C   UNL     1       3.641   6.550  17.786  0.00  0.00    +0.000 A 
BRANCH  22  24
ATOM     24  S   UNL     1       5.620   5.589  16.079  0.00  0.00    +0.000 S 
ATOM     25  O   UNL     1       5.623   4.443  15.058  0.00  0.00    +0.000 OA
ATOM     26  O   UNL     1       5.433   6.780  15.126  0.00  0.00    +0.000 OA
BRANCH  24  27
ATOM     27  N   UNL     1       7.325   5.706  16.619  0.00  0.00    +0.000 NA
ATOM     28  C   UNL     1       7.603   4.721  17.672  0.00  0.00    +0.000 C 
ATOM     29  C   UNL     1       7.346   5.449  18.977  0.00  0.00    +0.000 C 
ATOM     30  C   UNL     1       8.018   6.765  18.676  0.00  0.00    +0.000 C 
ATOM     31  C   UNL     1       7.587   7.024  17.235  0.00  0.00    +0.000 C 
ENDBRANCH  24  27
ENDBRANCH  22  24
ENDBRANCH   3  18
TORSDOF 5
ENDMDL
MODEL 9
REMARK VINA RESULT:      -8.8      5.437      8.306
REMARK  Name = 
REMARK  7 active torsions:
REMARK  status: ('A' for Active; 'I' for Inactive)
REMARK    1  A    between atoms: C_1  and  C_2
REMARK    2  A    between atoms: C_4  and  C_5
REMARK    3  A    between atoms: N_6  and  C_7
REMARK    4  A    between atoms: C_10  and  C_11
REMARK    5  A    between atoms: N_13  and  C_14
REMARK    6  A    between atoms: C_18  and  S_19
REMARK    7  A    between atoms: S_19  and  N_22
REMARK                            x       y       z     vdW  Elec       q    Type
REMARK                         _______ _______ _______ _____ _____    ______ ____
ROOT
ATOM      1  C   UNL     1       7.937   7.928  18.099  0.00  0.00    +0.000 C 
ATOM      2  O   UNL     1       8.408   7.064  18.819  0.00  0.00    +0.000 OA
ATOM      3  N   UNL     1       7.051   7.600  17.102  0.00  0.00    +0.000 N 
ATOM      4  H   UNL     1       6.709   8.364  16.504  0.00  0.00    +0.000 HD
ENDROOT
BRANCH   1   8
ATOM      5  C   UNL     1       9.163  12.030  18.576  0.00  0.00    +0.000 A 
ATOM      6  C   UNL     1       8.278  11.632  17.561  0.00  0.00    +0.000 A 
ATOM      7  C   UNL     1       7.941  10.296  17.395  0.00  0.00    +0.000 A 
ATOM      8  C   UNL     1       8.449   9.312  18.258  0.00  0.00    +0.000 A 
ATOM      9  C   UNL     1       9.364   9.696  19.256  0.00  0.00    +0.000 A 
ATOM     10  C   UNL     1       9.728  11.038  19.398  0.00  0.00    +0.000 A 
BRANCH   5  16
ATOM     11  C   UNL     1       8.746  16.487  20.554  0.00  0.00    +0.000 C 
ATOM     12  C   UNL     1       9.256  15.392  19.680  0.00  0.00    +0.000 A 
ATOM     13  C   UNL     1      10.225  15.500  18.708  0.00  0.00    +0.000 A 
ATOM     14  C   UNL     1      10.350  14.230  18.190  0.00  0.00    +0.000 A 
ATOM     15  C   UNL     1      11.257  13.881  17.045  0.00  0.00    +0.000 C 
ATOM     16  N   UNL     1       9.470  13.415  18.831  0.00  0.00    +0.000 N 
ATOM     17  N   UNL     1       8.799  14.129  19.725  0.00  0.00    +0.000 NA
ENDBRANCH   5  16
ENDBRANCH   1   8
BRANCH   3  18
ATOM     18  C   UNL     1       6.629   6.277  16.722  0.00  0.00    +0.000 A 
ATOM     19  C   UNL     1       6.910   5.677  15.467  0.00  0.00    +0.000 A 
ATOM     20  C   UNL     1       6.408   4.413  15.155  0.00  0.00    +0.000 A 
ATOM     21  C   UNL     1       5.615   3.721  16.068  0.00  0.00    +0.000 A 
ATOM     22  C   UNL     1       5.314   4.292  17.311  0.00  0.00    +0.000 A 
ATOM     23  C   UNL     1       5.829   5.555  17.631  0.00  0.00    +0.000 A 
BRANCH  22  24
ATOM     24  S   UNL     1       4.189   3.460  18.453  0.00  0.00    +0.000 S 
ATOM     25  O   UNL     1       3.775   2.100  17.872  0.00  0.00    +0.000 OA
ATOM     26  O   UNL     1       4.933   2.984  19.711  0.00  0.00    +0.000 OA
BRANCH  24  27
ATOM     27  N   UNL     1       2.660   4.163  19.069  0.00  0.00    +0.000 NA
ATOM     28  C   UNL     1       1.978   4.924  18.016  0.00  0.00    +0.000 C 
ATOM     29  C   UNL     1       2.468   6.350  18.173  0.00  0.00    +0.000 C 
ATOM     30  C   UNL     1       2.391   6.486  19.673  0.00  0.00    +0.000 C 
ATOM     31  C   UNL     1       2.933   5.139  20.145  0.00  0.00    +0.000 C 
ENDBRANCH  24  27
ENDBRANCH  22  24
ENDBRANCH   3  18
TORSDOF 5
ENDMDL
