MODEL 1
REMARK VINA RESULT:      -6.6      0.000      0.000
REMARK  Name = 
REMARK  5 active torsions:
REMARK  status: ('A' for Active; 'I' for Inactive)
REMARK    1  A    between atoms: C_2  and  C_3
REMARK    2  A    between atoms: C_4  and  N_5
REMARK    3  A    between atoms: C_7  and  C_8
REMARK    4  A    between atoms: C_17  and  C_18
REMARK    5  A    between atoms: C_20  and  C_21
REMARK                            x       y       z     vdW  Elec       q    Type
REMARK                         _______ _______ _______ _____ _____    ______ ____
ROOT
ATOM      1  C   UNL     1      -2.751  11.629  18.887  0.00  0.00    +0.000 C 
ATOM      2  C   UNL     1      -3.779  12.361  19.363  0.00  0.00    +0.000 C 
ATOM      3  O   UNL     1      -3.858  12.701  20.707  0.00  0.00    +0.000 OA
ATOM      4  C   UNL     1      -2.824  12.399  21.583  0.00  0.00    +0.000 C 
ATOM      5  C   UNL     1      -1.792  11.612  21.230  0.00  0.00    +0.000 C 
ATOM      6  C   UNL     1      -1.703  11.054  19.818  0.00  0.00    +0.000 C 
ENDROOT
BRANCH   4   7
ATOM      7  C   UNL     1      -3.013  12.998  22.863  0.00  0.00    +0.000 A 
ATOM      8  C   UNL     1      -3.992  12.633  23.760  0.00  0.00    +0.000 A 
ATOM      9  N   UNL     1      -3.873  13.447  24.857  0.00  0.00    +0.000 N 
ATOM     10  C   UNL     1      -2.839  14.339  24.682  0.00  0.00    +0.000 A 
ATOM     11  C   UNL     1      -2.379  15.359  25.524  0.00  0.00    +0.000 A 
ATOM     12  C   UNL     1      -1.295  16.124  25.083  0.00  0.00    +0.000 A 
ATOM     13  C   UNL     1      -0.688  15.867  23.856  0.00  0.00    +0.000 A 
ATOM     14  C   UNL     1      -1.158  14.842  23.027  0.00  0.00    +0.000 A 
ATOM     15  C   UNL     1      -2.263  14.067  23.438  0.00  0.00    +0.000 A 
ATOM     16  H   UNL     1      -4.465  13.413  25.676  0.00  0.00    +0.000 HD
ENDBRANCH   4   7
BRANCH   6  17
ATOM     17  C   UNL     1      -0.282  11.158  19.252  0.00  0.00    +0.000 A 
ATOM     18  C   UNL     1       0.359   9.970  18.834  0.00  0.00    +0.000 A 
ATOM     19  C   UNL     1       1.616  10.012  18.244  0.00  0.00    +0.000 A 
ATOM     20  C   UNL     1       2.252  11.235  18.063  0.00  0.00    +0.000 A 
ATOM     21  C   UNL     1       1.654  12.433  18.475  0.00  0.00    +0.000 A 
ATOM     22  C   UNL     1       2.321  13.653  18.269  0.00  0.00    +0.000 A 
ATOM     23  C   UNL     1       1.756  14.863  18.663  0.00  0.00    +0.000 A 
ATOM     24  C   UNL     1       0.516  14.869  19.281  0.00  0.00    +0.000 A 
ATOM     25  C   UNL     1      -0.159  13.668  19.495  0.00  0.00    +0.000 A 
ATOM     26  C   UNL     1       0.376  12.417  19.091  0.00  0.00    +0.000 A 
ENDBRANCH   6  17
BRANCH   2  27
ATOM     27  N   UNL     1      -4.830  12.848  18.628  0.00  0.00    +0.000 N 
ATOM     28  H   UNL     1      -4.944  12.495  17.682  0.00  0.00    +0.000 HD
ATOM     29  H   UNL     1      -4.952  13.854  18.719  0.00  0.00    +0.000 HD
ENDBRANCH   2  27
BRANCH   1  31
ATOM     30  N   UNL     1      -2.506  11.268  16.140  0.00  0.00    +0.000 NA
ATOM     31  C   UNL     1      -2.617  11.431  17.385  0.00  0.00    +0.000 C 
ENDBRANCH   1  31
BRANCH   5  32
ATOM     32  C   UNL     1      -0.776  11.266  22.176  0.00  0.00    +0.000 C 
ATOM     33  N   UNL     1       0.043  10.963  22.941  0.00  0.00    +0.000 NA
ENDBRANCH   5  32
TORSDOF 5
ENDMDL
MODEL 2
REMARK VINA RESULT:      -6.3      2.731      6.820
REMARK  Name = 
REMARK  5 active torsions:
REMARK  status: ('A' for Active; 'I' for Inactive)
REMARK    1  A    between atoms: C_2  and  C_3
REMARK    2  A    between atoms: C_4  and  N_5
REMARK    3  A    between atoms: C_7  and  C_8
REMARK    4  A    between atoms: C_17  and  C_18
REMARK    5  A    between atoms: C_20  and  C_21
REMARK                            x       y       z     vdW  Elec       q    Type
REMARK                         _______ _______ _______ _____ _____    ______ ____
ROOT
ATOM      1  C   UNL     1      -4.118  15.586  21.465  0.00  0.00    +0.000 C 
ATOM      2  C   UNL     1      -3.140  15.916  20.596  0.00  0.00    +0.000 C 
ATOM      3  O   UNL     1      -1.987  15.149  20.484  0.00  0.00    +0.000 OA
ATOM      4  C   UNL     1      -1.854  13.955  21.178  0.00  0.00    +0.000 C 
ATOM      5  C   UNL     1      -2.732  13.571  22.122  0.00  0.00    +0.000 C 
ATOM      6  C   UNL     1      -3.947  14.431  22.432  0.00  0.00    +0.000 C 
ENDROOT
BRANCH   4   7
ATOM      7  C   UNL     1      -0.691  13.231  20.782  0.00  0.00    +0.000 A 
ATOM      8  C   UNL     1       0.590  13.524  21.192  0.00  0.00    +0.000 A 
ATOM      9  N   UNL     1       1.435  12.632  20.585  0.00  0.00    +0.000 N 
ATOM     10  C   UNL     1       0.723  11.770  19.780  0.00  0.00    +0.000 A 
ATOM     11  C   UNL     1       1.172  10.726  18.961  0.00  0.00    +0.000 A 
ATOM     12  C   UNL     1       0.213  10.007  18.243  0.00  0.00    +0.000 A 
ATOM     13  C   UNL     1      -1.142  10.311  18.353  0.00  0.00    +0.000 A 
ATOM     14  C   UNL     1      -1.575  11.356  19.178  0.00  0.00    +0.000 A 
ATOM     15  C   UNL     1      -0.626  12.111  19.899  0.00  0.00    +0.000 A 
ATOM     16  H   UNL     1       2.439  12.611  20.695  0.00  0.00    +0.000 HD
ENDBRANCH   4   7
BRANCH   6  17
ATOM     17  C   UNL     1      -5.219  13.590  22.585  0.00  0.00    +0.000 A 
ATOM     18  C   UNL     1      -5.903  13.633  23.821  0.00  0.00    +0.000 A 
ATOM     19  C   UNL     1      -7.101  12.951  23.992  0.00  0.00    +0.000 A 
ATOM     20  C   UNL     1      -7.634  12.216  22.938  0.00  0.00    +0.000 A 
ATOM     21  C   UNL     1      -6.977  12.140  21.702  0.00  0.00    +0.000 A 
ATOM     22  C   UNL     1      -7.548  11.396  20.655  0.00  0.00    +0.000 A 
ATOM     23  C   UNL     1      -6.926  11.300  19.413  0.00  0.00    +0.000 A 
ATOM     24  C   UNL     1      -5.716  11.940  19.203  0.00  0.00    +0.000 A 
ATOM     25  C   UNL     1      -5.135  12.682  20.232  0.00  0.00    +0.000 A 
ATOM     26  C   UNL     1      -5.747  12.818  21.505  0.00  0.00    +0.000 A 
ENDBRANCH   6  17
BRANCH   2  27
ATOM     27  N   UNL     1      -3.148  16.992  19.746  0.00  0.00    +0.000 N 
ATOM     28  H   UNL     1      -2.401  17.674  19.845  0.00  0.00    +0.000 HD
ATOM     29  H   UNL     1      -4.072  17.398  19.619  0.00  0.00    +0.000 HD
ENDBRANCH   2  27
BRANCH   1  31
ATOM     30  N   UNL     1      -6.519  16.986  21.396  0.00  0.00    +0.000 NA
ATOM     31  C   UNL     1      -5.430  16.351  21.427  0.00  0.00    +0.000 C 
ENDBRANCH   1  31
BRANCH   5  32
ATOM     32  C   UNL     1      -2.531  12.366  22.866  0.00  0.00    +0.000 C 
ATOM     33  N   UNL     1      -2.356  11.379  23.452  0.00  0.00    +0.000 NA
ENDBRANCH   5  32
TORSDOF 5
ENDMDL
MODEL 3
REMARK VINA RESULT:      -6.3      2.576      4.565
REMARK  Name = 
REMARK  5 active torsions:
REMARK  status: ('A' for Active; 'I' for Inactive)
REMARK    1  A    between atoms: C_2  and  C_3
REMARK    2  A    between atoms: C_4  and  N_5
REMARK    3  A    between atoms: C_7  and  C_8
REMARK    4  A    between atoms: C_17  and  C_18
REMARK    5  A    between atoms: C_20  and  C_21
REMARK                            x       y       z     vdW  Elec       q    Type
REMARK                         _______ _______ _______ _____ _____    ______ ____
ROOT
ATOM      1  C   UNL     1      -0.191  13.194  19.431  0.00  0.00    +0.000 C 
ATOM      2  C   UNL     1      -1.040  14.079  19.993  0.00  0.00    +0.000 C 
ATOM      3  O   UNL     1      -2.412  13.858  19.997  0.00  0.00    +0.000 OA
ATOM      4  C   UNL     1      -2.944  12.666  19.527  0.00  0.00    +0.000 C 
ATOM      5  C   UNL     1      -2.198  11.751  18.883  0.00  0.00    +0.000 C 
ATOM      6  C   UNL     1      -0.708  11.981  18.684  0.00  0.00    +0.000 C 
ENDROOT
BRANCH   4   7
ATOM      7  C   UNL     1      -4.341  12.560  19.794  0.00  0.00    +0.000 A 
ATOM      8  C   UNL     1      -5.308  12.375  18.832  0.00  0.00    +0.000 A 
ATOM      9  N   UNL     1      -6.524  12.350  19.466  0.00  0.00    +0.000 N 
ATOM     10  C   UNL     1      -6.360  12.524  20.822  0.00  0.00    +0.000 A 
ATOM     11  C   UNL     1      -7.318  12.590  21.842  0.00  0.00    +0.000 A 
ATOM     12  C   UNL     1      -6.860  12.778  23.150  0.00  0.00    +0.000 A 
ATOM     13  C   UNL     1      -5.499  12.880  23.425  0.00  0.00    +0.000 A 
ATOM     14  C   UNL     1      -4.554  12.810  22.394  0.00  0.00    +0.000 A 
ATOM     15  C   UNL     1      -4.989  12.639  21.063  0.00  0.00    +0.000 A 
ATOM     16  H   UNL     1      -7.418  12.234  19.009  0.00  0.00    +0.000 HD
ENDBRANCH   4   7
BRANCH   6  17
ATOM     17  C   UNL     1       0.109  10.715  18.968  0.00  0.00    +0.000 A 
ATOM     18  C   UNL     1       0.815  10.122  17.897  0.00  0.00    +0.000 A 
ATOM     19  C   UNL     1       1.631   9.018  18.111  0.00  0.00    +0.000 A 
ATOM     20  C   UNL     1       1.755   8.489  19.391  0.00  0.00    +0.000 A 
ATOM     21  C   UNL     1       1.060   9.043  20.475  0.00  0.00    +0.000 A 
ATOM     22  C   UNL     1       1.215   8.488  21.758  0.00  0.00    +0.000 A 
ATOM     23  C   UNL     1       0.544   9.013  22.859  0.00  0.00    +0.000 A 
ATOM     24  C   UNL     1      -0.303  10.097  22.691  0.00  0.00    +0.000 A 
ATOM     25  C   UNL     1      -0.469  10.658  21.425  0.00  0.00    +0.000 A 
ATOM     26  C   UNL     1       0.212  10.163  20.282  0.00  0.00    +0.000 A 
ENDBRANCH   6  17
BRANCH   2  27
ATOM     27  N   UNL     1      -0.689  15.254  20.608  0.00  0.00    +0.000 N 
ATOM     28  H   UNL     1      -1.412  15.959  20.720  0.00  0.00    +0.000 HD
ATOM     29  H   UNL     1       0.208  15.618  20.296  0.00  0.00    +0.000 HD
ENDBRANCH   2  27
BRANCH   1  31
ATOM     30  N   UNL     1       2.547  13.558  19.750  0.00  0.00    +0.000 NA
ATOM     31  C   UNL     1       1.306  13.393  19.605  0.00  0.00    +0.000 C 
ENDBRANCH   1  31
BRANCH   5  32
ATOM     32  C   UNL     1      -2.790  10.561  18.353  0.00  0.00    +0.000 C 
ATOM     33  N   UNL     1      -3.284   9.595  17.940  0.00  0.00    +0.000 NA
ENDBRANCH   5  32
TORSDOF 5
ENDMDL
MODEL 4
REMARK VINA RESULT:      -6.2      2.720      5.118
REMARK  Name = 
REMARK  5 active torsions:
REMARK  status: ('A' for Active; 'I' for Inactive)
REMARK    1  A    between atoms: C_2  and  C_3
REMARK    2  A    between atoms: C_4  and  N_5
REMARK    3  A    between atoms: C_7  and  C_8
REMARK    4  A    between atoms: C_17  and  C_18
REMARK    5  A    between atoms: C_20  and  C_21
REMARK                            x       y       z     vdW  Elec       q    Type
REMARK                         _______ _______ _______ _____ _____    ______ ____
ROOT
ATOM      1  C   UNL     1      -0.219  13.008  20.282  0.00  0.00    +0.000 C 
ATOM      2  C   UNL     1      -1.169  13.952  20.446  0.00  0.00    +0.000 C 
ATOM      3  O   UNL     1      -2.472  13.745  20.008  0.00  0.00    +0.000 OA
ATOM      4  C   UNL     1      -2.866  12.518  19.494  0.00  0.00    +0.000 C 
ATOM      5  C   UNL     1      -1.986  11.538  19.221  0.00  0.00    +0.000 C 
ATOM      6  C   UNL     1      -0.507  11.733  19.515  0.00  0.00    +0.000 C 
ENDROOT
BRANCH   4   7
ATOM      7  C   UNL     1      -4.275  12.452  19.284  0.00  0.00    +0.000 A 
ATOM      8  C   UNL     1      -4.875  12.299  18.055  0.00  0.00    +0.000 A 
ATOM      9  N   UNL     1      -6.232  12.307  18.252  0.00  0.00    +0.000 N 
ATOM     10  C   UNL     1      -6.521  12.471  19.589  0.00  0.00    +0.000 A 
ATOM     11  C   UNL     1      -7.759  12.561  20.237  0.00  0.00    +0.000 A 
ATOM     12  C   UNL     1      -7.753  12.731  21.624  0.00  0.00    +0.000 A 
ATOM     13  C   UNL     1      -6.557  12.793  22.334  0.00  0.00    +0.000 A 
ATOM     14  C   UNL     1      -5.327  12.698  21.671  0.00  0.00    +0.000 A 
ATOM     15  C   UNL     1      -5.303  12.545  20.269  0.00  0.00    +0.000 A 
ATOM     16  H   UNL     1      -6.928  12.219  17.525  0.00  0.00    +0.000 HD
ENDBRANCH   4   7
BRANCH   6  17
ATOM     17  C   UNL     1       0.115  10.493  20.167  0.00  0.00    +0.000 A 
ATOM     18  C   UNL     1      -0.232  10.197  21.505  0.00  0.00    +0.000 A 
ATOM     19  C   UNL     1       0.241   9.047  22.123  0.00  0.00    +0.000 A 
ATOM     20  C   UNL     1       1.066   8.175  21.419  0.00  0.00    +0.000 A 
ATOM     21  C   UNL     1       1.441   8.441  20.096  0.00  0.00    +0.000 A 
ATOM     22  C   UNL     1       2.269   7.535  19.410  0.00  0.00    +0.000 A 
ATOM     23  C   UNL     1       2.660   7.765  18.094  0.00  0.00    +0.000 A 
ATOM     24  C   UNL     1       2.236   8.913  17.445  0.00  0.00    +0.000 A 
ATOM     25  C   UNL     1       1.415   9.823  18.110  0.00  0.00    +0.000 A 
ATOM     26  C   UNL     1       0.981   9.615  19.446  0.00  0.00    +0.000 A 
ENDBRANCH   6  17
BRANCH   2  27
ATOM     27  N   UNL     1      -0.995  15.177  21.037  0.00  0.00    +0.000 N 
ATOM     28  H   UNL     1      -0.346  15.823  20.595  0.00  0.00    +0.000 HD
ATOM     29  H   UNL     1      -0.914  15.127  22.050  0.00  0.00    +0.000 HD
ENDBRANCH   2  27
BRANCH   1  31
ATOM     30  N   UNL     1       2.269  13.375  21.469  0.00  0.00    +0.000 NA
ATOM     31  C   UNL     1       1.141  13.208  20.931  0.00  0.00    +0.000 C 
ENDBRANCH   1  31
BRANCH   5  32
ATOM     32  C   UNL     1      -2.416  10.308  18.630  0.00  0.00    +0.000 C 
ATOM     33  N   UNL     1      -2.744   9.302  18.152  0.00  0.00    +0.000 NA
ENDBRANCH   5  32
TORSDOF 5
ENDMDL
MODEL 5
REMARK VINA RESULT:      -6.2      2.292      4.566
REMARK  Name = 
REMARK  5 active torsions:
REMARK  status: ('A' for Active; 'I' for Inactive)
REMARK    1  A    between atoms: C_2  and  C_3
REMARK    2  A    between atoms: C_4  and  N_5
REMARK    3  A    between atoms: C_7  and  C_8
REMARK    4  A    between atoms: C_17  and  C_18
REMARK    5  A    between atoms: C_20  and  C_21
REMARK                            x       y       z     vdW  Elec       q    Type
REMARK                         _______ _______ _______ _____ _____    ______ ____
ROOT
ATOM      1  C   UNL     1       0.205  14.036  20.942  0.00  0.00    +0.000 C 
ATOM      2  C   UNL     1      -0.462  14.880  21.756  0.00  0.00    +0.000 C 
ATOM      3  O   UNL     1      -1.850  14.939  21.749  0.00  0.00    +0.000 OA
ATOM      4  C   UNL     1      -2.599  14.050  20.991  0.00  0.00    +0.000 C 
ATOM      5  C   UNL     1      -2.037  13.221  20.093  0.00  0.00    +0.000 C 
ATOM      6  C   UNL     1      -0.527  13.201  19.911  0.00  0.00    +0.000 C 
ENDROOT
BRANCH   4   7
ATOM      7  C   UNL     1      -3.994  14.150  21.269  0.00  0.00    +0.000 A 
ATOM      8  C   UNL     1      -4.896  14.851  20.500  0.00  0.00    +0.000 A 
ATOM      9  N   UNL     1      -6.125  14.737  21.096  0.00  0.00    +0.000 N 
ATOM     10  C   UNL     1      -6.033  13.982  22.244  0.00  0.00    +0.000 A 
ATOM     11  C   UNL     1      -7.021  13.632  23.173  0.00  0.00    +0.000 A 
ATOM     12  C   UNL     1      -6.638  12.845  24.263  0.00  0.00    +0.000 A 
ATOM     13  C   UNL     1      -5.321  12.414  24.407  0.00  0.00    +0.000 A 
ATOM     14  C   UNL     1      -4.345  12.770  23.469  0.00  0.00    +0.000 A 
ATOM     15  C   UNL     1      -4.701  13.579  22.369  0.00  0.00    +0.000 A 
ATOM     16  H   UNL     1      -6.980  15.156  20.757  0.00  0.00    +0.000 HD
ENDBRANCH   4   7
BRANCH   6  17
ATOM     17  C   UNL     1       0.017  11.772  19.807  0.00  0.00    +0.000 A 
ATOM     18  C   UNL     1       0.654  11.386  18.606  0.00  0.00    +0.000 A 
ATOM     19  C   UNL     1       1.232  10.129  18.483  0.00  0.00    +0.000 A 
ATOM     20  C   UNL     1       1.184   9.239  19.551  0.00  0.00    +0.000 A 
ATOM     21  C   UNL     1       0.550   9.582  20.753  0.00  0.00    +0.000 A 
ATOM     22  C   UNL     1       0.528   8.662  21.816  0.00  0.00    +0.000 A 
ATOM     23  C   UNL     1      -0.090   8.969  23.025  0.00  0.00    +0.000 A 
ATOM     24  C   UNL     1      -0.705  10.200  23.186  0.00  0.00    +0.000 A 
ATOM     25  C   UNL     1      -0.692  11.124  22.141  0.00  0.00    +0.000 A 
ATOM     26  C   UNL     1      -0.057  10.855  20.901  0.00  0.00    +0.000 A 
ENDBRANCH   6  17
BRANCH   2  27
ATOM     27  N   UNL     1       0.103  15.748  22.655  0.00  0.00    +0.000 N 
ATOM     28  H   UNL     1       0.231  16.712  22.361  0.00  0.00    +0.000 HD
ATOM     29  H   UNL     1       0.897  15.351  23.152  0.00  0.00    +0.000 HD
ENDBRANCH   2  27
BRANCH   1  31
ATOM     30  N   UNL     1       2.955  13.755  21.248  0.00  0.00    +0.000 NA
ATOM     31  C   UNL     1       1.708  13.883  21.109  0.00  0.00    +0.000 C 
ENDBRANCH   1  31
BRANCH   5  32
ATOM     32  C   UNL     1      -2.842  12.364  19.280  0.00  0.00    +0.000 C 
ATOM     33  N   UNL     1      -3.482  11.672  18.602  0.00  0.00    +0.000 NA
ENDBRANCH   5  32
TORSDOF 5
ENDMDL
MODEL 6
REMARK VINA RESULT:      -6.2      2.207      6.328
REMARK  Name = 
REMARK  5 active torsions:
REMARK  status: ('A' for Active; 'I' for Inactive)
REMARK    1  A    between atoms: C_2  and  C_3
REMARK    2  A    between atoms: C_4  and  N_5
REMARK    3  A    between atoms: C_7  and  C_8
REMARK    4  A    between atoms: C_17  and  C_18
REMARK    5  A    between atoms: C_20  and  C_21
REMARK                            x       y       z     vdW  Elec       q    Type
REMARK                         _______ _______ _______ _____ _____    ______ ____
ROOT
ATOM      1  C   UNL     1      -4.310  12.904  20.011  0.00  0.00    +0.000 C 
ATOM      2  C   UNL     1      -4.121  11.998  19.030  0.00  0.00    +0.000 C 
ATOM      3  O   UNL     1      -2.859  11.482  18.760  0.00  0.00    +0.000 OA
ATOM      4  C   UNL     1      -1.774  11.793  19.566  0.00  0.00    +0.000 C 
ATOM      5  C   UNL     1      -1.836  12.737  20.522  0.00  0.00    +0.000 C 
ATOM      6  C   UNL     1      -3.139  13.477  20.783  0.00  0.00    +0.000 C 
ENDROOT
BRANCH   4   7
ATOM      7  C   UNL     1      -0.622  11.018  19.239  0.00  0.00    +0.000 A 
ATOM      8  C   UNL     1       0.136  11.187  18.102  0.00  0.00    +0.000 A 
ATOM      9  N   UNL     1       1.133  10.246  18.125  0.00  0.00    +0.000 N 
ATOM     10  C   UNL     1       1.028   9.465  19.255  0.00  0.00    +0.000 A 
ATOM     11  C   UNL     1       1.808   8.380  19.674  0.00  0.00    +0.000 A 
ATOM     12  C   UNL     1       1.467   7.763  20.881  0.00  0.00    +0.000 A 
ATOM     13  C   UNL     1       0.398   8.225  21.644  0.00  0.00    +0.000 A 
ATOM     14  C   UNL     1      -0.371   9.312  21.213  0.00  0.00    +0.000 A 
ATOM     15  C   UNL     1      -0.061   9.941  19.989  0.00  0.00    +0.000 A 
ATOM     16  H   UNL     1       1.840  10.127  17.413  0.00  0.00    +0.000 HD
ENDBRANCH   4   7
BRANCH   6  17
ATOM     17  C   UNL     1      -3.425  13.619  22.282  0.00  0.00    +0.000 A 
ATOM     18  C   UNL     1      -3.670  12.445  23.029  0.00  0.00    +0.000 A 
ATOM     19  C   UNL     1      -3.861  12.505  24.403  0.00  0.00    +0.000 A 
ATOM     20  C   UNL     1      -3.812  13.734  25.053  0.00  0.00    +0.000 A 
ATOM     21  C   UNL     1      -3.585  14.921  24.344  0.00  0.00    +0.000 A 
ATOM     22  C   UNL     1      -3.532  16.145  25.034  0.00  0.00    +0.000 A 
ATOM     23  C   UNL     1      -3.306  17.344  24.363  0.00  0.00    +0.000 A 
ATOM     24  C   UNL     1      -3.137  17.338  22.988  0.00  0.00    +0.000 A 
ATOM     25  C   UNL     1      -3.186  16.132  22.288  0.00  0.00    +0.000 A 
ATOM     26  C   UNL     1      -3.398  14.888  22.938  0.00  0.00    +0.000 A 
ENDBRANCH   6  17
BRANCH   2  27
ATOM     27  N   UNL     1      -5.092  11.485  18.208  0.00  0.00    +0.000 N 
ATOM     28  H   UNL     1      -5.957  12.010  18.120  0.00  0.00    +0.000 HD
ATOM     29  H   UNL     1      -5.219  10.481  18.314  0.00  0.00    +0.000 HD
ENDBRANCH   2  27
BRANCH   1  31
ATOM     30  N   UNL     1      -6.905  13.638  20.691  0.00  0.00    +0.000 NA
ATOM     31  C   UNL     1      -5.729  13.305  20.383  0.00  0.00    +0.000 C 
ENDBRANCH   1  31
BRANCH   5  32
ATOM     32  C   UNL     1      -0.680  13.081  21.292  0.00  0.00    +0.000 C 
ATOM     33  N   UNL     1       0.254  13.382  21.912  0.00  0.00    +0.000 NA
ENDBRANCH   5  32
TORSDOF 5
ENDMDL
MODEL 7
REMARK VINA RESULT:      -6.1      1.758      2.680
REMARK  Name = 
REMARK  5 active torsions:
REMARK  status: ('A' for Active; 'I' for Inactive)
REMARK    1  A    between atoms: C_2  and  C_3
REMARK    2  A    between atoms: C_4  and  N_5
REMARK    3  A    between atoms: C_7  and  C_8
REMARK    4  A    between atoms: C_17  and  C_18
REMARK    5  A    between atoms: C_20  and  C_21
REMARK                            x       y       z     vdW  Elec       q    Type
REMARK                         _______ _______ _______ _____ _____    ______ ____
ROOT
ATOM      1  C   UNL     1      -3.412  11.825  18.753  0.00  0.00    +0.000 C 
ATOM      2  C   UNL     1      -4.686  12.162  19.042  0.00  0.00    +0.000 C 
ATOM      3  O   UNL     1      -5.031  12.670  20.287  0.00  0.00    +0.000 OA
ATOM      4  C   UNL     1      -4.059  12.958  21.235  0.00  0.00    +0.000 C 
ATOM      5  C   UNL     1      -2.774  12.595  21.079  0.00  0.00    +0.000 C 
ATOM      6  C   UNL     1      -2.329  11.882  19.811  0.00  0.00    +0.000 C 
ENDROOT
BRANCH   4   7
ATOM      7  C   UNL     1      -4.597  13.645  22.363  0.00  0.00    +0.000 A 
ATOM      8  C   UNL     1      -5.336  13.051  23.361  0.00  0.00    +0.000 A 
ATOM      9  N   UNL     1      -5.696  14.031  24.250  0.00  0.00    +0.000 N 
ATOM     10  C   UNL     1      -5.210  15.252  23.839  0.00  0.00    +0.000 A 
ATOM     11  C   UNL     1      -5.353  16.519  24.419  0.00  0.00    +0.000 A 
ATOM     12  C   UNL     1      -4.744  17.600  23.776  0.00  0.00    +0.000 A 
ATOM     13  C   UNL     1      -4.009  17.416  22.607  0.00  0.00    +0.000 A 
ATOM     14  C   UNL     1      -3.873  16.143  22.041  0.00  0.00    +0.000 A 
ATOM     15  C   UNL     1      -4.493  15.037  22.660  0.00  0.00    +0.000 A 
ATOM     16  H   UNL     1      -6.251  13.888  25.083  0.00  0.00    +0.000 HD
ENDBRANCH   4   7
BRANCH   6  17
ATOM     17  C   UNL     1      -1.005  12.439  19.277  0.00  0.00    +0.000 A 
ATOM     18  C   UNL     1      -0.821  13.840  19.276  0.00  0.00    +0.000 A 
ATOM     19  C   UNL     1       0.386  14.397  18.875  0.00  0.00    +0.000 A 
ATOM     20  C   UNL     1       1.427  13.569  18.468  0.00  0.00    +0.000 A 
ATOM     21  C   UNL     1       1.278  12.176  18.444  0.00  0.00    +0.000 A 
ATOM     22  C   UNL     1       2.354  11.367  18.036  0.00  0.00    +0.000 A 
ATOM     23  C   UNL     1       2.243   9.980  18.002  0.00  0.00    +0.000 A 
ATOM     24  C   UNL     1       1.050   9.379  18.366  0.00  0.00    +0.000 A 
ATOM     25  C   UNL     1      -0.028  10.167  18.773  0.00  0.00    +0.000 A 
ATOM     26  C   UNL     1       0.052  11.582  18.838  0.00  0.00    +0.000 A 
ENDBRANCH   6  17
BRANCH   2  27
ATOM     27  N   UNL     1      -5.759  12.058  18.193  0.00  0.00    +0.000 N 
ATOM     28  H   UNL     1      -5.577  12.127  17.196  0.00  0.00    +0.000 HD
ATOM     29  H   UNL     1      -6.573  12.582  18.509  0.00  0.00    +0.000 HD
ENDBRANCH   2  27
BRANCH   1  31
ATOM     30  N   UNL     1      -2.758  11.120  16.143  0.00  0.00    +0.000 NA
ATOM     31  C   UNL     1      -3.055  11.439  17.326  0.00  0.00    +0.000 C 
ENDBRANCH   1  31
BRANCH   5  32
ATOM     32  C   UNL     1      -1.809  12.847  22.104  0.00  0.00    +0.000 C 
ATOM     33  N   UNL     1      -1.042  13.059  22.949  0.00  0.00    +0.000 NA
ENDBRANCH   5  32
TORSDOF 5
ENDMDL
MODEL 8
REMARK VINA RESULT:      -6.0      7.052     10.585
REMARK  Name = 
REMARK  5 active torsions:
REMARK  status: ('A' for Active; 'I' for Inactive)
REMARK    1  A    between atoms: C_2  and  C_3
REMARK    2  A    between atoms: C_4  and  N_5
REMARK    3  A    between atoms: C_7  and  C_8
REMARK    4  A    between atoms: C_17  and  C_18
REMARK    5  A    between atoms: C_20  and  C_21
REMARK                            x       y       z     vdW  Elec       q    Type
REMARK                         _______ _______ _______ _____ _____    ______ ____
ROOT
ATOM      1  C   UNL     1       4.717  14.873  20.932  0.00  0.00    +0.000 C 
ATOM      2  C   UNL     1       4.820  14.885  19.587  0.00  0.00    +0.000 C 
ATOM      3  O   UNL     1       6.059  14.924  18.960  0.00  0.00    +0.000 OA
ATOM      4  C   UNL     1       7.234  14.835  19.694  0.00  0.00    +0.000 C 
ATOM      5  C   UNL     1       7.247  14.893  21.037  0.00  0.00    +0.000 C 
ATOM      6  C   UNL     1       5.944  15.017  21.811  0.00  0.00    +0.000 C 
ENDROOT
BRANCH   4   7
ATOM      7  C   UNL     1       8.380  14.701  18.856  0.00  0.00    +0.000 A 
ATOM      8  C   UNL     1       8.907  15.711  18.084  0.00  0.00    +0.000 A 
ATOM      9  N   UNL     1       9.980  15.197  17.404  0.00  0.00    +0.000 N 
ATOM     10  C   UNL     1      10.153  13.867  17.717  0.00  0.00    +0.000 A 
ATOM     11  C   UNL     1      11.098  12.947  17.245  0.00  0.00    +0.000 A 
ATOM     12  C   UNL     1      11.037  11.642  17.741  0.00  0.00    +0.000 A 
ATOM     13  C   UNL     1      10.077  11.278  18.683  0.00  0.00    +0.000 A 
ATOM     14  C   UNL     1       9.141  12.210  19.147  0.00  0.00    +0.000 A 
ATOM     15  C   UNL     1       9.168  13.529  18.649  0.00  0.00    +0.000 A 
ATOM     16  H   UNL     1      10.560  15.710  16.754  0.00  0.00    +0.000 HD
ENDBRANCH   4   7
BRANCH   6  17
ATOM     17  C   UNL     1       5.913  14.088  23.031  0.00  0.00    +0.000 A 
ATOM     18  C   UNL     1       6.266  12.732  22.847  0.00  0.00    +0.000 A 
ATOM     19  C   UNL     1       6.329  11.863  23.928  0.00  0.00    +0.000 A 
ATOM     20  C   UNL     1       6.042  12.330  25.206  0.00  0.00    +0.000 A 
ATOM     21  C   UNL     1       5.676  13.665  25.426  0.00  0.00    +0.000 A 
ATOM     22  C   UNL     1       5.400  14.106  26.732  0.00  0.00    +0.000 A 
ATOM     23  C   UNL     1       5.037  15.425  26.989  0.00  0.00    +0.000 A 
ATOM     24  C   UNL     1       4.933  16.323  25.939  0.00  0.00    +0.000 A 
ATOM     25  C   UNL     1       5.202  15.901  24.636  0.00  0.00    +0.000 A 
ATOM     26  C   UNL     1       5.593  14.570  24.337  0.00  0.00    +0.000 A 
ENDBRANCH   6  17
BRANCH   2  27
ATOM     27  N   UNL     1       3.775  14.857  18.699  0.00  0.00    +0.000 N 
ATOM     28  H   UNL     1       4.001  14.813  17.710  0.00  0.00    +0.000 HD
ATOM     29  H   UNL     1       3.033  15.514  18.931  0.00  0.00    +0.000 HD
ENDBRANCH   2  27
BRANCH   1  31
ATOM     30  N   UNL     1       2.223  14.472  22.095  0.00  0.00    +0.000 NA
ATOM     31  C   UNL     1       3.354  14.654  21.568  0.00  0.00    +0.000 C 
ENDBRANCH   1  31
BRANCH   5  32
ATOM     32  C   UNL     1       8.480  14.865  21.762  0.00  0.00    +0.000 C 
ATOM     33  N   UNL     1       9.474  14.824  22.360  0.00  0.00    +0.000 NA
ENDBRANCH   5  32
TORSDOF 5
ENDMDL
MODEL 9
REMARK VINA RESULT:      -6.0      3.020      7.249
REMARK  Name = 
REMARK  5 active torsions:
REMARK  status: ('A' for Active; 'I' for Inactive)
REMARK    1  A    between atoms: C_2  and  C_3
REMARK    2  A    between atoms: C_4  and  N_5
REMARK    3  A    between atoms: C_7  and  C_8
REMARK    4  A    between atoms: C_17  and  C_18
REMARK    5  A    between atoms: C_20  and  C_21
REMARK                            x       y       z     vdW  Elec       q    Type
REMARK                         _______ _______ _______ _____ _____    ______ ____
ROOT
ATOM      1  C   UNL     1       0.834  12.350  19.176  0.00  0.00    +0.000 C 
ATOM      2  C   UNL     1       1.794  11.656  18.531  0.00  0.00    +0.000 C 
ATOM      3  O   UNL     1       2.105  10.352  18.893  0.00  0.00    +0.000 OA
ATOM      4  C   UNL     1       1.361   9.679  19.851  0.00  0.00    +0.000 C 
ATOM      5  C   UNL     1       0.434  10.298  20.604  0.00  0.00    +0.000 C 
ATOM      6  C   UNL     1       0.136  11.774  20.392  0.00  0.00    +0.000 C 
ENDROOT
BRANCH   4   7
ATOM      7  C   UNL     1       1.717   8.301  19.938  0.00  0.00    +0.000 A 
ATOM      8  C   UNL     1       1.382   7.472  20.985  0.00  0.00    +0.000 A 
ATOM      9  N   UNL     1       1.919   6.238  20.725  0.00  0.00    +0.000 N 
ATOM     10  C   UNL     1       2.605   6.256  19.531  0.00  0.00    +0.000 A 
ATOM     11  C   UNL     1       3.323   5.239  18.890  0.00  0.00    +0.000 A 
ATOM     12  C   UNL     1       3.930   5.544  17.668  0.00  0.00    +0.000 A 
ATOM     13  C   UNL     1       3.808   6.811  17.104  0.00  0.00    +0.000 A 
ATOM     14  C   UNL     1       3.084   7.817  17.756  0.00  0.00    +0.000 A 
ATOM     15  C   UNL     1       2.478   7.542  18.999  0.00  0.00    +0.000 A 
ATOM     16  H   UNL     1       1.841   5.429  21.325  0.00  0.00    +0.000 HD
ENDBRANCH   4   7
BRANCH   6  17
ATOM     17  C   UNL     1      -1.369  12.062  20.406  0.00  0.00    +0.000 A 
ATOM     18  C   UNL     1      -1.887  12.858  21.452  0.00  0.00    +0.000 A 
ATOM     19  C   UNL     1      -3.230  13.213  21.475  0.00  0.00    +0.000 A 
ATOM     20  C   UNL     1      -4.075  12.781  20.459  0.00  0.00    +0.000 A 
ATOM     21  C   UNL     1      -3.600  11.980  19.411  0.00  0.00    +0.000 A 
ATOM     22  C   UNL     1      -4.480  11.569  18.395  0.00  0.00    +0.000 A 
ATOM     23  C   UNL     1      -4.044  10.775  17.337  0.00  0.00    +0.000 A 
ATOM     24  C   UNL     1      -2.719  10.372  17.286  0.00  0.00    +0.000 A 
ATOM     25  C   UNL     1      -1.833  10.771  18.287  0.00  0.00    +0.000 A 
ATOM     26  C   UNL     1      -2.236  11.594  19.371  0.00  0.00    +0.000 A 
ENDBRANCH   6  17
BRANCH   2  27
ATOM     27  N   UNL     1       2.553  12.114  17.484  0.00  0.00    +0.000 N 
ATOM     28  H   UNL     1       3.065  11.426  16.939  0.00  0.00    +0.000 HD
ATOM     29  H   UNL     1       3.086  12.951  17.709  0.00  0.00    +0.000 HD
ENDBRANCH   2  27
BRANCH   1  31
ATOM     30  N   UNL     1       0.059  14.830  18.184  0.00  0.00    +0.000 NA
ATOM     31  C   UNL     1       0.410  13.705  18.634  0.00  0.00    +0.000 C 
ENDBRANCH   1  31
BRANCH   5  32
ATOM     32  C   UNL     1      -0.271   9.592  21.630  0.00  0.00    +0.000 C 
ATOM     33  N   UNL     1      -0.834   9.033  22.477  0.00  0.00    +0.000 NA
ENDBRANCH   5  32
TORSDOF 5
ENDMDL
