MODEL 1
REMARK VINA RESULT:      -7.6      0.000      0.000
REMARK  Name = 
REMARK  4 active torsions:
REMARK  status: ('A' for Active; 'I' for Inactive)
REMARK    1  A    between atoms: C_1  and  N_2
REMARK    2  A    between atoms: C_3  and  O_5
REMARK    3  A    between atoms: O_5  and  C_6
REMARK    4  A    between atoms: C_12  and  C_13
REMARK                            x       y       z     vdW  Elec       q    Type
REMARK                         _______ _______ _______ _____ _____    ______ ____
ROOT
ATOM      1  C   UNL     1       5.931   5.082  17.069  0.00  0.00    +0.000 A 
ATOM      2  C   UNL     1       5.253   6.257  16.776  0.00  0.00    +0.000 A 
ATOM      3  C   UNL     1       4.102   6.545  17.488  0.00  0.00    +0.000 A 
ATOM      4  C   UNL     1       3.639   5.637  18.440  0.00  0.00    +0.000 A 
ATOM      5  C   UNL     1       4.175   4.376  18.649  0.00  0.00    +0.000 A 
ATOM      6  C   UNL     1       5.395   4.143  17.968  0.00  0.00    +0.000 A 
ATOM      7  C   UNL     1       3.273   3.414  19.512  0.00  0.00    +0.000 C 
ATOM      8  C   UNL     1       4.482   2.423  19.839  0.00  0.00    +0.000 C 
ATOM      9  C   UNL     1       2.444   2.664  20.684  0.00  0.00    +0.000 C 
ATOM     10  C   UNL     1       1.228   3.345  21.253  0.00  0.00    +0.000 C 
ATOM     11  N   UNL     1       1.237   4.578  20.558  0.00  0.00    +0.000 NA
ATOM     12  C   UNL     1       2.630   4.797  20.195  0.00  0.00    +0.000 C 
ATOM     13  N   UNL     1       2.569   5.921  19.273  0.00  0.00    +0.000 N 
ATOM     14  H   UNL     1       0.927   5.351  21.139  0.00  0.00    +0.000 HD
ATOM     15  H   UNL     1       1.699   5.855  18.747  0.00  0.00    +0.000 HD
ENDROOT
BRANCH   1  16
ATOM     16  O   UNL     1       7.097   4.694  16.378  0.00  0.00    +0.000 OA
BRANCH  16  19
ATOM     17  C   UNL     1       5.979   3.658  13.123  0.00  0.00    +0.000 C 
ATOM     18  N   UNL     1       6.367   3.696  14.506  0.00  0.00    +0.000 N 
ATOM     19  C   UNL     1       7.128   4.725  14.991  0.00  0.00    +0.000 C 
ATOM     20  O   UNL     1       7.693   5.555  14.295  0.00  0.00    +0.000 OA
ATOM     21  H   UNL     1       5.839   3.181  15.195  0.00  0.00    +0.000 HD
ENDBRANCH  16  19
ENDBRANCH   1  16
TORSDOF 2
ENDMDL
MODEL 2
REMARK VINA RESULT:      -7.5      2.563      3.484
REMARK  Name = 
REMARK  4 active torsions:
REMARK  status: ('A' for Active; 'I' for Inactive)
REMARK    1  A    between atoms: C_1  and  N_2
REMARK    2  A    between atoms: C_3  and  O_5
REMARK    3  A    between atoms: O_5  and  C_6
REMARK    4  A    between atoms: C_12  and  C_13
REMARK                            x       y       z     vdW  Elec       q    Type
REMARK                         _______ _______ _______ _____ _____    ______ ____
ROOT
ATOM      1  C   UNL     1       5.586   6.145  16.715  0.00  0.00    +0.000 A 
ATOM      2  C   UNL     1       5.766   4.976  15.990  0.00  0.00    +0.000 A 
ATOM      3  C   UNL     1       4.888   3.929  16.204  0.00  0.00    +0.000 A 
ATOM      4  C   UNL     1       3.883   4.061  17.163  0.00  0.00    +0.000 A 
ATOM      5  C   UNL     1       3.765   5.133  18.034  0.00  0.00    +0.000 A 
ATOM      6  C   UNL     1       4.624   6.220  17.737  0.00  0.00    +0.000 A 
ATOM      7  C   UNL     1       2.784   4.891  19.243  0.00  0.00    +0.000 C 
ATOM      8  C   UNL     1       2.649   6.449  19.565  0.00  0.00    +0.000 C 
ATOM      9  C   UNL     1       1.505   4.661  20.211  0.00  0.00    +0.000 C 
ATOM     10  C   UNL     1       0.756   3.359  20.113  0.00  0.00    +0.000 C 
ATOM     11  N   UNL     1       1.435   2.714  19.052  0.00  0.00    +0.000 NA
ATOM     12  C   UNL     1       2.003   3.793  18.255  0.00  0.00    +0.000 C 
ATOM     13  N   UNL     1       2.897   3.104  17.337  0.00  0.00    +0.000 N 
ATOM     14  H   UNL     1       0.809   2.171  18.467  0.00  0.00    +0.000 HD
ATOM     15  H   UNL     1       3.287   2.295  17.819  0.00  0.00    +0.000 HD
ENDROOT
BRANCH   1  16
ATOM     16  O   UNL     1       6.448   7.253  16.582  0.00  0.00    +0.000 OA
BRANCH  16  19
ATOM     17  C   UNL     1       8.637   9.368  18.493  0.00  0.00    +0.000 C 
ATOM     18  N   UNL     1       7.836   8.786  17.452  0.00  0.00    +0.000 N 
ATOM     19  C   UNL     1       7.447   7.475  17.518  0.00  0.00    +0.000 C 
ATOM     20  O   UNL     1       7.889   6.663  18.315  0.00  0.00    +0.000 OA
ATOM     21  H   UNL     1       7.281   9.376  16.849  0.00  0.00    +0.000 HD
ENDBRANCH  16  19
ENDBRANCH   1  16
TORSDOF 2
ENDMDL
MODEL 3
REMARK VINA RESULT:      -7.4      2.942      3.957
REMARK  Name = 
REMARK  4 active torsions:
REMARK  status: ('A' for Active; 'I' for Inactive)
REMARK    1  A    between atoms: C_1  and  N_2
REMARK    2  A    between atoms: C_3  and  O_5
REMARK    3  A    between atoms: O_5  and  C_6
REMARK    4  A    between atoms: C_12  and  C_13
REMARK                            x       y       z     vdW  Elec       q    Type
REMARK                         _______ _______ _______ _____ _____    ______ ____
ROOT
ATOM      1  C   UNL     1       6.200   6.333  16.849  0.00  0.00    +0.000 A 
ATOM      2  C   UNL     1       6.889   5.214  16.405  0.00  0.00    +0.000 A 
ATOM      3  C   UNL     1       6.241   3.992  16.428  0.00  0.00    +0.000 A 
ATOM      4  C   UNL     1       4.942   3.913  16.932  0.00  0.00    +0.000 A 
ATOM      5  C   UNL     1       4.274   4.961  17.547  0.00  0.00    +0.000 A 
ATOM      6  C   UNL     1       4.927   6.213  17.435  0.00  0.00    +0.000 A 
ATOM      7  C   UNL     1       2.981   4.536  18.341  0.00  0.00    +0.000 C 
ATOM      8  C   UNL     1       2.404   6.025  18.377  0.00  0.00    +0.000 C 
ATOM      9  C   UNL     1       1.510   4.039  18.804  0.00  0.00    +0.000 C 
ATOM     10  C   UNL     1       1.152   2.589  18.620  0.00  0.00    +0.000 C 
ATOM     11  N   UNL     1       2.307   2.086  17.975  0.00  0.00    +0.000 NA
ATOM     12  C   UNL     1       2.892   3.235  17.297  0.00  0.00    +0.000 C 
ATOM     13  N   UNL     1       4.194   2.750  16.867  0.00  0.00    +0.000 N 
ATOM     14  H   UNL     1       2.085   1.378  17.283  0.00  0.00    +0.000 HD
ATOM     15  H   UNL     1       4.532   2.086  17.562  0.00  0.00    +0.000 HD
ENDROOT
BRANCH   1  16
ATOM     16  O   UNL     1       6.788   7.614  16.886  0.00  0.00    +0.000 OA
BRANCH  16  19
ATOM     17  C   UNL     1       8.898   9.864  18.733  0.00  0.00    +0.000 C 
ATOM     18  N   UNL     1       8.122   9.220  17.708  0.00  0.00    +0.000 N 
ATOM     19  C   UNL     1       7.775   7.901  17.818  0.00  0.00    +0.000 C 
ATOM     20  O   UNL     1       8.240   7.131  18.645  0.00  0.00    +0.000 OA
ATOM     21  H   UNL     1       7.551   9.771  17.084  0.00  0.00    +0.000 HD
ENDBRANCH  16  19
ENDBRANCH   1  16
TORSDOF 2
ENDMDL
MODEL 4
REMARK VINA RESULT:      -7.4      1.519      2.009
REMARK  Name = 
REMARK  4 active torsions:
REMARK  status: ('A' for Active; 'I' for Inactive)
REMARK    1  A    between atoms: C_1  and  N_2
REMARK    2  A    between atoms: C_3  and  O_5
REMARK    3  A    between atoms: O_5  and  C_6
REMARK    4  A    between atoms: C_12  and  C_13
REMARK                            x       y       z     vdW  Elec       q    Type
REMARK                         _______ _______ _______ _____ _____    ______ ____
ROOT
ATOM      1  C   UNL     1       5.561   5.078  16.571  0.00  0.00    +0.000 A 
ATOM      2  C   UNL     1       6.603   4.876  17.463  0.00  0.00    +0.000 A 
ATOM      3  C   UNL     1       6.319   4.289  18.683  0.00  0.00    +0.000 A 
ATOM      4  C   UNL     1       4.999   3.960  18.995  0.00  0.00    +0.000 A 
ATOM      5  C   UNL     1       3.901   4.297  18.218  0.00  0.00    +0.000 A 
ATOM      6  C   UNL     1       4.230   4.821  16.944  0.00  0.00    +0.000 A 
ATOM      7  C   UNL     1       2.511   4.136  18.943  0.00  0.00    +0.000 C 
ATOM      8  C   UNL     1       1.692   4.144  17.572  0.00  0.00    +0.000 C 
ATOM      9  C   UNL     1       1.161   3.594  19.656  0.00  0.00    +0.000 C 
ATOM     10  C   UNL     1       1.272   2.956  21.014  0.00  0.00    +0.000 C 
ATOM     11  N   UNL     1       2.671   2.973  21.227  0.00  0.00    +0.000 NA
ATOM     12  C   UNL     1       3.257   2.982  19.894  0.00  0.00    +0.000 C 
ATOM     13  N   UNL     1       4.664   3.259  20.141  0.00  0.00    +0.000 N 
ATOM     14  H   UNL     1       2.997   2.149  21.721  0.00  0.00    +0.000 HD
ATOM     15  H   UNL     1       4.729   3.874  20.951  0.00  0.00    +0.000 HD
ENDROOT
BRANCH   1  16
ATOM     16  O   UNL     1       5.752   5.692  15.316  0.00  0.00    +0.000 OA
BRANCH  16  19
ATOM     17  C   UNL     1       6.346   3.490  12.537  0.00  0.00    +0.000 C 
ATOM     18  N   UNL     1       5.866   4.085  13.754  0.00  0.00    +0.000 N 
ATOM     19  C   UNL     1       6.564   5.092  14.364  0.00  0.00    +0.000 C 
ATOM     20  O   UNL     1       7.701   5.424  14.065  0.00  0.00    +0.000 OA
ATOM     21  H   UNL     1       4.889   4.022  13.998  0.00  0.00    +0.000 HD
ENDBRANCH  16  19
ENDBRANCH   1  16
TORSDOF 2
ENDMDL
MODEL 5
REMARK VINA RESULT:      -7.4      1.273      1.380
REMARK  Name = 
REMARK  4 active torsions:
REMARK  status: ('A' for Active; 'I' for Inactive)
REMARK    1  A    between atoms: C_1  and  N_2
REMARK    2  A    between atoms: C_3  and  O_5
REMARK    3  A    between atoms: O_5  and  C_6
REMARK    4  A    between atoms: C_12  and  C_13
REMARK                            x       y       z     vdW  Elec       q    Type
REMARK                         _______ _______ _______ _____ _____    ______ ____
ROOT
ATOM      1  C   UNL     1       4.971   4.959  16.165  0.00  0.00    +0.000 A 
ATOM      2  C   UNL     1       4.931   6.267  16.626  0.00  0.00    +0.000 A 
ATOM      3  C   UNL     1       4.321   6.515  17.843  0.00  0.00    +0.000 A 
ATOM      4  C   UNL     1       3.732   5.461  18.542  0.00  0.00    +0.000 A 
ATOM      5  C   UNL     1       3.590   4.173  18.049  0.00  0.00    +0.000 A 
ATOM      6  C   UNL     1       4.294   3.932  16.844  0.00  0.00    +0.000 A 
ATOM      7  C   UNL     1       2.590   3.267  18.863  0.00  0.00    +0.000 C 
ATOM      8  C   UNL     1       3.168   1.914  18.242  0.00  0.00    +0.000 C 
ATOM      9  C   UNL     1       1.840   2.347  19.966  0.00  0.00    +0.000 C 
ATOM     10  C   UNL     1       1.338   3.002  21.224  0.00  0.00    +0.000 C 
ATOM     11  N   UNL     1       1.785   4.334  21.055  0.00  0.00    +0.000 NA
ATOM     12  C   UNL     1       2.943   4.235  20.178  0.00  0.00    +0.000 C 
ATOM     13  N   UNL     1       3.218   5.618  19.819  0.00  0.00    +0.000 N 
ATOM     14  H   UNL     1       2.074   4.758  21.931  0.00  0.00    +0.000 HD
ATOM     15  H   UNL     1       2.331   6.117  19.772  0.00  0.00    +0.000 HD
ENDROOT
BRANCH   1  16
ATOM     16  O   UNL     1       5.549   4.616  14.925  0.00  0.00    +0.000 OA
BRANCH  16  19
ATOM     17  C   UNL     1       8.393   5.636  12.978  0.00  0.00    +0.000 C 
ATOM     18  N   UNL     1       7.125   5.115  13.407  0.00  0.00    +0.000 N 
ATOM     19  C   UNL     1       6.910   4.788  14.719  0.00  0.00    +0.000 C 
ATOM     20  O   UNL     1       7.788   4.714  15.565  0.00  0.00    +0.000 OA
ATOM     21  H   UNL     1       6.294   5.287  12.860  0.00  0.00    +0.000 HD
ENDBRANCH  16  19
ENDBRANCH   1  16
TORSDOF 2
ENDMDL
MODEL 6
REMARK VINA RESULT:      -7.3      1.269      1.297
REMARK  Name = 
REMARK  4 active torsions:
REMARK  status: ('A' for Active; 'I' for Inactive)
REMARK    1  A    between atoms: C_1  and  N_2
REMARK    2  A    between atoms: C_3  and  O_5
REMARK    3  A    between atoms: O_5  and  C_6
REMARK    4  A    between atoms: C_12  and  C_13
REMARK                            x       y       z     vdW  Elec       q    Type
REMARK                         _______ _______ _______ _____ _____    ______ ____
ROOT
ATOM      1  C   UNL     1       6.269   4.462  16.756  0.00  0.00    +0.000 A 
ATOM      2  C   UNL     1       6.572   5.655  17.396  0.00  0.00    +0.000 A 
ATOM      3  C   UNL     1       5.748   6.076  18.424  0.00  0.00    +0.000 A 
ATOM      4  C   UNL     1       4.624   5.319  18.756  0.00  0.00    +0.000 A 
ATOM      5  C   UNL     1       4.179   4.219  18.040  0.00  0.00    +0.000 A 
ATOM      6  C   UNL     1       5.084   3.766  17.048  0.00  0.00    +0.000 A 
ATOM      7  C   UNL     1       2.714   3.756  18.392  0.00  0.00    +0.000 C 
ATOM      8  C   UNL     1       2.915   2.313  17.739  0.00  0.00    +0.000 C 
ATOM      9  C   UNL     1       1.372   3.170  19.084  0.00  0.00    +0.000 C 
ATOM     10  C   UNL     1       0.779   3.918  20.248  0.00  0.00    +0.000 C 
ATOM     11  N   UNL     1       1.716   4.964  20.426  0.00  0.00    +0.000 NA
ATOM     12  C   UNL     1       2.968   4.445  19.893  0.00  0.00    +0.000 C 
ATOM     13  N   UNL     1       3.832   5.615  19.853  0.00  0.00    +0.000 N 
ATOM     14  H   UNL     1       1.850   5.199  21.404  0.00  0.00    +0.000 HD
ATOM     15  H   UNL     1       3.255   6.430  19.649  0.00  0.00    +0.000 HD
ENDROOT
BRANCH   1  16
ATOM     16  O   UNL     1       7.038   3.969  15.681  0.00  0.00    +0.000 OA
BRANCH  16  19
ATOM     17  C   UNL     1       5.689   3.528  12.378  0.00  0.00    +0.000 C 
ATOM     18  N   UNL     1       6.315   3.327  13.656  0.00  0.00    +0.000 N 
ATOM     19  C   UNL     1       6.774   4.390  14.386  0.00  0.00    +0.000 C 
ATOM     20  O   UNL     1       6.880   5.528  13.956  0.00  0.00    +0.000 OA
ATOM     21  H   UNL     1       6.138   2.482  14.180  0.00  0.00    +0.000 HD
ENDBRANCH  16  19
ENDBRANCH   1  16
TORSDOF 2
ENDMDL
MODEL 7
REMARK VINA RESULT:      -7.1      1.039      1.051
REMARK  Name = 
REMARK  4 active torsions:
REMARK  status: ('A' for Active; 'I' for Inactive)
REMARK    1  A    between atoms: C_1  and  N_2
REMARK    2  A    between atoms: C_3  and  O_5
REMARK    3  A    between atoms: O_5  and  C_6
REMARK    4  A    between atoms: C_12  and  C_13
REMARK                            x       y       z     vdW  Elec       q    Type
REMARK                         _______ _______ _______ _____ _____    ______ ____
ROOT
ATOM      1  C   UNL     1       5.789   5.024  16.772  0.00  0.00    +0.000 A 
ATOM      2  C   UNL     1       5.262   6.304  16.670  0.00  0.00    +0.000 A 
ATOM      3  C   UNL     1       4.203   6.645  17.493  0.00  0.00    +0.000 A 
ATOM      4  C   UNL     1       3.673   5.689  18.360  0.00  0.00    +0.000 A 
ATOM      5  C   UNL     1       4.043   4.354  18.379  0.00  0.00    +0.000 A 
ATOM      6  C   UNL     1       5.180   4.055  17.588  0.00  0.00    +0.000 A 
ATOM      7  C   UNL     1       3.067   3.414  19.183  0.00  0.00    +0.000 C 
ATOM      8  C   UNL     1       4.145   2.242  19.302  0.00  0.00    +0.000 C 
ATOM      9  C   UNL     1       2.209   2.633  20.315  0.00  0.00    +0.000 C 
ATOM     10  C   UNL     1       1.132   3.387  21.047  0.00  0.00    +0.000 C 
ATOM     11  N   UNL     1       1.271   4.688  20.505  0.00  0.00    +0.000 NA
ATOM     12  C   UNL     1       2.658   4.770  20.071  0.00  0.00    +0.000 C 
ATOM     13  N   UNL     1       2.701   6.001  19.296  0.00  0.00    +0.000 N 
ATOM     14  H   UNL     1       1.102   5.413  21.195  0.00  0.00    +0.000 HD
ATOM     15  H   UNL     1       1.801   6.115  18.831  0.00  0.00    +0.000 HD
ENDROOT
BRANCH   1  16
ATOM     16  O   UNL     1       6.850   4.580  15.957  0.00  0.00    +0.000 OA
BRANCH  16  19
ATOM     17  C   UNL     1       7.942   5.411  12.634  0.00  0.00    +0.000 C 
ATOM     18  N   UNL     1       7.652   5.431  14.042  0.00  0.00    +0.000 N 
ATOM     19  C   UNL     1       6.718   4.585  14.576  0.00  0.00    +0.000 C 
ATOM     20  O   UNL     1       5.936   3.915  13.918  0.00  0.00    +0.000 OA
ATOM     21  H   UNL     1       8.327   5.802  14.694  0.00  0.00    +0.000 HD
ENDBRANCH  16  19
ENDBRANCH   1  16
TORSDOF 2
ENDMDL
MODEL 8
REMARK VINA RESULT:      -7.1      0.898      1.069
REMARK  Name = 
REMARK  4 active torsions:
REMARK  status: ('A' for Active; 'I' for Inactive)
REMARK    1  A    between atoms: C_1  and  N_2
REMARK    2  A    between atoms: C_3  and  O_5
REMARK    3  A    between atoms: O_5  and  C_6
REMARK    4  A    between atoms: C_12  and  C_13
REMARK                            x       y       z     vdW  Elec       q    Type
REMARK                         _______ _______ _______ _____ _____    ______ ____
ROOT
ATOM      1  C   UNL     1       5.231   6.331  17.213  0.00  0.00    +0.000 A 
ATOM      2  C   UNL     1       4.285   7.345  17.164  0.00  0.00    +0.000 A 
ATOM      3  C   UNL     1       3.168   7.240  17.973  0.00  0.00    +0.000 A 
ATOM      4  C   UNL     1       3.005   6.110  18.775  0.00  0.00    +0.000 A 
ATOM      5  C   UNL     1       3.825   4.993  18.734  0.00  0.00    +0.000 A 
ATOM      6  C   UNL     1       5.000   5.163  17.961  0.00  0.00    +0.000 A 
ATOM      7  C   UNL     1       3.240   3.724  19.461  0.00  0.00    +0.000 C 
ATOM      8  C   UNL     1       4.663   3.004  19.549  0.00  0.00    +0.000 C 
ATOM      9  C   UNL     1       2.707   2.625  20.527  0.00  0.00    +0.000 C 
ATOM     10  C   UNL     1       1.427   2.905  21.267  0.00  0.00    +0.000 C 
ATOM     11  N   UNL     1       1.099   4.199  20.798  0.00  0.00    +0.000 NA
ATOM     12  C   UNL     1       2.371   4.792  20.407  0.00  0.00    +0.000 C 
ATOM     13  N   UNL     1       1.979   6.002  19.699  0.00  0.00    +0.000 N 
ATOM     14  H   UNL     1       0.679   4.776  21.519  0.00  0.00    +0.000 HD
ATOM     15  H   UNL     1       1.101   5.817  19.215  0.00  0.00    +0.000 HD
ENDROOT
BRANCH   1  16
ATOM     16  O   UNL     1       6.387   6.340  16.406  0.00  0.00    +0.000 OA
BRANCH  16  19
ATOM     17  C   UNL     1       6.274   3.950  13.723  0.00  0.00    +0.000 C 
ATOM     18  N   UNL     1       5.934   4.913  14.735  0.00  0.00    +0.000 N 
ATOM     19  C   UNL     1       6.797   5.181  15.763  0.00  0.00    +0.000 C 
ATOM     20  O   UNL     1       7.790   4.518  16.023  0.00  0.00    +0.000 OA
ATOM     21  H   UNL     1       5.247   5.627  14.545  0.00  0.00    +0.000 HD
ENDBRANCH  16  19
ENDBRANCH   1  16
TORSDOF 2
ENDMDL
MODEL 9
REMARK VINA RESULT:      -6.8      1.657      1.771
REMARK  Name = 
REMARK  4 active torsions:
REMARK  status: ('A' for Active; 'I' for Inactive)
REMARK    1  A    between atoms: C_1  and  N_2
REMARK    2  A    between atoms: C_3  and  O_5
REMARK    3  A    between atoms: O_5  and  C_6
REMARK    4  A    between atoms: C_12  and  C_13
REMARK                            x       y       z     vdW  Elec       q    Type
REMARK                         _______ _______ _______ _____ _____    ______ ____
ROOT
ATOM      1  C   UNL     1       5.639   4.540  15.593  0.00  0.00    +0.000 A 
ATOM      2  C   UNL     1       5.604   5.916  15.769  0.00  0.00    +0.000 A 
ATOM      3  C   UNL     1       4.841   6.426  16.804  0.00  0.00    +0.000 A 
ATOM      4  C   UNL     1       4.102   5.555  17.606  0.00  0.00    +0.000 A 
ATOM      5  C   UNL     1       3.963   4.197  17.368  0.00  0.00    +0.000 A 
ATOM      6  C   UNL     1       4.817   3.693  16.357  0.00  0.00    +0.000 A 
ATOM      7  C   UNL     1       2.810   3.503  18.188  0.00  0.00    +0.000 C 
ATOM      8  C   UNL     1       3.396   2.037  17.948  0.00  0.00    +0.000 C 
ATOM      9  C   UNL     1       1.862   2.852  19.329  0.00  0.00    +0.000 C 
ATOM     10  C   UNL     1       1.221   3.766  20.338  0.00  0.00    +0.000 C 
ATOM     11  N   UNL     1       1.759   5.023  19.972  0.00  0.00    +0.000 NA
ATOM     12  C   UNL     1       3.024   4.716  19.318  0.00  0.00    +0.000 C 
ATOM     13  N   UNL     1       3.421   5.987  18.732  0.00  0.00    +0.000 N 
ATOM     14  H   UNL     1       1.943   5.613  20.777  0.00  0.00    +0.000 HD
ATOM     15  H   UNL     1       2.578   6.486  18.451  0.00  0.00    +0.000 HD
ENDROOT
BRANCH   1  16
ATOM     16  O   UNL     1       6.369   3.933  14.550  0.00  0.00    +0.000 OA
BRANCH  16  19
ATOM     17  C   UNL     1       6.074   2.180  11.426  0.00  0.00    +0.000 C 
ATOM     18  N   UNL     1       6.572   2.855  12.593  0.00  0.00    +0.000 N 
ATOM     19  C   UNL     1       5.754   3.663  13.336  0.00  0.00    +0.000 C 
ATOM     20  O   UNL     1       4.645   4.034  12.985  0.00  0.00    +0.000 OA
ATOM     21  H   UNL     1       7.391   2.507  13.070  0.00  0.00    +0.000 HD
ENDBRANCH  16  19
ENDBRANCH   1  16
TORSDOF 2
ENDMDL
