MODEL 1
REMARK VINA RESULT:      -7.2      0.000      0.000
REMARK  Name = 
REMARK  5 active torsions:
REMARK  status: ('A' for Active; 'I' for Inactive)
REMARK    1  A    between atoms: C_1  and  C_2
REMARK    2  A    between atoms: N_4  and  C_5
REMARK    3  A    between atoms: C_5  and  C_6
REMARK    4  A    between atoms: C_6  and  C_8
REMARK    5  A    between atoms: C_16  and  C_17
REMARK                            x       y       z     vdW  Elec       q    Type
REMARK                         _______ _______ _______ _____ _____    ______ ____
ROOT
ATOM      1  C   UNL     1       4.222   3.375  17.577  0.00  0.00    +0.000 C 
ENDROOT
BRANCH   1   5
ATOM      2  C   UNL     1       6.501   7.150  17.237  0.00  0.00    +0.000 C 
ATOM      3  C   UNL     1       7.164   5.773  17.178  0.00  0.00    +0.000 C 
ATOM      4  C   UNL     1       6.287   4.671  17.806  0.00  0.00    +0.000 C 
ATOM      5  N   UNL     1       5.092   4.399  16.975  0.00  0.00    +0.000 NA
ATOM      6  C   UNL     1       5.553   3.994  15.632  0.00  0.00    +0.000 C 
ATOM      7  C   UNL     1       6.423   5.104  15.001  0.00  0.00    +0.000 C 
ATOM      8  C   UNL     1       6.963   4.666  13.645  0.00  0.00    +0.000 C 
ATOM      9  O   UNL     1       7.548   5.428  15.834  0.00  0.00    +0.000 OA
ENDBRANCH   1   5
BRANCH   1  10
ATOM     10  C   UNL     1       2.778   3.881  17.668  0.00  0.00    +0.000 C 
ATOM     11  O   UNL     1       1.875   3.302  17.068  0.00  0.00    +0.000 OA
BRANCH  10  12
ATOM     12  C   UNL     1       2.487   5.061  18.543  0.00  0.00    +0.000 A 
ATOM     13  C   UNL     1       2.727   6.357  18.050  0.00  0.00    +0.000 A 
ATOM     14  C   UNL     1       2.462   7.487  18.827  0.00  0.00    +0.000 A 
ATOM     15  C   UNL     1       1.960   7.338  20.113  0.00  0.00    +0.000 A 
ATOM     16  C   UNL     1       1.733   6.060  20.624  0.00  0.00    +0.000 A 
ATOM     17  C   UNL     1       1.998   4.920  19.851  0.00  0.00    +0.000 A 
ATOM     18 CL   UNL     1       1.640   3.400  20.591  0.00  0.00    +0.000 Cl
ENDBRANCH  10  12
ENDBRANCH   1  10
TORSDOF 3
ENDMDL
MODEL 2
REMARK VINA RESULT:      -7.0      1.499      2.194
REMARK  Name = 
REMARK  5 active torsions:
REMARK  status: ('A' for Active; 'I' for Inactive)
REMARK    1  A    between atoms: C_1  and  C_2
REMARK    2  A    between atoms: N_4  and  C_5
REMARK    3  A    between atoms: C_5  and  C_6
REMARK    4  A    between atoms: C_6  and  C_8
REMARK    5  A    between atoms: C_16  and  C_17
REMARK                            x       y       z     vdW  Elec       q    Type
REMARK                         _______ _______ _______ _____ _____    ______ ____
ROOT
ATOM      1  C   UNL     1       4.517   2.981  17.301  0.00  0.00    +0.000 C 
ENDROOT
BRANCH   1   5
ATOM      2  C   UNL     1       6.176   7.078  17.138  0.00  0.00    +0.000 C 
ATOM      3  C   UNL     1       7.052   5.825  17.074  0.00  0.00    +0.000 C 
ATOM      4  C   UNL     1       6.340   4.580  17.641  0.00  0.00    +0.000 C 
ATOM      5  N   UNL     1       5.234   4.147  16.757  0.00  0.00    +0.000 NA
ATOM      6  C   UNL     1       5.802   3.859  15.425  0.00  0.00    +0.000 C 
ATOM      7  C   UNL     1       6.505   5.110  14.854  0.00  0.00    +0.000 C 
ATOM      8  C   UNL     1       7.156   4.802  13.511  0.00  0.00    +0.000 C 
ATOM      9  O   UNL     1       7.533   5.584  15.739  0.00  0.00    +0.000 OA
ENDBRANCH   1   5
BRANCH   1  10
ATOM     10  C   UNL     1       3.050   3.329  17.570  0.00  0.00    +0.000 C 
ATOM     11  O   UNL     1       2.257   3.456  16.640  0.00  0.00    +0.000 OA
BRANCH  10  12
ATOM     12  C   UNL     1       2.594   3.456  18.991  0.00  0.00    +0.000 A 
ATOM     13  C   UNL     1       2.069   2.326  19.648  0.00  0.00    +0.000 A 
ATOM     14  C   UNL     1       1.640   2.395  20.975  0.00  0.00    +0.000 A 
ATOM     15  C   UNL     1       1.723   3.596  21.665  0.00  0.00    +0.000 A 
ATOM     16  C   UNL     1       2.224   4.730  21.025  0.00  0.00    +0.000 A 
ATOM     17  C   UNL     1       2.655   4.670  19.692  0.00  0.00    +0.000 A 
ATOM     18 CL   UNL     1       3.286   6.137  19.031  0.00  0.00    +0.000 Cl
ENDBRANCH  10  12
ENDBRANCH   1  10
TORSDOF 3
ENDMDL
MODEL 3
REMARK VINA RESULT:      -6.7      2.171      3.259
REMARK  Name = 
REMARK  5 active torsions:
REMARK  status: ('A' for Active; 'I' for Inactive)
REMARK    1  A    between atoms: C_1  and  C_2
REMARK    2  A    between atoms: N_4  and  C_5
REMARK    3  A    between atoms: C_5  and  C_6
REMARK    4  A    between atoms: C_6  and  C_8
REMARK    5  A    between atoms: C_16  and  C_17
REMARK                            x       y       z     vdW  Elec       q    Type
REMARK                         _______ _______ _______ _____ _____    ______ ____
ROOT
ATOM      1  C   UNL     1       5.462   4.024  19.020  0.00  0.00    +0.000 C 
ENDROOT
BRANCH   1   5
ATOM      2  C   UNL     1       5.978   5.334  14.827  0.00  0.00    +0.000 C 
ATOM      3  C   UNL     1       5.280   6.192  15.884  0.00  0.00    +0.000 C 
ATOM      4  C   UNL     1       4.782   5.358  17.083  0.00  0.00    +0.000 C 
ATOM      5  N   UNL     1       5.915   4.854  17.891  0.00  0.00    +0.000 NA
ATOM      6  C   UNL     1       6.697   6.017  18.356  0.00  0.00    +0.000 C 
ATOM      7  C   UNL     1       7.203   6.844  17.153  0.00  0.00    +0.000 C 
ATOM      8  C   UNL     1       7.950   8.086  17.624  0.00  0.00    +0.000 C 
ATOM      9  O   UNL     1       6.116   7.279  16.320  0.00  0.00    +0.000 OA
ENDBRANCH   1   5
BRANCH   1  10
ATOM     10  C   UNL     1       4.244   3.187  18.617  0.00  0.00    +0.000 C 
ATOM     11  O   UNL     1       4.245   2.547  17.568  0.00  0.00    +0.000 OA
BRANCH  10  12
ATOM     12  C   UNL     1       3.078   3.123  19.555  0.00  0.00    +0.000 A 
ATOM     13  C   UNL     1       3.259   2.576  20.840  0.00  0.00    +0.000 A 
ATOM     14  C   UNL     1       2.203   2.504  21.751  0.00  0.00    +0.000 A 
ATOM     15  C   UNL     1       0.947   2.972  21.390  0.00  0.00    +0.000 A 
ATOM     16  C   UNL     1       0.745   3.501  20.115  0.00  0.00    +0.000 A 
ATOM     17  C   UNL     1       1.800   3.575  19.193  0.00  0.00    +0.000 A 
ATOM     18 CL   UNL     1       1.422   4.284  17.663  0.00  0.00    +0.000 Cl
ENDBRANCH  10  12
ENDBRANCH   1  10
TORSDOF 3
ENDMDL
MODEL 4
REMARK VINA RESULT:      -6.7      0.741      1.945
REMARK  Name = 
REMARK  5 active torsions:
REMARK  status: ('A' for Active; 'I' for Inactive)
REMARK    1  A    between atoms: C_1  and  C_2
REMARK    2  A    between atoms: N_4  and  C_5
REMARK    3  A    between atoms: C_5  and  C_6
REMARK    4  A    between atoms: C_6  and  C_8
REMARK    5  A    between atoms: C_16  and  C_17
REMARK                            x       y       z     vdW  Elec       q    Type
REMARK                         _______ _______ _______ _____ _____    ______ ____
ROOT
ATOM      1  C   UNL     1       4.157   3.362  18.220  0.00  0.00    +0.000 C 
ENDROOT
BRANCH   1   5
ATOM      2  C   UNL     1       6.672   4.232  14.686  0.00  0.00    +0.000 C 
ATOM      3  C   UNL     1       5.778   5.283  15.348  0.00  0.00    +0.000 C 
ATOM      4  C   UNL     1       4.658   4.650  16.199  0.00  0.00    +0.000 C 
ATOM      5  N   UNL     1       5.207   4.004  17.412  0.00  0.00    +0.000 NA
ATOM      6  C   UNL     1       5.933   5.031  18.186  0.00  0.00    +0.000 C 
ATOM      7  C   UNL     1       7.061   5.655  17.335  0.00  0.00    +0.000 C 
ATOM      8  C   UNL     1       7.769   6.765  18.102  0.00  0.00    +0.000 C 
ATOM      9  O   UNL     1       6.548   6.222  16.119  0.00  0.00    +0.000 OA
ENDBRANCH   1   5
BRANCH   1  10
ATOM     10  C   UNL     1       2.803   4.037  17.976  0.00  0.00    +0.000 C 
ATOM     11  O   UNL     1       2.005   3.562  17.171  0.00  0.00    +0.000 OA
BRANCH  10  12
ATOM     12  C   UNL     1       2.456   5.253  18.778  0.00  0.00    +0.000 A 
ATOM     13  C   UNL     1       2.634   6.527  18.206  0.00  0.00    +0.000 A 
ATOM     14  C   UNL     1       2.316   7.688  18.914  0.00  0.00    +0.000 A 
ATOM     15  C   UNL     1       1.819   7.595  20.206  0.00  0.00    +0.000 A 
ATOM     16  C   UNL     1       1.652   6.341  20.795  0.00  0.00    +0.000 A 
ATOM     17  C   UNL     1       1.971   5.170  20.092  0.00  0.00    +0.000 A 
ATOM     18 CL   UNL     1       1.684   3.683  20.925  0.00  0.00    +0.000 Cl
ENDBRANCH  10  12
ENDBRANCH   1  10
TORSDOF 3
ENDMDL
MODEL 5
REMARK VINA RESULT:      -6.7      2.585      5.814
REMARK  Name = 
REMARK  5 active torsions:
REMARK  status: ('A' for Active; 'I' for Inactive)
REMARK    1  A    between atoms: C_1  and  C_2
REMARK    2  A    between atoms: N_4  and  C_5
REMARK    3  A    between atoms: C_5  and  C_6
REMARK    4  A    between atoms: C_6  and  C_8
REMARK    5  A    between atoms: C_16  and  C_17
REMARK                            x       y       z     vdW  Elec       q    Type
REMARK                         _______ _______ _______ _____ _____    ______ ____
ROOT
ATOM      1  C   UNL     1       5.410   3.386  19.388  0.00  0.00    +0.000 C 
ENDROOT
BRANCH   1   5
ATOM      2  C   UNL     1       1.409   4.185  17.679  0.00  0.00    +0.000 C 
ATOM      3  C   UNL     1       1.851   2.795  18.142  0.00  0.00    +0.000 C 
ATOM      4  C   UNL     1       3.386   2.661  18.216  0.00  0.00    +0.000 C 
ATOM      5  N   UNL     1       3.941   3.472  19.323  0.00  0.00    +0.000 NA
ATOM      6  C   UNL     1       3.317   3.014  20.581  0.00  0.00    +0.000 C 
ATOM      7  C   UNL     1       1.781   3.159  20.508  0.00  0.00    +0.000 C 
ATOM      8  C   UNL     1       1.124   2.622  21.773  0.00  0.00    +0.000 C 
ATOM      9  O   UNL     1       1.238   2.434  19.392  0.00  0.00    +0.000 OA
ENDBRANCH   1   5
BRANCH   1  10
ATOM     10  C   UNL     1       6.047   4.694  18.907  0.00  0.00    +0.000 C 
ATOM     11  O   UNL     1       6.593   5.453  19.704  0.00  0.00    +0.000 OA
BRANCH  10  12
ATOM     12  C   UNL     1       6.035   4.998  17.440  0.00  0.00    +0.000 A 
ATOM     13  C   UNL     1       6.966   4.359  16.599  0.00  0.00    +0.000 A 
ATOM     14  C   UNL     1       6.987   4.605  15.224  0.00  0.00    +0.000 A 
ATOM     15  C   UNL     1       6.081   5.499  14.669  0.00  0.00    +0.000 A 
ATOM     16  C   UNL     1       5.162   6.154  15.491  0.00  0.00    +0.000 A 
ATOM     17  C   UNL     1       5.136   5.914  16.872  0.00  0.00    +0.000 A 
ATOM     18 CL   UNL     1       3.927   6.764  17.768  0.00  0.00    +0.000 Cl
ENDBRANCH  10  12
ENDBRANCH   1  10
TORSDOF 3
ENDMDL
MODEL 6
REMARK VINA RESULT:      -6.6      2.083      2.905
REMARK  Name = 
REMARK  5 active torsions:
REMARK  status: ('A' for Active; 'I' for Inactive)
REMARK    1  A    between atoms: C_1  and  C_2
REMARK    2  A    between atoms: N_4  and  C_5
REMARK    3  A    between atoms: C_5  and  C_6
REMARK    4  A    between atoms: C_6  and  C_8
REMARK    5  A    between atoms: C_16  and  C_17
REMARK                            x       y       z     vdW  Elec       q    Type
REMARK                         _______ _______ _______ _____ _____    ______ ____
ROOT
ATOM      1  C   UNL     1       5.004   5.135  19.583  0.00  0.00    +0.000 C 
ENDROOT
BRANCH   1   5
ATOM      2  C   UNL     1       7.420   8.123  17.394  0.00  0.00    +0.000 C 
ATOM      3  C   UNL     1       7.766   6.633  17.417  0.00  0.00    +0.000 C 
ATOM      4  C   UNL     1       7.116   5.897  18.607  0.00  0.00    +0.000 C 
ATOM      5  N   UNL     1       5.648   5.802  18.439  0.00  0.00    +0.000 NA
ATOM      6  C   UNL     1       5.379   5.087  17.176  0.00  0.00    +0.000 C 
ATOM      7  C   UNL     1       6.022   5.831  15.985  0.00  0.00    +0.000 C 
ATOM      8  C   UNL     1       5.811   5.063  14.686  0.00  0.00    +0.000 C 
ATOM      9  O   UNL     1       7.437   5.995  16.170  0.00  0.00    +0.000 OA
ENDBRANCH   1   5
BRANCH   1  10
ATOM     10  C   UNL     1       3.517   5.499  19.652  0.00  0.00    +0.000 C 
ATOM     11  O   UNL     1       3.141   6.638  19.383  0.00  0.00    +0.000 OA
BRANCH  10  12
ATOM     12  C   UNL     1       2.533   4.425  19.999  0.00  0.00    +0.000 A 
ATOM     13  C   UNL     1       2.502   3.920  21.313  0.00  0.00    +0.000 A 
ATOM     14  C   UNL     1       1.596   2.925  21.685  0.00  0.00    +0.000 A 
ATOM     15  C   UNL     1       0.709   2.414  20.747  0.00  0.00    +0.000 A 
ATOM     16  C   UNL     1       0.737   2.891  19.436  0.00  0.00    +0.000 A 
ATOM     17  C   UNL     1       1.646   3.888  19.054  0.00  0.00    +0.000 A 
ATOM     18 CL   UNL     1       1.551   4.412  17.410  0.00  0.00    +0.000 Cl
ENDBRANCH  10  12
ENDBRANCH   1  10
TORSDOF 3
ENDMDL
MODEL 7
REMARK VINA RESULT:      -6.6      1.332      1.394
REMARK  Name = 
REMARK  5 active torsions:
REMARK  status: ('A' for Active; 'I' for Inactive)
REMARK    1  A    between atoms: C_1  and  C_2
REMARK    2  A    between atoms: N_4  and  C_5
REMARK    3  A    between atoms: C_5  and  C_6
REMARK    4  A    between atoms: C_6  and  C_8
REMARK    5  A    between atoms: C_16  and  C_17
REMARK                            x       y       z     vdW  Elec       q    Type
REMARK                         _______ _______ _______ _____ _____    ______ ____
ROOT
ATOM      1  C   UNL     1       4.486   3.170  17.558  0.00  0.00    +0.000 C 
ENDROOT
BRANCH   1   5
ATOM      2  C   UNL     1       6.523   7.083  17.234  0.00  0.00    +0.000 C 
ATOM      3  C   UNL     1       7.261   5.750  17.097  0.00  0.00    +0.000 C 
ATOM      4  C   UNL     1       6.481   4.579  17.730  0.00  0.00    +0.000 C 
ATOM      5  N   UNL     1       5.264   4.262  16.949  0.00  0.00    +0.000 NA
ATOM      6  C   UNL     1       5.681   3.926  15.573  0.00  0.00    +0.000 C 
ATOM      7  C   UNL     1       6.452   5.105  14.937  0.00  0.00    +0.000 C 
ATOM      8  C   UNL     1       6.948   4.741  13.543  0.00  0.00    +0.000 C 
ATOM      9  O   UNL     1       7.596   5.470  15.726  0.00  0.00    +0.000 OA
ENDBRANCH   1   5
BRANCH   1  10
ATOM     10  C   UNL     1       4.349   3.385  19.068  0.00  0.00    +0.000 C 
ATOM     11  O   UNL     1       5.086   2.793  19.853  0.00  0.00    +0.000 OA
BRANCH  10  12
ATOM     12  C   UNL     1       3.335   4.371  19.561  0.00  0.00    +0.000 A 
ATOM     13  C   UNL     1       3.553   5.745  19.347  0.00  0.00    +0.000 A 
ATOM     14  C   UNL     1       2.631   6.700  19.781  0.00  0.00    +0.000 A 
ATOM     15  C   UNL     1       1.479   6.297  20.442  0.00  0.00    +0.000 A 
ATOM     16  C   UNL     1       1.255   4.940  20.678  0.00  0.00    +0.000 A 
ATOM     17  C   UNL     1       2.177   3.975  20.247  0.00  0.00    +0.000 A 
ATOM     18 CL   UNL     1       1.761   2.330  20.573  0.00  0.00    +0.000 Cl
ENDBRANCH  10  12
ENDBRANCH   1  10
TORSDOF 3
ENDMDL
MODEL 8
REMARK VINA RESULT:      -6.6      2.302      5.319
REMARK  Name = 
REMARK  5 active torsions:
REMARK  status: ('A' for Active; 'I' for Inactive)
REMARK    1  A    between atoms: C_1  and  C_2
REMARK    2  A    between atoms: N_4  and  C_5
REMARK    3  A    between atoms: C_5  and  C_6
REMARK    4  A    between atoms: C_6  and  C_8
REMARK    5  A    between atoms: C_16  and  C_17
REMARK                            x       y       z     vdW  Elec       q    Type
REMARK                         _______ _______ _______ _____ _____    ______ ____
ROOT
ATOM      1  C   UNL     1       4.651   3.002  16.988  0.00  0.00    +0.000 C 
ENDROOT
BRANCH   1   5
ATOM      2  C   UNL     1       2.998   6.645  18.875  0.00  0.00    +0.000 C 
ATOM      3  C   UNL     1       2.139   5.428  18.529  0.00  0.00    +0.000 C 
ATOM      4  C   UNL     1       2.796   4.529  17.461  0.00  0.00    +0.000 C 
ATOM      5  N   UNL     1       3.987   3.837  18.003  0.00  0.00    +0.000 NA
ATOM      6  C   UNL     1       3.558   3.035  19.166  0.00  0.00    +0.000 C 
ATOM      7  C   UNL     1       2.910   3.938  20.239  0.00  0.00    +0.000 C 
ATOM      8  C   UNL     1       2.399   3.110  21.411  0.00  0.00    +0.000 C 
ATOM      9  O   UNL     1       1.796   4.671  19.704  0.00  0.00    +0.000 OA
ENDBRANCH   1   5
BRANCH   1  10
ATOM     10  C   UNL     1       5.721   3.808  16.245  0.00  0.00    +0.000 C 
ATOM     11  O   UNL     1       5.975   3.570  15.066  0.00  0.00    +0.000 OA
BRANCH  10  12
ATOM     12  C   UNL     1       6.409   4.923  16.970  0.00  0.00    +0.000 A 
ATOM     13  C   UNL     1       7.356   4.614  17.965  0.00  0.00    +0.000 A 
ATOM     14  C   UNL     1       8.029   5.621  18.661  0.00  0.00    +0.000 A 
ATOM     15  C   UNL     1       7.760   6.953  18.379  0.00  0.00    +0.000 A 
ATOM     16  C   UNL     1       6.811   7.278  17.408  0.00  0.00    +0.000 A 
ATOM     17  C   UNL     1       6.130   6.273  16.706  0.00  0.00    +0.000 A 
ATOM     18 CL   UNL     1       5.008   6.812  15.508  0.00  0.00    +0.000 Cl
ENDBRANCH  10  12
ENDBRANCH   1  10
TORSDOF 3
ENDMDL
MODEL 9
REMARK VINA RESULT:      -6.6      2.799      5.841
REMARK  Name = 
REMARK  5 active torsions:
REMARK  status: ('A' for Active; 'I' for Inactive)
REMARK    1  A    between atoms: C_1  and  C_2
REMARK    2  A    between atoms: N_4  and  C_5
REMARK    3  A    between atoms: C_5  and  C_6
REMARK    4  A    between atoms: C_6  and  C_8
REMARK    5  A    between atoms: C_16  and  C_17
REMARK                            x       y       z     vdW  Elec       q    Type
REMARK                         _______ _______ _______ _____ _____    ______ ____
ROOT
ATOM      1  C   UNL     1       4.283   5.936  19.179  0.00  0.00    +0.000 C 
ENDROOT
BRANCH   1   5
ATOM      2  C   UNL     1       3.485   1.741  18.026  0.00  0.00    +0.000 C 
ATOM      3  C   UNL     1       4.094   2.129  19.375  0.00  0.00    +0.000 C 
ATOM      4  C   UNL     1       4.729   3.534  19.350  0.00  0.00    +0.000 C 
ATOM      5  N   UNL     1       3.694   4.587  19.241  0.00  0.00    +0.000 NA
ATOM      6  C   UNL     1       2.780   4.449  20.393  0.00  0.00    +0.000 C 
ATOM      7  C   UNL     1       2.137   3.045  20.409  0.00  0.00    +0.000 C 
ATOM      8  C   UNL     1       1.248   2.868  21.633  0.00  0.00    +0.000 C 
ATOM      9  O   UNL     1       3.135   2.011  20.441  0.00  0.00    +0.000 OA
ENDBRANCH   1   5
BRANCH   1  10
ATOM     10  C   UNL     1       4.326   6.438  17.732  0.00  0.00    +0.000 C 
ATOM     11  O   UNL     1       3.675   7.424  17.394  0.00  0.00    +0.000 OA
BRANCH  10  12
ATOM     12  C   UNL     1       5.218   5.734  16.757  0.00  0.00    +0.000 A 
ATOM     13  C   UNL     1       4.662   4.784  15.879  0.00  0.00    +0.000 A 
ATOM     14  C   UNL     1       5.454   4.109  14.947  0.00  0.00    +0.000 A 
ATOM     15  C   UNL     1       6.816   4.369  14.882  0.00  0.00    +0.000 A 
ATOM     16  C   UNL     1       7.387   5.295  15.756  0.00  0.00    +0.000 A 
ATOM     17  C   UNL     1       6.599   5.975  16.696  0.00  0.00    +0.000 A 
ATOM     18 CL   UNL     1       7.426   7.119  17.694  0.00  0.00    +0.000 Cl
ENDBRANCH  10  12
ENDBRANCH   1  10
TORSDOF 3
ENDMDL
