MODEL 1
REMARK VINA RESULT:      -7.0      0.000      0.000
REMARK  Name = 
REMARK  17 active torsions:
REMARK  status: ('A' for Active; 'I' for Inactive)
REMARK    1  A    between atoms: C_1  and  O_2
REMARK    2  A    between atoms: O_2  and  C_3
REMARK    3  A    between atoms: C_6  and  C_7
REMARK    4  A    between atoms: C_7  and  N_8
REMARK    5  A    between atoms: C_7  and  C_9
REMARK    6  A    between atoms: C_9  and  C_10
REMARK    7  A    between atoms: C_10  and  C_11
REMARK    8  A    between atoms: C_11  and  C_12
REMARK    9  A    between atoms: C_12  and  C_13
REMARK   10  A    between atoms: C_13  and  N_14
REMARK   11  A    between atoms: C_13  and  C_15
REMARK   12  A    between atoms: C_18  and  O_19
REMARK   13  A    between atoms: O_19  and  C_20
REMARK   14  A    between atoms: C_21  and  O_22
REMARK   15  A    between atoms: O_22  and  C_23
REMARK   16  A    between atoms: C_26  and  O_27
REMARK   17  A    between atoms: O_27  and  C_28
REMARK                            x       y       z     vdW  Elec       q    Type
REMARK                         _______ _______ _______ _____ _____    ______ ____
ROOT
ATOM      1  C   UNL     1       1.635   3.161  19.686  0.00  0.00    +0.000 C 
ENDROOT
BRANCH   1   2
ATOM      2  C   UNL     1       3.076   3.097  20.253  0.00  0.00    +0.000 C 
BRANCH   2   3
ATOM      3  C   UNL     1       4.150   2.636  19.260  0.00  0.00    +0.000 C 
BRANCH   3   7
ATOM      4  C   UNL     1       6.271   5.968  17.433  0.00  0.00    +0.000 A 
ATOM      5  C   UNL     1       6.294   5.768  18.832  0.00  0.00    +0.000 A 
ATOM      6  C   UNL     1       5.600   4.705  19.409  0.00  0.00    +0.000 A 
ATOM      7  C   UNL     1       4.867   3.811  18.612  0.00  0.00    +0.000 A 
ATOM      8  C   UNL     1       4.820   4.031  17.230  0.00  0.00    +0.000 A 
ATOM      9  C   UNL     1       5.498   5.088  16.633  0.00  0.00    +0.000 A 
BRANCH   4  11
ATOM     10  C   UNL     1       7.746   7.908  17.507  0.00  0.00    +0.000 C 
ATOM     11  O   UNL     1       7.003   6.949  16.846  0.00  0.00    +0.000 OA
ENDBRANCH   4  11
BRANCH   9  12
ATOM     12  O   UNL     1       5.373   5.164  15.280  0.00  0.00    +0.000 OA
ATOM     13  C   UNL     1       5.681   4.224  14.331  0.00  0.00    +0.000 C 
ENDBRANCH   9  12
ENDBRANCH   3   7
BRANCH   3  14
ATOM     14  N   UNL     1       5.051   1.685  19.926  0.00  0.00    +0.000 NA
ATOM     15  H   UNL     1       5.980   1.626  19.452  0.00  0.00    +0.000 HD
ATOM     16  H   UNL     1       4.610   0.738  19.965  0.00  0.00    +0.000 HD
ENDBRANCH   3  14
ENDBRANCH   2   3
ENDBRANCH   1   2
BRANCH   1  17
ATOM     17  C   UNL     1       0.977   4.515  19.991  0.00  0.00    +0.000 C 
BRANCH  17  18
ATOM     18  C   UNL     1       2.003   5.535  20.506  0.00  0.00    +0.000 C 
BRANCH  18  19
ATOM     19  C   UNL     1       2.514   6.512  19.435  0.00  0.00    +0.000 C 
BRANCH  19  20
ATOM     20  C   UNL     1       1.917   7.881  19.699  0.00  0.00    +0.000 A 
ATOM     21  C   UNL     1       1.642   8.787  18.657  0.00  0.00    +0.000 A 
ATOM     22  C   UNL     1       1.061  10.022  18.934  0.00  0.00    +0.000 A 
ATOM     23  C   UNL     1       0.733  10.393  20.247  0.00  0.00    +0.000 A 
ATOM     24  C   UNL     1       1.012   9.492  21.308  0.00  0.00    +0.000 A 
ATOM     25  C   UNL     1       1.602   8.245  21.010  0.00  0.00    +0.000 A 
BRANCH  23  26
ATOM     26  O   UNL     1       0.163  11.616  20.417  0.00  0.00    +0.000 OA
ATOM     27  C   UNL     1      -0.710  12.256  19.562  0.00  0.00    +0.000 C 
ENDBRANCH  23  26
BRANCH  24  28
ATOM     28  O   UNL     1       0.706   9.822  22.593  0.00  0.00    +0.000 OA
ATOM     29  C   UNL     1      -0.539   9.719  23.177  0.00  0.00    +0.000 C 
ENDBRANCH  24  28
ENDBRANCH  19  20
BRANCH  19  30
ATOM     30  N   UNL     1       2.168   6.071  18.081  0.00  0.00    +0.000 NA
ATOM     31  H   UNL     1       2.638   6.672  17.365  0.00  0.00    +0.000 HD
ATOM     32  H   UNL     1       1.135   6.125  17.938  0.00  0.00    +0.000 HD
ENDBRANCH  19  30
ENDBRANCH  18  19
ENDBRANCH  17  18
ENDBRANCH   1  17
TORSDOF 13
ENDMDL
MODEL 2
REMARK VINA RESULT:      -6.7      0.956      1.875
REMARK  Name = 
REMARK  17 active torsions:
REMARK  status: ('A' for Active; 'I' for Inactive)
REMARK    1  A    between atoms: C_1  and  O_2
REMARK    2  A    between atoms: O_2  and  C_3
REMARK    3  A    between atoms: C_6  and  C_7
REMARK    4  A    between atoms: C_7  and  N_8
REMARK    5  A    between atoms: C_7  and  C_9
REMARK    6  A    between atoms: C_9  and  C_10
REMARK    7  A    between atoms: C_10  and  C_11
REMARK    8  A    between atoms: C_11  and  C_12
REMARK    9  A    between atoms: C_12  and  C_13
REMARK   10  A    between atoms: C_13  and  N_14
REMARK   11  A    between atoms: C_13  and  C_15
REMARK   12  A    between atoms: C_18  and  O_19
REMARK   13  A    between atoms: O_19  and  C_20
REMARK   14  A    between atoms: C_21  and  O_22
REMARK   15  A    between atoms: O_22  and  C_23
REMARK   16  A    between atoms: C_26  and  O_27
REMARK   17  A    between atoms: O_27  and  C_28
REMARK                            x       y       z     vdW  Elec       q    Type
REMARK                         _______ _______ _______ _____ _____    ______ ____
ROOT
ATOM      1  C   UNL     1       2.340   3.133  20.461  0.00  0.00    +0.000 C 
ENDROOT
BRANCH   1   2
ATOM      2  C   UNL     1       2.672   3.140  18.947  0.00  0.00    +0.000 C 
BRANCH   2   3
ATOM      3  C   UNL     1       4.126   2.799  18.595  0.00  0.00    +0.000 C 
BRANCH   3   7
ATOM      4  C   UNL     1       6.397   6.270  17.279  0.00  0.00    +0.000 A 
ATOM      5  C   UNL     1       6.192   6.012  18.653  0.00  0.00    +0.000 A 
ATOM      6  C   UNL     1       5.451   4.904  19.064  0.00  0.00    +0.000 A 
ATOM      7  C   UNL     1       4.897   4.023  18.122  0.00  0.00    +0.000 A 
ATOM      8  C   UNL     1       5.076   4.300  16.761  0.00  0.00    +0.000 A 
ATOM      9  C   UNL     1       5.804   5.402  16.327  0.00  0.00    +0.000 A 
BRANCH   4  11
ATOM     10  C   UNL     1       7.931   8.123  17.676  0.00  0.00    +0.000 C 
ATOM     11  O   UNL     1       7.181   7.298  16.862  0.00  0.00    +0.000 OA
ENDBRANCH   4  11
BRANCH   9  12
ATOM     12  O   UNL     1       5.906   5.532  14.977  0.00  0.00    +0.000 OA
ATOM     13  C   UNL     1       6.755   4.892  14.110  0.00  0.00    +0.000 C 
ENDBRANCH   9  12
ENDBRANCH   3   7
BRANCH   3  14
ATOM     14  N   UNL     1       4.750   2.105  19.729  0.00  0.00    +0.000 NA
ATOM     15  H   UNL     1       4.755   2.692  20.593  0.00  0.00    +0.000 HD
ATOM     16  H   UNL     1       5.727   1.824  19.485  0.00  0.00    +0.000 HD
ENDBRANCH   3  14
ENDBRANCH   2   3
ENDBRANCH   1   2
BRANCH   1  17
ATOM     17  C   UNL     1       2.454   4.542  21.061  0.00  0.00    +0.000 C 
BRANCH  17  18
ATOM     18  C   UNL     1       1.553   5.543  20.321  0.00  0.00    +0.000 C 
BRANCH  18  19
ATOM     19  C   UNL     1       2.260   6.844  19.912  0.00  0.00    +0.000 C 
BRANCH  19  20
ATOM     20  C   UNL     1       1.420   8.021  20.372  0.00  0.00    +0.000 A 
ATOM     21  C   UNL     1       0.738   8.013  21.603  0.00  0.00    +0.000 A 
ATOM     22  C   UNL     1       0.005   9.127  22.007  0.00  0.00    +0.000 A 
ATOM     23  C   UNL     1      -0.070  10.277  21.207  0.00  0.00    +0.000 A 
ATOM     24  C   UNL     1       0.608  10.295  19.960  0.00  0.00    +0.000 A 
ATOM     25  C   UNL     1       1.344   9.158  19.565  0.00  0.00    +0.000 A 
BRANCH  23  26
ATOM     26  O   UNL     1      -0.804  11.316  21.690  0.00  0.00    +0.000 OA
ATOM     27  C   UNL     1      -1.275  11.478  22.977  0.00  0.00    +0.000 C 
ENDBRANCH  23  26
BRANCH  24  28
ATOM     28  O   UNL     1       0.553  11.396  19.161  0.00  0.00    +0.000 OA
ATOM     29  C   UNL     1      -0.527  11.785  18.398  0.00  0.00    +0.000 C 
ENDBRANCH  24  28
ENDBRANCH  19  20
BRANCH  19  30
ATOM     30  N   UNL     1       2.473   6.921  18.465  0.00  0.00    +0.000 NA
ATOM     31  H   UNL     1       2.031   7.784  18.071  0.00  0.00    +0.000 HD
ATOM     32  H   UNL     1       2.056   6.087  17.995  0.00  0.00    +0.000 HD
ENDBRANCH  19  30
ENDBRANCH  18  19
ENDBRANCH  17  18
ENDBRANCH   1  17
TORSDOF 13
ENDMDL
MODEL 3
REMARK VINA RESULT:      -6.5      1.002      7.500
REMARK  Name = 
REMARK  17 active torsions:
REMARK  status: ('A' for Active; 'I' for Inactive)
REMARK    1  A    between atoms: C_1  and  O_2
REMARK    2  A    between atoms: O_2  and  C_3
REMARK    3  A    between atoms: C_6  and  C_7
REMARK    4  A    between atoms: C_7  and  N_8
REMARK    5  A    between atoms: C_7  and  C_9
REMARK    6  A    between atoms: C_9  and  C_10
REMARK    7  A    between atoms: C_10  and  C_11
REMARK    8  A    between atoms: C_11  and  C_12
REMARK    9  A    between atoms: C_12  and  C_13
REMARK   10  A    between atoms: C_13  and  N_14
REMARK   11  A    between atoms: C_13  and  C_15
REMARK   12  A    between atoms: C_18  and  O_19
REMARK   13  A    between atoms: O_19  and  C_20
REMARK   14  A    between atoms: C_21  and  O_22
REMARK   15  A    between atoms: O_22  and  C_23
REMARK   16  A    between atoms: C_26  and  O_27
REMARK   17  A    between atoms: O_27  and  C_28
REMARK                            x       y       z     vdW  Elec       q    Type
REMARK                         _______ _______ _______ _____ _____    ______ ____
ROOT
ATOM      1  C   UNL     1       1.588   5.331  20.410  0.00  0.00    +0.000 C 
ENDROOT
BRANCH   1   2
ATOM      2  C   UNL     1       2.525   6.513  20.052  0.00  0.00    +0.000 C 
BRANCH   2   3
ATOM      3  C   UNL     1       2.106   7.331  18.824  0.00  0.00    +0.000 C 
BRANCH   3   7
ATOM      4  C   UNL     1       0.656  11.301  19.858  0.00  0.00    +0.000 A 
ATOM      5  C   UNL     1       1.246  11.045  18.599  0.00  0.00    +0.000 A 
ATOM      6  C   UNL     1       1.719   9.773  18.282  0.00  0.00    +0.000 A 
ATOM      7  C   UNL     1       1.618   8.720  19.206  0.00  0.00    +0.000 A 
ATOM      8  C   UNL     1       1.063   8.985  20.464  0.00  0.00    +0.000 A 
ATOM      9  C   UNL     1       0.591  10.248  20.806  0.00  0.00    +0.000 A 
BRANCH   4  11
ATOM     10  C   UNL     1       0.790  13.576  20.726  0.00  0.00    +0.000 C 
ATOM     11  O   UNL     1       0.119  12.513  20.154  0.00  0.00    +0.000 OA
ENDBRANCH   4  11
BRANCH   9  12
ATOM     12  O   UNL     1       0.064  10.350  22.055  0.00  0.00    +0.000 OA
ATOM     13  C   UNL     1       0.088   9.437  23.079  0.00  0.00    +0.000 C 
ENDBRANCH   9  12
ENDBRANCH   3   7
BRANCH   3  14
ATOM     14  N   UNL     1       3.203   7.335  17.845  0.00  0.00    +0.000 NA
ATOM     15  H   UNL     1       2.898   6.975  16.913  0.00  0.00    +0.000 HD
ATOM     16  H   UNL     1       4.004   6.766  18.202  0.00  0.00    +0.000 HD
ENDBRANCH   3  14
ENDBRANCH   2   3
ENDBRANCH   1   2
BRANCH   1  17
ATOM     17  C   UNL     1       1.813   4.138  19.469  0.00  0.00    +0.000 C 
BRANCH  17  18
ATOM     18  C   UNL     1       2.957   3.240  19.963  0.00  0.00    +0.000 C 
BRANCH  18  19
ATOM     19  C   UNL     1       3.842   2.672  18.843  0.00  0.00    +0.000 C 
BRANCH  19  20
ATOM     20  C   UNL     1       4.720   3.784  18.303  0.00  0.00    +0.000 A 
ATOM     21  C   UNL     1       5.470   4.620  19.151  0.00  0.00    +0.000 A 
ATOM     22  C   UNL     1       6.293   5.609  18.616  0.00  0.00    +0.000 A 
ATOM     23  C   UNL     1       6.398   5.795  17.230  0.00  0.00    +0.000 A 
ATOM     24  C   UNL     1       5.642   4.964  16.363  0.00  0.00    +0.000 A 
ATOM     25  C   UNL     1       4.812   3.968  16.921  0.00  0.00    +0.000 A 
BRANCH  23  26
ATOM     26  O   UNL     1       7.232   6.781  16.803  0.00  0.00    +0.000 OA
ATOM     27  C   UNL     1       7.696   7.857  17.532  0.00  0.00    +0.000 C 
ENDBRANCH  23  26
BRANCH  24  28
ATOM     28  O   UNL     1       5.722   5.120  15.013  0.00  0.00    +0.000 OA
ATOM     29  C   UNL     1       5.918   4.109  14.096  0.00  0.00    +0.000 C 
ENDBRANCH  24  28
ENDBRANCH  19  20
BRANCH  19  30
ATOM     30  N   UNL     1       3.047   2.093  17.756  0.00  0.00    +0.000 NA
ATOM     31  H   UNL     1       3.316   1.096  17.593  0.00  0.00    +0.000 HD
ATOM     32  H   UNL     1       3.200   2.630  16.874  0.00  0.00    +0.000 HD
ENDBRANCH  19  30
ENDBRANCH  18  19
ENDBRANCH  17  18
ENDBRANCH   1  17
TORSDOF 13
ENDMDL
MODEL 4
REMARK VINA RESULT:      -6.5      1.343      8.053
REMARK  Name = 
REMARK  17 active torsions:
REMARK  status: ('A' for Active; 'I' for Inactive)
REMARK    1  A    between atoms: C_1  and  O_2
REMARK    2  A    between atoms: O_2  and  C_3
REMARK    3  A    between atoms: C_6  and  C_7
REMARK    4  A    between atoms: C_7  and  N_8
REMARK    5  A    between atoms: C_7  and  C_9
REMARK    6  A    between atoms: C_9  and  C_10
REMARK    7  A    between atoms: C_10  and  C_11
REMARK    8  A    between atoms: C_11  and  C_12
REMARK    9  A    between atoms: C_12  and  C_13
REMARK   10  A    between atoms: C_13  and  N_14
REMARK   11  A    between atoms: C_13  and  C_15
REMARK   12  A    between atoms: C_18  and  O_19
REMARK   13  A    between atoms: O_19  and  C_20
REMARK   14  A    between atoms: C_21  and  O_22
REMARK   15  A    between atoms: O_22  and  C_23
REMARK   16  A    between atoms: C_26  and  O_27
REMARK   17  A    between atoms: O_27  and  C_28
REMARK                            x       y       z     vdW  Elec       q    Type
REMARK                         _______ _______ _______ _____ _____    ______ ____
ROOT
ATOM      1  C   UNL     1       2.122   5.968  18.137  0.00  0.00    +0.000 C 
ENDROOT
BRANCH   1   2
ATOM      2  C   UNL     1       2.521   7.314  18.794  0.00  0.00    +0.000 C 
BRANCH   2   3
ATOM      3  C   UNL     1       1.680   8.524  18.369  0.00  0.00    +0.000 C 
BRANCH   3   7
ATOM      4  C   UNL     1       0.056  10.591  21.837  0.00  0.00    +0.000 A 
ATOM      5  C   UNL     1       0.238   9.189  21.842  0.00  0.00    +0.000 A 
ATOM      6  C   UNL     1       0.746   8.535  20.721  0.00  0.00    +0.000 A 
ATOM      7  C   UNL     1       1.090   9.255  19.566  0.00  0.00    +0.000 A 
ATOM      8  C   UNL     1       0.879  10.639  19.553  0.00  0.00    +0.000 A 
ATOM      9  C   UNL     1       0.366  11.313  20.657  0.00  0.00    +0.000 A 
BRANCH   4  11
ATOM     10  C   UNL     1      -1.677  11.483  23.301  0.00  0.00    +0.000 C 
ATOM     11  O   UNL     1      -0.363  11.254  22.946  0.00  0.00    +0.000 OA
ENDBRANCH   4  11
BRANCH   9  12
ATOM     12  O   UNL     1       0.232  12.657  20.502  0.00  0.00    +0.000 OA
ATOM     13  C   UNL     1       1.055  13.663  20.942  0.00  0.00    +0.000 C 
ENDBRANCH   9  12
ENDBRANCH   3   7
BRANCH   3  14
ATOM     14  N   UNL     1       2.478   9.383  17.483  0.00  0.00    +0.000 NA
ATOM     15  H   UNL     1       1.878  10.005  16.895  0.00  0.00    +0.000 HD
ATOM     16  H   UNL     1       3.091   8.798  16.872  0.00  0.00    +0.000 HD
ENDBRANCH   3  14
ENDBRANCH   2   3
ENDBRANCH   1   2
BRANCH   1  17
ATOM     17  C   UNL     1       2.169   4.818  19.154  0.00  0.00    +0.000 C 
BRANCH  17  18
ATOM     18  C   UNL     1       2.500   3.481  18.474  0.00  0.00    +0.000 C 
BRANCH  18  19
ATOM     19  C   UNL     1       3.935   2.988  18.719  0.00  0.00    +0.000 C 
BRANCH  19  20
ATOM     20  C   UNL     1       4.905   4.045  18.228  0.00  0.00    +0.000 A 
ATOM     21  C   UNL     1       5.527   4.951  19.108  0.00  0.00    +0.000 A 
ATOM     22  C   UNL     1       6.440   5.886  18.625  0.00  0.00    +0.000 A 
ATOM     23  C   UNL     1       6.764   5.948  17.262  0.00  0.00    +0.000 A 
ATOM     24  C   UNL     1       6.139   5.045  16.362  0.00  0.00    +0.000 A 
ATOM     25  C   UNL     1       5.215   4.105  16.868  0.00  0.00    +0.000 A 
BRANCH  23  26
ATOM     26  O   UNL     1       7.671   6.889  16.887  0.00  0.00    +0.000 OA
ATOM     27  C   UNL     1       8.003   8.045  17.563  0.00  0.00    +0.000 C 
ENDBRANCH  23  26
BRANCH  24  28
ATOM     28  O   UNL     1       6.432   5.080  15.033  0.00  0.00    +0.000 OA
ATOM     29  C   UNL     1       6.268   4.039  14.145  0.00  0.00    +0.000 C 
ENDBRANCH  24  28
ENDBRANCH  19  20
BRANCH  19  30
ATOM     30  N   UNL     1       4.201   1.716  18.041  0.00  0.00    +0.000 NA
ATOM     31  H   UNL     1       4.155   1.834  17.002  0.00  0.00    +0.000 HD
ATOM     32  H   UNL     1       3.496   1.001  18.328  0.00  0.00    +0.000 HD
ENDBRANCH  19  30
ENDBRANCH  18  19
ENDBRANCH  17  18
ENDBRANCH   1  17
TORSDOF 13
ENDMDL
MODEL 5
REMARK VINA RESULT:      -6.5      1.555      7.149
REMARK  Name = 
REMARK  17 active torsions:
REMARK  status: ('A' for Active; 'I' for Inactive)
REMARK    1  A    between atoms: C_1  and  O_2
REMARK    2  A    between atoms: O_2  and  C_3
REMARK    3  A    between atoms: C_6  and  C_7
REMARK    4  A    between atoms: C_7  and  N_8
REMARK    5  A    between atoms: C_7  and  C_9
REMARK    6  A    between atoms: C_9  and  C_10
REMARK    7  A    between atoms: C_10  and  C_11
REMARK    8  A    between atoms: C_11  and  C_12
REMARK    9  A    between atoms: C_12  and  C_13
REMARK   10  A    between atoms: C_13  and  N_14
REMARK   11  A    between atoms: C_13  and  C_15
REMARK   12  A    between atoms: C_18  and  O_19
REMARK   13  A    between atoms: O_19  and  C_20
REMARK   14  A    between atoms: C_21  and  O_22
REMARK   15  A    between atoms: O_22  and  C_23
REMARK   16  A    between atoms: C_26  and  O_27
REMARK   17  A    between atoms: O_27  and  C_28
REMARK                            x       y       z     vdW  Elec       q    Type
REMARK                         _______ _______ _______ _____ _____    ______ ____
ROOT
ATOM      1  C   UNL     1       3.250   3.092  20.366  0.00  0.00    +0.000 C 
ENDROOT
BRANCH   1   2
ATOM      2  C   UNL     1       3.133   4.617  20.622  0.00  0.00    +0.000 C 
BRANCH   2   3
ATOM      3  C   UNL     1       1.719   5.121  20.936  0.00  0.00    +0.000 C 
BRANCH   3   7
ATOM      4  C   UNL     1       1.180   9.290  19.810  0.00  0.00    +0.000 A 
ATOM      5  C   UNL     1       1.988   8.424  19.038  0.00  0.00    +0.000 A 
ATOM      6  C   UNL     1       2.165   7.094  19.415  0.00  0.00    +0.000 A 
ATOM      7  C   UNL     1       1.543   6.586  20.566  0.00  0.00    +0.000 A 
ATOM      8  C   UNL     1       0.770   7.455  21.347  0.00  0.00    +0.000 A 
ATOM      9  C   UNL     1       0.585   8.788  20.995  0.00  0.00    +0.000 A 
BRANCH   4  11
ATOM     10  C   UNL     1      -0.166  10.991  18.696  0.00  0.00    +0.000 C 
ATOM     11  O   UNL     1       0.933  10.566  19.417  0.00  0.00    +0.000 OA
ENDBRANCH   4  11
BRANCH   9  12
ATOM     12  O   UNL     1      -0.204   9.504  21.840  0.00  0.00    +0.000 OA
ATOM     13  C   UNL     1      -0.169   9.566  23.210  0.00  0.00    +0.000 C 
ENDBRANCH   9  12
ENDBRANCH   3   7
BRANCH   3  14
ATOM     14  N   UNL     1       0.735   4.228  20.309  0.00  0.00    +0.000 NA
ATOM     15  H   UNL     1       1.188   3.515  19.694  0.00  0.00    +0.000 HD
ATOM     16  H   UNL     1       0.043   4.786  19.758  0.00  0.00    +0.000 HD
ENDBRANCH   3  14
ENDBRANCH   2   3
ENDBRANCH   1   2
BRANCH   1  17
ATOM     17  C   UNL     1       4.184   2.797  19.183  0.00  0.00    +0.000 C 
BRANCH  17  18
ATOM     18  C   UNL     1       3.402   2.287  17.964  0.00  0.00    +0.000 C 
BRANCH  18  19
ATOM     19  C   UNL     1       3.001   3.385  16.967  0.00  0.00    +0.000 C 
BRANCH  19  20
ATOM     20  C   UNL     1       4.143   4.376  16.846  0.00  0.00    +0.000 A 
ATOM     21  C   UNL     1       4.166   5.580  17.575  0.00  0.00    +0.000 A 
ATOM     22  C   UNL     1       5.250   6.448  17.464  0.00  0.00    +0.000 A 
ATOM     23  C   UNL     1       6.339   6.149  16.633  0.00  0.00    +0.000 A 
ATOM     24  C   UNL     1       6.325   4.942  15.886  0.00  0.00    +0.000 A 
ATOM     25  C   UNL     1       5.220   4.074  16.009  0.00  0.00    +0.000 A 
BRANCH  23  26
ATOM     26  O   UNL     1       7.352   7.055  16.596  0.00  0.00    +0.000 OA
ATOM     27  C   UNL     1       7.699   7.960  17.578  0.00  0.00    +0.000 C 
ENDBRANCH  23  26
BRANCH  24  28
ATOM     28  O   UNL     1       7.368   4.623  15.070  0.00  0.00    +0.000 OA
ATOM     29  C   UNL     1       7.437   4.878  13.717  0.00  0.00    +0.000 C 
ENDBRANCH  24  28
ENDBRANCH  19  20
BRANCH  19  30
ATOM     30  N   UNL     1       1.781   4.082  17.381  0.00  0.00    +0.000 NA
ATOM     31  H   UNL     1       1.738   4.167  18.423  0.00  0.00    +0.000 HD
ATOM     32  H   UNL     1       0.938   3.558  17.053  0.00  0.00    +0.000 HD
ENDBRANCH  19  30
ENDBRANCH  18  19
ENDBRANCH  17  18
ENDBRANCH   1  17
TORSDOF 13
ENDMDL
MODEL 6
REMARK VINA RESULT:      -6.5      1.319      6.941
REMARK  Name = 
REMARK  17 active torsions:
REMARK  status: ('A' for Active; 'I' for Inactive)
REMARK    1  A    between atoms: C_1  and  O_2
REMARK    2  A    between atoms: O_2  and  C_3
REMARK    3  A    between atoms: C_6  and  C_7
REMARK    4  A    between atoms: C_7  and  N_8
REMARK    5  A    between atoms: C_7  and  C_9
REMARK    6  A    between atoms: C_9  and  C_10
REMARK    7  A    between atoms: C_10  and  C_11
REMARK    8  A    between atoms: C_11  and  C_12
REMARK    9  A    between atoms: C_12  and  C_13
REMARK   10  A    between atoms: C_13  and  N_14
REMARK   11  A    between atoms: C_13  and  C_15
REMARK   12  A    between atoms: C_18  and  O_19
REMARK   13  A    between atoms: O_19  and  C_20
REMARK   14  A    between atoms: C_21  and  O_22
REMARK   15  A    between atoms: O_22  and  C_23
REMARK   16  A    between atoms: C_26  and  O_27
REMARK   17  A    between atoms: O_27  and  C_28
REMARK                            x       y       z     vdW  Elec       q    Type
REMARK                         _______ _______ _______ _____ _____    ______ ____
ROOT
ATOM      1  C   UNL     1       1.451   4.206  17.836  0.00  0.00    +0.000 C 
ENDROOT
BRANCH   1   2
ATOM      2  C   UNL     1       1.187   4.782  19.251  0.00  0.00    +0.000 C 
BRANCH   2   3
ATOM      3  C   UNL     1       2.290   5.696  19.800  0.00  0.00    +0.000 C 
BRANCH   3   7
ATOM      4  C   UNL     1       1.481   9.862  18.837  0.00  0.00    +0.000 A 
ATOM      5  C   UNL     1       2.095   9.002  17.898  0.00  0.00    +0.000 A 
ATOM      6  C   UNL     1       2.362   7.672  18.221  0.00  0.00    +0.000 A 
ATOM      7  C   UNL     1       2.025   7.160  19.484  0.00  0.00    +0.000 A 
ATOM      8  C   UNL     1       1.446   8.024  20.423  0.00  0.00    +0.000 A 
ATOM      9  C   UNL     1       1.177   9.355  20.126  0.00  0.00    +0.000 A 
BRANCH   4  11
ATOM     10  C   UNL     1       1.974  12.236  18.582  0.00  0.00    +0.000 C 
ATOM     11  O   UNL     1       1.142  11.136  18.513  0.00  0.00    +0.000 OA
ENDBRANCH   4  11
BRANCH   9  12
ATOM     12  O   UNL     1       0.598  10.066  21.131  0.00  0.00    +0.000 OA
ATOM     13  C   UNL     1       0.401   9.706  22.440  0.00  0.00    +0.000 C 
ENDBRANCH   9  12
ENDBRANCH   3   7
BRANCH   3  14
ATOM     14  N   UNL     1       2.478   5.422  21.232  0.00  0.00    +0.000 NA
ATOM     15  H   UNL     1       2.351   6.279  21.815  0.00  0.00    +0.000 HD
ATOM     16  H   UNL     1       3.427   5.016  21.398  0.00  0.00    +0.000 HD
ENDBRANCH   3  14
ENDBRANCH   2   3
ENDBRANCH   1   2
BRANCH   1  17
ATOM     17  C   UNL     1       1.805   2.713  17.900  0.00  0.00    +0.000 C 
BRANCH  17  18
ATOM     18  C   UNL     1       2.573   2.374  19.186  0.00  0.00    +0.000 C 
BRANCH  18  19
ATOM     19  C   UNL     1       4.072   2.107  18.975  0.00  0.00    +0.000 C 
BRANCH  19  20
ATOM     20  C   UNL     1       4.710   3.350  18.385  0.00  0.00    +0.000 A 
ATOM     21  C   UNL     1       5.261   4.361  19.195  0.00  0.00    +0.000 A 
ATOM     22  C   UNL     1       5.871   5.472  18.616  0.00  0.00    +0.000 A 
ATOM     23  C   UNL     1       5.955   5.611  17.223  0.00  0.00    +0.000 A 
ATOM     24  C   UNL     1       5.396   4.603  16.394  0.00  0.00    +0.000 A 
ATOM     25  C   UNL     1       4.781   3.485  16.997  0.00  0.00    +0.000 A 
BRANCH  23  26
ATOM     26  O   UNL     1       6.574   6.727  16.753  0.00  0.00    +0.000 OA
ATOM     27  C   UNL     1       7.440   7.553  17.438  0.00  0.00    +0.000 C 
ENDBRANCH  23  26
BRANCH  24  28
ATOM     28  O   UNL     1       5.460   4.710  15.038  0.00  0.00    +0.000 OA
ATOM     29  C   UNL     1       6.177   3.884  14.199  0.00  0.00    +0.000 C 
ENDBRANCH  24  28
ENDBRANCH  19  20
BRANCH  19  30
ATOM     30  N   UNL     1       4.306   0.962  18.092  0.00  0.00    +0.000 NA
ATOM     31  H   UNL     1       3.444   0.373  18.013  0.00  0.00    +0.000 HD
ATOM     32  H   UNL     1       5.081   0.371  18.467  0.00  0.00    +0.000 HD
ENDBRANCH  19  30
ENDBRANCH  18  19
ENDBRANCH  17  18
ENDBRANCH   1  17
TORSDOF 13
ENDMDL
MODEL 7
REMARK VINA RESULT:      -6.4      1.238      1.325
REMARK  Name = 
REMARK  17 active torsions:
REMARK  status: ('A' for Active; 'I' for Inactive)
REMARK    1  A    between atoms: C_1  and  O_2
REMARK    2  A    between atoms: O_2  and  C_3
REMARK    3  A    between atoms: C_6  and  C_7
REMARK    4  A    between atoms: C_7  and  N_8
REMARK    5  A    between atoms: C_7  and  C_9
REMARK    6  A    between atoms: C_9  and  C_10
REMARK    7  A    between atoms: C_10  and  C_11
REMARK    8  A    between atoms: C_11  and  C_12
REMARK    9  A    between atoms: C_12  and  C_13
REMARK   10  A    between atoms: C_13  and  N_14
REMARK   11  A    between atoms: C_13  and  C_15
REMARK   12  A    between atoms: C_18  and  O_19
REMARK   13  A    between atoms: O_19  and  C_20
REMARK   14  A    between atoms: C_21  and  O_22
REMARK   15  A    between atoms: O_22  and  C_23
REMARK   16  A    between atoms: C_26  and  O_27
REMARK   17  A    between atoms: O_27  and  C_28
REMARK                            x       y       z     vdW  Elec       q    Type
REMARK                         _______ _______ _______ _____ _____    ______ ____
ROOT
ATOM      1  C   UNL     1       1.489   3.449  19.203  0.00  0.00    +0.000 C 
ENDROOT
BRANCH   1   2
ATOM      2  C   UNL     1       2.825   2.689  19.402  0.00  0.00    +0.000 C 
BRANCH   2   3
ATOM      3  C   UNL     1       3.583   2.350  18.112  0.00  0.00    +0.000 C 
BRANCH   3   7
ATOM      4  C   UNL     1       6.521   5.394  17.092  0.00  0.00    +0.000 A 
ATOM      5  C   UNL     1       6.280   5.035  18.438  0.00  0.00    +0.000 A 
ATOM      6  C   UNL     1       5.327   4.068  18.755  0.00  0.00    +0.000 A 
ATOM      7  C   UNL     1       4.590   3.430  17.745  0.00  0.00    +0.000 A 
ATOM      8  C   UNL     1       4.809   3.811  16.415  0.00  0.00    +0.000 A 
ATOM      9  C   UNL     1       5.748   4.778  16.075  0.00  0.00    +0.000 A 
BRANCH   4  11
ATOM     10  C   UNL     1       7.694   7.519  17.328  0.00  0.00    +0.000 C 
ATOM     11  O   UNL     1       7.499   6.275  16.760  0.00  0.00    +0.000 OA
ENDBRANCH   4  11
BRANCH   9  12
ATOM     12  O   UNL     1       5.862   5.031  14.743  0.00  0.00    +0.000 OA
ATOM     13  C   UNL     1       6.505   4.300  13.778  0.00  0.00    +0.000 C 
ENDBRANCH   9  12
ENDBRANCH   3   7
BRANCH   3  14
ATOM     14  N   UNL     1       4.169   1.008  18.232  0.00  0.00    +0.000 NA
ATOM     15  H   UNL     1       4.280   0.544  17.303  0.00  0.00    +0.000 HD
ATOM     16  H   UNL     1       3.581   0.414  18.859  0.00  0.00    +0.000 HD
ENDBRANCH   3  14
ENDBRANCH   2   3
ENDBRANCH   1   2
BRANCH   1  17
ATOM     17  C   UNL     1       1.488   4.237  17.884  0.00  0.00    +0.000 C 
BRANCH  17  18
ATOM     18  C   UNL     1       2.164   5.607  18.048  0.00  0.00    +0.000 C 
BRANCH  18  19
ATOM     19  C   UNL     1       2.037   6.208  19.456  0.00  0.00    +0.000 C 
BRANCH  19  20
ATOM     20  C   UNL     1       1.778   7.697  19.330  0.00  0.00    +0.000 A 
ATOM     21  C   UNL     1       2.044   8.401  18.140  0.00  0.00    +0.000 A 
ATOM     22  C   UNL     1       1.759   9.763  18.050  0.00  0.00    +0.000 A 
ATOM     23  C   UNL     1       1.204  10.462  19.132  0.00  0.00    +0.000 A 
ATOM     24  C   UNL     1       0.938   9.766  20.340  0.00  0.00    +0.000 A 
ATOM     25  C   UNL     1       1.233   8.388  20.415  0.00  0.00    +0.000 A 
BRANCH  23  26
ATOM     26  O   UNL     1       0.956  11.786  18.946  0.00  0.00    +0.000 OA
ATOM     27  C   UNL     1       1.842  12.748  18.507  0.00  0.00    +0.000 C 
ENDBRANCH  23  26
BRANCH  24  28
ATOM     28  O   UNL     1       0.400  10.417  21.408  0.00  0.00    +0.000 OA
ATOM     29  C   UNL     1      -0.066   9.822  22.561  0.00  0.00    +0.000 C 
ENDBRANCH  24  28
ENDBRANCH  19  20
BRANCH  19  30
ATOM     30  N   UNL     1       3.240   5.980  20.261  0.00  0.00    +0.000 NA
ATOM     31  H   UNL     1       3.463   6.821  20.841  0.00  0.00    +0.000 HD
ATOM     32  H   UNL     1       4.055   5.776  19.640  0.00  0.00    +0.000 HD
ENDBRANCH  19  30
ENDBRANCH  18  19
ENDBRANCH  17  18
ENDBRANCH   1  17
TORSDOF 13
ENDMDL
MODEL 8
REMARK VINA RESULT:      -6.4      2.426      4.264
REMARK  Name = 
REMARK  17 active torsions:
REMARK  status: ('A' for Active; 'I' for Inactive)
REMARK    1  A    between atoms: C_1  and  O_2
REMARK    2  A    between atoms: O_2  and  C_3
REMARK    3  A    between atoms: C_6  and  C_7
REMARK    4  A    between atoms: C_7  and  N_8
REMARK    5  A    between atoms: C_7  and  C_9
REMARK    6  A    between atoms: C_9  and  C_10
REMARK    7  A    between atoms: C_10  and  C_11
REMARK    8  A    between atoms: C_11  and  C_12
REMARK    9  A    between atoms: C_12  and  C_13
REMARK   10  A    between atoms: C_13  and  N_14
REMARK   11  A    between atoms: C_13  and  C_15
REMARK   12  A    between atoms: C_18  and  O_19
REMARK   13  A    between atoms: O_19  and  C_20
REMARK   14  A    between atoms: C_21  and  O_22
REMARK   15  A    between atoms: O_22  and  C_23
REMARK   16  A    between atoms: C_26  and  O_27
REMARK   17  A    between atoms: O_27  and  C_28
REMARK                            x       y       z     vdW  Elec       q    Type
REMARK                         _______ _______ _______ _____ _____    ______ ____
ROOT
ATOM      1  C   UNL     1       2.146   7.360  18.848  0.00  0.00    +0.000 C 
ENDROOT
BRANCH   1   2
ATOM      2  C   UNL     1       2.234   6.009  18.094  0.00  0.00    +0.000 C 
BRANCH   2   3
ATOM      3  C   UNL     1       3.335   5.059  18.580  0.00  0.00    +0.000 C 
BRANCH   3   7
ATOM      4  C   UNL     1       6.674   4.962  15.791  0.00  0.00    +0.000 A 
ATOM      5  C   UNL     1       5.792   3.864  15.911  0.00  0.00    +0.000 A 
ATOM      6  C   UNL     1       4.733   3.900  16.817  0.00  0.00    +0.000 A 
ATOM      7  C   UNL     1       4.521   5.027  17.627  0.00  0.00    +0.000 A 
ATOM      8  C   UNL     1       5.416   6.100  17.529  0.00  0.00    +0.000 A 
ATOM      9  C   UNL     1       6.483   6.084  16.637  0.00  0.00    +0.000 A 
BRANCH   4  11
ATOM     10  C   UNL     1       7.484   5.064  13.493  0.00  0.00    +0.000 C 
ATOM     11  O   UNL     1       7.662   4.978  14.860  0.00  0.00    +0.000 OA
ENDBRANCH   4  11
BRANCH   9  12
ATOM     12  O   UNL     1       7.256   7.203  16.642  0.00  0.00    +0.000 OA
ATOM     13  C   UNL     1       7.802   7.870  17.709  0.00  0.00    +0.000 C 
ENDBRANCH   9  12
ENDBRANCH   3   7
BRANCH   3  14
ATOM     14  N   UNL     1       3.695   5.400  19.964  0.00  0.00    +0.000 NA
ATOM     15  H   UNL     1       3.021   6.074  20.389  0.00  0.00    +0.000 HD
ATOM     16  H   UNL     1       4.662   5.794  19.997  0.00  0.00    +0.000 HD
ENDBRANCH   3  14
ENDBRANCH   2   3
ENDBRANCH   1   2
BRANCH   1  17
ATOM     17  C   UNL     1       2.279   8.546  17.882  0.00  0.00    +0.000 C 
BRANCH  17  18
ATOM     18  C   UNL     1       1.033   9.444  17.920  0.00  0.00    +0.000 C 
BRANCH  18  19
ATOM     19  C   UNL     1       1.215  10.742  18.722  0.00  0.00    +0.000 C 
BRANCH  19  20
ATOM     20  C   UNL     1      -0.151  11.263  19.124  0.00  0.00    +0.000 A 
ATOM     21  C   UNL     1      -0.387  11.837  20.388  0.00  0.00    +0.000 A 
ATOM     22  C   UNL     1      -1.647  12.337  20.709  0.00  0.00    +0.000 A 
ATOM     23  C   UNL     1      -2.705  12.285  19.790  0.00  0.00    +0.000 A 
ATOM     24  C   UNL     1      -2.483  11.703  18.514  0.00  0.00    +0.000 A 
ATOM     25  C   UNL     1      -1.201  11.200  18.206  0.00  0.00    +0.000 A 
BRANCH  23  26
ATOM     26  O   UNL     1      -3.896  12.805  20.193  0.00  0.00    +0.000 OA
ATOM     27  C   UNL     1      -4.404  12.832  21.475  0.00  0.00    +0.000 C 
ENDBRANCH  23  26
BRANCH  24  28
ATOM     28  O   UNL     1      -3.490  11.637  17.600  0.00  0.00    +0.000 OA
ATOM     29  C   UNL     1      -3.409  11.053  16.355  0.00  0.00    +0.000 C 
ENDBRANCH  24  28
ENDBRANCH  19  20
BRANCH  19  30
ATOM     30  N   UNL     1       1.931  11.765  17.954  0.00  0.00    +0.000 NA
ATOM     31  H   UNL     1       2.401  11.341  17.121  0.00  0.00    +0.000 HD
ATOM     32  H   UNL     1       2.656  12.222  18.552  0.00  0.00    +0.000 HD
ENDBRANCH  19  30
ENDBRANCH  18  19
ENDBRANCH  17  18
ENDBRANCH   1  17
TORSDOF 13
ENDMDL
MODEL 9
REMARK VINA RESULT:      -6.4      1.256      2.192
REMARK  Name = 
REMARK  17 active torsions:
REMARK  status: ('A' for Active; 'I' for Inactive)
REMARK    1  A    between atoms: C_1  and  O_2
REMARK    2  A    between atoms: O_2  and  C_3
REMARK    3  A    between atoms: C_6  and  C_7
REMARK    4  A    between atoms: C_7  and  N_8
REMARK    5  A    between atoms: C_7  and  C_9
REMARK    6  A    between atoms: C_9  and  C_10
REMARK    7  A    between atoms: C_10  and  C_11
REMARK    8  A    between atoms: C_11  and  C_12
REMARK    9  A    between atoms: C_12  and  C_13
REMARK   10  A    between atoms: C_13  and  N_14
REMARK   11  A    between atoms: C_13  and  C_15
REMARK   12  A    between atoms: C_18  and  O_19
REMARK   13  A    between atoms: O_19  and  C_20
REMARK   14  A    between atoms: C_21  and  O_22
REMARK   15  A    between atoms: O_22  and  C_23
REMARK   16  A    between atoms: C_26  and  O_27
REMARK   17  A    between atoms: O_27  and  C_28
REMARK                            x       y       z     vdW  Elec       q    Type
REMARK                         _______ _______ _______ _____ _____    ______ ____
ROOT
ATOM      1  C   UNL     1       1.887   4.377  19.385  0.00  0.00    +0.000 C 
ENDROOT
BRANCH   1   2
ATOM      2  C   UNL     1       2.655   3.035  19.498  0.00  0.00    +0.000 C 
BRANCH   2   3
ATOM      3  C   UNL     1       3.458   2.635  18.253  0.00  0.00    +0.000 C 
BRANCH   3   7
ATOM      4  C   UNL     1       6.447   5.617  17.199  0.00  0.00    +0.000 A 
ATOM      5  C   UNL     1       6.191   5.287  18.550  0.00  0.00    +0.000 A 
ATOM      6  C   UNL     1       5.221   4.340  18.877  0.00  0.00    +0.000 A 
ATOM      7  C   UNL     1       4.483   3.694  17.874  0.00  0.00    +0.000 A 
ATOM      8  C   UNL     1       4.716   4.047  16.539  0.00  0.00    +0.000 A 
ATOM      9  C   UNL     1       5.672   4.994  16.188  0.00  0.00    +0.000 A 
BRANCH   4  11
ATOM     10  C   UNL     1       7.705   7.688  17.468  0.00  0.00    +0.000 C 
ATOM     11  O   UNL     1       7.440   6.478  16.858  0.00  0.00    +0.000 OA
ENDBRANCH   4  11
BRANCH   9  12
ATOM     12  O   UNL     1       5.799   5.221  14.853  0.00  0.00    +0.000 OA
ATOM     13  C   UNL     1       6.645   4.625  13.952  0.00  0.00    +0.000 C 
ENDBRANCH   9  12
ENDBRANCH   3   7
BRANCH   3  14
ATOM     14  N   UNL     1       4.033   1.298  18.455  0.00  0.00    +0.000 NA
ATOM     15  H   UNL     1       3.743   0.880  19.368  0.00  0.00    +0.000 HD
ATOM     16  H   UNL     1       5.075   1.343  18.399  0.00  0.00    +0.000 HD
ENDBRANCH   3  14
ENDBRANCH   2   3
ENDBRANCH   1   2
BRANCH   1  17
ATOM     17  C   UNL     1       2.105   5.248  20.631  0.00  0.00    +0.000 C 
BRANCH  17  18
ATOM     18  C   UNL     1       1.154   6.454  20.646  0.00  0.00    +0.000 C 
BRANCH  18  19
ATOM     19  C   UNL     1       1.844   7.805  20.402  0.00  0.00    +0.000 C 
BRANCH  19  20
ATOM     20  C   UNL     1       0.970   8.909  20.966  0.00  0.00    +0.000 A 
ATOM     21  C   UNL     1       0.639   8.973  22.332  0.00  0.00    +0.000 A 
ATOM     22  C   UNL     1      -0.138  10.022  22.820  0.00  0.00    +0.000 A 
ATOM     23  C   UNL     1      -0.604  11.036  21.970  0.00  0.00    +0.000 A 
ATOM     24  C   UNL     1      -0.283  10.980  20.588  0.00  0.00    +0.000 A 
ATOM     25  C   UNL     1       0.503   9.910  20.111  0.00  0.00    +0.000 A 
BRANCH  23  26
ATOM     26  O   UNL     1      -1.349  12.021  22.539  0.00  0.00    +0.000 OA
ATOM     27  C   UNL     1      -2.526  11.877  23.245  0.00  0.00    +0.000 C 
ENDBRANCH  23  26
BRANCH  24  28
ATOM     28  O   UNL     1      -0.722  11.949  19.738  0.00  0.00    +0.000 OA
ATOM     29  C   UNL     1      -1.966  11.999  19.148  0.00  0.00    +0.000 C 
ENDBRANCH  24  28
ENDBRANCH  19  20
BRANCH  19  30
ATOM     30  N   UNL     1       2.092   8.046  18.978  0.00  0.00    +0.000 NA
ATOM     31  H   UNL     1       1.807   7.216  18.408  0.00  0.00    +0.000 HD
ATOM     32  H   UNL     1       3.107   8.231  18.816  0.00  0.00    +0.000 HD
ENDBRANCH  19  30
ENDBRANCH  18  19
ENDBRANCH  17  18
ENDBRANCH   1  17
TORSDOF 13
ENDMDL
