MODEL 1
REMARK VINA RESULT:      -3.0      0.000      0.000
REMARK  Name = 
REMARK  3 active torsions:
REMARK  status: ('A' for Active; 'I' for Inactive)
REMARK    1  A    between atoms: O_1  and  P_2
REMARK    2  A    between atoms: P_2  and  O_3
REMARK    3  A    between atoms: P_2  and  S_5
REMARK                            x       y       z     vdW  Elec       q    Type
REMARK                         _______ _______ _______ _____ _____    ______ ____
ROOT
ATOM      1  P   UNL     1       6.801   5.186  16.928  0.00  0.00    +0.000 P 
ATOM      2  S   UNL     1       7.332   7.026  17.490  0.00  0.00    +0.000 S 
ENDROOT
BRANCH   1   3
ATOM      3  O   UNL     1       7.632   5.531  15.450  0.00  0.00    +0.000 OA
ATOM      4  H   UNL     1       7.067   6.200  15.002  0.00  0.00    +0.000 HD
ENDBRANCH   1   3
BRANCH   1   5
ATOM      5  O   UNL     1       8.043   4.165  17.233  0.00  0.00    +0.000 OA
ATOM      6  H   UNL     1       8.852   4.389  16.737  0.00  0.00    +0.000 HD
ENDBRANCH   1   5
BRANCH   1   7
ATOM      7  S   UNL     1       5.783   4.762  18.738  0.00  0.00    +0.000 S 
ATOM      8  H   UNL     1       4.897   5.757  18.635  0.00  0.00    +0.000 HD
ENDBRANCH   1   7
TORSDOF 3
ENDMDL
MODEL 2
REMARK VINA RESULT:      -3.0      1.659      1.947
REMARK  Name = 
REMARK  3 active torsions:
REMARK  status: ('A' for Active; 'I' for Inactive)
REMARK    1  A    between atoms: O_1  and  P_2
REMARK    2  A    between atoms: P_2  and  O_3
REMARK    3  A    between atoms: P_2  and  S_5
REMARK                            x       y       z     vdW  Elec       q    Type
REMARK                         _______ _______ _______ _____ _____    ______ ____
ROOT
ATOM      1  P   UNL     1       6.699   4.766  17.314  0.00  0.00    +0.000 P 
ATOM      2  S   UNL     1       7.467   6.454  18.051  0.00  0.00    +0.000 S 
ENDROOT
BRANCH   1   3
ATOM      3  O   UNL     1       8.240   4.061  17.660  0.00  0.00    +0.000 OA
ATOM      4  H   UNL     1       8.147   3.701  18.570  0.00  0.00    +0.000 HD
ENDBRANCH   1   3
BRANCH   1   5
ATOM      5  O   UNL     1       6.151   3.853  18.558  0.00  0.00    +0.000 OA
ATOM      6  H   UNL     1       5.505   3.178  18.279  0.00  0.00    +0.000 HD
ENDBRANCH   1   5
BRANCH   1   7
ATOM      7  S   UNL     1       4.810   5.630  16.891  0.00  0.00    +0.000 S 
ATOM      8  H   UNL     1       4.280   5.404  18.097  0.00  0.00    +0.000 HD
ENDBRANCH   1   7
TORSDOF 3
ENDMDL
MODEL 3
REMARK VINA RESULT:      -3.0      3.681      4.729
REMARK  Name = 
REMARK  3 active torsions:
REMARK  status: ('A' for Active; 'I' for Inactive)
REMARK    1  A    between atoms: O_1  and  P_2
REMARK    2  A    between atoms: P_2  and  O_3
REMARK    3  A    between atoms: P_2  and  S_5
REMARK                            x       y       z     vdW  Elec       q    Type
REMARK                         _______ _______ _______ _____ _____    ______ ____
ROOT
ATOM      1  P   UNL     1       4.293   3.290  19.288  0.00  0.00    +0.000 P 
ATOM      2  S   UNL     1       3.386   1.917  18.158  0.00  0.00    +0.000 S 
ENDROOT
BRANCH   1   3
ATOM      3  O   UNL     1       5.082   1.956  20.057  0.00  0.00    +0.000 OA
ATOM      4  H   UNL     1       5.978   1.935  19.652  0.00  0.00    +0.000 HD
ENDBRANCH   1   3
BRANCH   1   5
ATOM      5  O   UNL     1       5.761   3.615  18.642  0.00  0.00    +0.000 OA
ATOM      6  H   UNL     1       5.706   4.085  17.789  0.00  0.00    +0.000 HD
ENDBRANCH   1   5
BRANCH   1   7
ATOM      7  S   UNL     1       3.325   4.924  18.347  0.00  0.00    +0.000 S 
ATOM      8  H   UNL     1       2.427   5.130  19.314  0.00  0.00    +0.000 HD
ENDBRANCH   1   7
TORSDOF 3
ENDMDL
MODEL 4
REMARK VINA RESULT:      -2.9      1.969      2.538
REMARK  Name = 
REMARK  3 active torsions:
REMARK  status: ('A' for Active; 'I' for Inactive)
REMARK    1  A    between atoms: O_1  and  P_2
REMARK    2  A    between atoms: P_2  and  O_3
REMARK    3  A    between atoms: P_2  and  S_5
REMARK                            x       y       z     vdW  Elec       q    Type
REMARK                         _______ _______ _______ _____ _____    ______ ____
ROOT
ATOM      1  P   UNL     1       6.603   5.160  16.993  0.00  0.00    +0.000 P 
ATOM      2  S   UNL     1       6.018   3.934  15.531  0.00  0.00    +0.000 S 
ENDROOT
BRANCH   1   3
ATOM      3  O   UNL     1       8.021   4.172  17.085  0.00  0.00    +0.000 OA
ATOM      4  H   UNL     1       8.409   4.217  16.183  0.00  0.00    +0.000 HD
ENDBRANCH   1   3
BRANCH   1   5
ATOM      5  O   UNL     1       7.597   6.296  16.359  0.00  0.00    +0.000 OA
ATOM      6  H   UNL     1       8.015   6.859  17.036  0.00  0.00    +0.000 HD
ENDBRANCH   1   5
BRANCH   1   7
ATOM      7  S   UNL     1       4.867   6.370  16.881  0.00  0.00    +0.000 S 
ATOM      8  H   UNL     1       5.161   7.134  17.937  0.00  0.00    +0.000 HD
ENDBRANCH   1   7
TORSDOF 3
ENDMDL
MODEL 5
REMARK VINA RESULT:      -2.9      5.198      5.718
REMARK  Name = 
REMARK  3 active torsions:
REMARK  status: ('A' for Active; 'I' for Inactive)
REMARK    1  A    between atoms: O_1  and  P_2
REMARK    2  A    between atoms: P_2  and  O_3
REMARK    3  A    between atoms: P_2  and  S_5
REMARK                            x       y       z     vdW  Elec       q    Type
REMARK                         _______ _______ _______ _____ _____    ______ ____
ROOT
ATOM      1  P   UNL     1       3.079   2.213  18.101  0.00  0.00    +0.000 P 
ATOM      2  S   UNL     1       4.234   2.962  19.546  0.00  0.00    +0.000 S 
ENDROOT
BRANCH   1   3
ATOM      3  O   UNL     1       3.957   0.740  18.334  0.00  0.00    +0.000 OA
ATOM      4  H   UNL     1       3.466   0.076  17.801  0.00  0.00    +0.000 HD
ENDBRANCH   1   3
BRANCH   1   5
ATOM      5  O   UNL     1       1.825   1.419  18.791  0.00  0.00    +0.000 OA
ATOM      6  H   UNL     1       1.891   1.372  19.763  0.00  0.00    +0.000 HD
ENDBRANCH   1   5
BRANCH   1   7
ATOM      7  S   UNL     1       2.003   4.017  17.815  0.00  0.00    +0.000 S 
ATOM      8  H   UNL     1       0.902   3.626  18.463  0.00  0.00    +0.000 HD
ENDBRANCH   1   7
TORSDOF 3
ENDMDL
MODEL 6
REMARK VINA RESULT:      -2.9      1.735      2.714
REMARK  Name = 
REMARK  3 active torsions:
REMARK  status: ('A' for Active; 'I' for Inactive)
REMARK    1  A    between atoms: O_1  and  P_2
REMARK    2  A    between atoms: P_2  and  O_3
REMARK    3  A    between atoms: P_2  and  S_5
REMARK                            x       y       z     vdW  Elec       q    Type
REMARK                         _______ _______ _______ _____ _____    ______ ____
ROOT
ATOM      1  P   UNL     1       7.390   5.457  18.100  0.00  0.00    +0.000 P 
ATOM      2  S   UNL     1       5.717   4.981  19.078  0.00  0.00    +0.000 S 
ENDROOT
BRANCH   1   3
ATOM      3  O   UNL     1       8.159   5.420  19.649  0.00  0.00    +0.000 OA
ATOM      4  H   UNL     1       7.418   5.332  20.288  0.00  0.00    +0.000 HD
ENDBRANCH   1   3
BRANCH   1   5
ATOM      5  O   UNL     1       8.229   4.085  17.798  0.00  0.00    +0.000 OA
ATOM      6  H   UNL     1       7.676   3.373  17.427  0.00  0.00    +0.000 HD
ENDBRANCH   1   5
BRANCH   1   7
ATOM      7  S   UNL     1       6.448   5.503  16.201  0.00  0.00    +0.000 S 
ATOM      8  H   UNL     1       5.454   6.321  16.559  0.00  0.00    +0.000 HD
ENDBRANCH   1   7
TORSDOF 3
ENDMDL
MODEL 7
REMARK VINA RESULT:      -2.8      2.960      4.035
REMARK  Name = 
REMARK  3 active torsions:
REMARK  status: ('A' for Active; 'I' for Inactive)
REMARK    1  A    between atoms: O_1  and  P_2
REMARK    2  A    between atoms: P_2  and  O_3
REMARK    3  A    between atoms: P_2  and  S_5
REMARK                            x       y       z     vdW  Elec       q    Type
REMARK                         _______ _______ _______ _____ _____    ______ ____
ROOT
ATOM      1  P   UNL     1       4.789   4.046  18.960  0.00  0.00    +0.000 P 
ATOM      2  S   UNL     1       3.606   2.986  17.752  0.00  0.00    +0.000 S 
ENDROOT
BRANCH   1   3
ATOM      3  O   UNL     1       5.146   2.538  19.729  0.00  0.00    +0.000 OA
ATOM      4  H   UNL     1       4.293   2.051  19.721  0.00  0.00    +0.000 HD
ENDBRANCH   1   3
BRANCH   1   5
ATOM      5  O   UNL     1       6.322   3.968  18.392  0.00  0.00    +0.000 OA
ATOM      6  H   UNL     1       6.891   4.685  18.730  0.00  0.00    +0.000 HD
ENDBRANCH   1   5
BRANCH   1   7
ATOM      7  S   UNL     1       4.351   5.894  18.018  0.00  0.00    +0.000 S 
ATOM      8  H   UNL     1       5.382   6.565  18.541  0.00  0.00    +0.000 HD
ENDBRANCH   1   7
TORSDOF 3
ENDMDL
MODEL 8
REMARK VINA RESULT:      -2.8      8.530      9.446
REMARK  Name = 
REMARK  3 active torsions:
REMARK  status: ('A' for Active; 'I' for Inactive)
REMARK    1  A    between atoms: O_1  and  P_2
REMARK    2  A    between atoms: P_2  and  O_3
REMARK    3  A    between atoms: P_2  and  S_5
REMARK                            x       y       z     vdW  Elec       q    Type
REMARK                         _______ _______ _______ _____ _____    ______ ____
ROOT
ATOM      1  P   UNL     1      11.869  13.363  17.326  0.00  0.00    +0.000 P 
ATOM      2  S   UNL     1       9.952  12.925  17.669  0.00  0.00    +0.000 S 
ENDROOT
BRANCH   1   3
ATOM      3  O   UNL     1      12.155  11.664  17.474  0.00  0.00    +0.000 OA
ATOM      4  H   UNL     1      12.238  11.347  16.547  0.00  0.00    +0.000 HD
ENDBRANCH   1   3
BRANCH   1   5
ATOM      5  O   UNL     1      12.180  13.143  15.734  0.00  0.00    +0.000 OA
ATOM      6  H   UNL     1      11.488  13.513  15.155  0.00  0.00    +0.000 HD
ENDBRANCH   1   5
BRANCH   1   7
ATOM      7  S   UNL     1      11.518  15.446  17.144  0.00  0.00    +0.000 S 
ATOM      8  H   UNL     1      12.066  15.574  15.932  0.00  0.00    +0.000 HD
ENDBRANCH   1   7
TORSDOF 3
ENDMDL
MODEL 9
REMARK VINA RESULT:      -2.8      1.741      2.819
REMARK  Name = 
REMARK  3 active torsions:
REMARK  status: ('A' for Active; 'I' for Inactive)
REMARK    1  A    between atoms: O_1  and  P_2
REMARK    2  A    between atoms: P_2  and  O_3
REMARK    3  A    between atoms: P_2  and  S_5
REMARK                            x       y       z     vdW  Elec       q    Type
REMARK                         _______ _______ _______ _____ _____    ______ ____
ROOT
ATOM      1  P   UNL     1       6.438   5.118  18.280  0.00  0.00    +0.000 P 
ATOM      2  S   UNL     1       5.155   4.886  16.768  0.00  0.00    +0.000 S 
ENDROOT
BRANCH   1   3
ATOM      3  O   UNL     1       5.768   3.653  18.910  0.00  0.00    +0.000 OA
ATOM      4  H   UNL     1       4.874   3.599  18.506  0.00  0.00    +0.000 HD
ENDBRANCH   1   3
BRANCH   1   5
ATOM      5  O   UNL     1       7.773   4.221  17.976  0.00  0.00    +0.000 OA
ATOM      6  H   UNL     1       8.373   4.158  18.743  0.00  0.00    +0.000 HD
ENDBRANCH   1   5
BRANCH   1   7
ATOM      7  S   UNL     1       7.259   6.914  17.508  0.00  0.00    +0.000 S 
ATOM      8  H   UNL     1       8.284   6.337  16.874  0.00  0.00    +0.000 HD
ENDBRANCH   1   7
TORSDOF 3
ENDMDL
