MODEL 1
REMARK VINA RESULT:      -6.9      0.000      0.000
REMARK  Name = 
REMARK  8 active torsions:
REMARK  status: ('A' for Active; 'I' for Inactive)
REMARK    1  A    between atoms: C_1  and  O_2
REMARK    2  A    between atoms: O_2  and  C_3
REMARK    3  A    between atoms: C_3  and  C_4
REMARK    4  A    between atoms: C_4  and  C_5
REMARK    5  A    between atoms: C_4  and  N_6
REMARK    6  A    between atoms: N_6  and  S_7
REMARK    7  A    between atoms: S_7  and  C_10
REMARK    8  A    between atoms: C_13  and  N_14
REMARK                            x       y       z     vdW  Elec       q    Type
REMARK                         _______ _______ _______ _____ _____    ______ ____
ROOT
ATOM      1  C   UNL     1       1.540   8.866  19.694  0.00  0.00    +0.000 A 
ATOM      2  C   UNL     1       2.038   8.589  18.415  0.00  0.00    +0.000 A 
ATOM      3  C   UNL     1       2.440   7.287  18.101  0.00  0.00    +0.000 A 
ATOM      4  C   UNL     1       2.351   6.283  19.067  0.00  0.00    +0.000 A 
ATOM      5  C   UNL     1       1.922   6.585  20.362  0.00  0.00    +0.000 A 
ATOM      6  C   UNL     1       1.515   7.879  20.683  0.00  0.00    +0.000 A 
ENDROOT
BRANCH   4   7
ATOM      7  N   UNL     1       2.713   4.933  18.788  0.00  0.00    +0.000 N 
ATOM      8  C   UNL     1       1.848   4.126  17.908  0.00  0.00    +0.000 C 
ATOM      9  C   UNL     1       1.892   2.679  18.400  0.00  0.00    +0.000 C 
ATOM     10  C   UNL     1       3.305   2.083  18.366  0.00  0.00    +0.000 C 
ATOM     11  C   UNL     1       4.312   2.885  19.183  0.00  0.00    +0.000 C 
ATOM     12  S   UNL     1       4.373   4.591  18.669  0.00  0.00    +0.000 S 
ATOM     13  O   UNL     1       4.751   4.647  17.271  0.00  0.00    +0.000 OA
ATOM     14  O   UNL     1       5.093   5.336  19.680  0.00  0.00    +0.000 OA
ENDBRANCH   4   7
BRANCH   1  15
ATOM     15  S   UNL     1       0.858  10.472  20.070  0.00  0.00    +0.000 S 
ATOM     16  O   UNL     1       1.353  11.417  19.098  0.00  0.00    +0.000 OA
ATOM     17  O   UNL     1       1.019  10.658  21.496  0.00  0.00    +0.000 OA
BRANCH  15  18
ATOM     18  N   UNL     1      -0.798  10.233  19.780  0.00  0.00    +0.000 NA
ATOM     19  H   UNL     1      -1.072   9.257  19.871  0.00  0.00    +0.000 HD
BRANCH  18  20
ATOM     20  C   UNL     1      -1.467  10.982  18.682  0.00  0.00    +0.000 C 
ATOM     21  C   UNL     1      -2.214  12.169  19.298  0.00  0.00    +0.000 C 
BRANCH  20  22
ATOM     22  C   UNL     1      -2.426  10.102  17.868  0.00  0.00    +0.000 C 
BRANCH  22  24
ATOM     23  C   UNL     1      -2.822  10.751  15.652  0.00  0.00    +0.000 C 
ATOM     24  O   UNL     1      -1.993   9.982  16.515  0.00  0.00    +0.000 OA
ENDBRANCH  22  24
ENDBRANCH  20  22
ENDBRANCH  18  20
ENDBRANCH  15  18
ENDBRANCH   1  15
TORSDOF 6
ENDMDL
MODEL 2
REMARK VINA RESULT:      -6.7      1.105      1.631
REMARK  Name = 
REMARK  8 active torsions:
REMARK  status: ('A' for Active; 'I' for Inactive)
REMARK    1  A    between atoms: C_1  and  O_2
REMARK    2  A    between atoms: O_2  and  C_3
REMARK    3  A    between atoms: C_3  and  C_4
REMARK    4  A    between atoms: C_4  and  C_5
REMARK    5  A    between atoms: C_4  and  N_6
REMARK    6  A    between atoms: N_6  and  S_7
REMARK    7  A    between atoms: S_7  and  C_10
REMARK    8  A    between atoms: C_13  and  N_14
REMARK                            x       y       z     vdW  Elec       q    Type
REMARK                         _______ _______ _______ _____ _____    ______ ____
ROOT
ATOM      1  C   UNL     1       1.860   8.783  18.937  0.00  0.00    +0.000 A 
ATOM      2  C   UNL     1       2.472   8.300  17.773  0.00  0.00    +0.000 A 
ATOM      3  C   UNL     1       2.857   6.958  17.704  0.00  0.00    +0.000 A 
ATOM      4  C   UNL     1       2.637   6.118  18.797  0.00  0.00    +0.000 A 
ATOM      5  C   UNL     1       2.093   6.625  19.980  0.00  0.00    +0.000 A 
ATOM      6  C   UNL     1       1.703   7.961  20.057  0.00  0.00    +0.000 A 
ENDROOT
BRANCH   4   7
ATOM      7  N   UNL     1       2.976   4.734  18.765  0.00  0.00    +0.000 N 
ATOM      8  C   UNL     1       2.135   3.806  17.987  0.00  0.00    +0.000 C 
ATOM      9  C   UNL     1       2.117   2.461  18.715  0.00  0.00    +0.000 C 
ATOM     10  C   UNL     1       3.513   1.843  18.855  0.00  0.00    +0.000 C 
ATOM     11  C   UNL     1       4.500   2.753  19.580  0.00  0.00    +0.000 C 
ATOM     12  S   UNL     1       4.630   4.347  18.793  0.00  0.00    +0.000 S 
ATOM     13  O   UNL     1       5.079   4.162  17.428  0.00  0.00    +0.000 OA
ATOM     14  O   UNL     1       5.320   5.237  19.703  0.00  0.00    +0.000 OA
ENDBRANCH   4   7
BRANCH   1  15
ATOM     15  S   UNL     1       1.202  10.440  18.991  0.00  0.00    +0.000 S 
ATOM     16  O   UNL     1       2.148  11.329  18.360  0.00  0.00    +0.000 OA
ATOM     17  O   UNL     1       0.720  10.641  20.341  0.00  0.00    +0.000 OA
BRANCH  15  18
ATOM     18  N   UNL     1      -0.160  10.317  17.986  0.00  0.00    +0.000 NA
ATOM     19  H   UNL     1       0.007  10.692  17.055  0.00  0.00    +0.000 HD
BRANCH  18  20
ATOM     20  C   UNL     1      -1.513  10.586  18.546  0.00  0.00    +0.000 C 
ATOM     21  C   UNL     1      -2.551   9.942  17.623  0.00  0.00    +0.000 C 
BRANCH  20  22
ATOM     22  C   UNL     1      -1.793  12.087  18.711  0.00  0.00    +0.000 C 
BRANCH  22  24
ATOM     23  C   UNL     1      -0.321  13.909  18.626  0.00  0.00    +0.000 C 
ATOM     24  O   UNL     1      -0.936  12.865  17.879  0.00  0.00    +0.000 OA
ENDBRANCH  22  24
ENDBRANCH  20  22
ENDBRANCH  18  20
ENDBRANCH  15  18
ENDBRANCH   1  15
TORSDOF 6
ENDMDL
MODEL 3
REMARK VINA RESULT:      -6.6      1.787      7.657
REMARK  Name = 
REMARK  8 active torsions:
REMARK  status: ('A' for Active; 'I' for Inactive)
REMARK    1  A    between atoms: C_1  and  O_2
REMARK    2  A    between atoms: O_2  and  C_3
REMARK    3  A    between atoms: C_3  and  C_4
REMARK    4  A    between atoms: C_4  and  C_5
REMARK    5  A    between atoms: C_4  and  N_6
REMARK    6  A    between atoms: N_6  and  S_7
REMARK    7  A    between atoms: S_7  and  C_10
REMARK    8  A    between atoms: C_13  and  N_14
REMARK                            x       y       z     vdW  Elec       q    Type
REMARK                         _______ _______ _______ _____ _____    ______ ____
ROOT
ATOM      1  C   UNL     1       2.580   7.340  18.832  0.00  0.00    +0.000 A 
ATOM      2  C   UNL     1       1.974   7.475  20.087  0.00  0.00    +0.000 A 
ATOM      3  C   UNL     1       1.136   8.567  20.333  0.00  0.00    +0.000 A 
ATOM      4  C   UNL     1       0.922   9.514  19.330  0.00  0.00    +0.000 A 
ATOM      5  C   UNL     1       1.587   9.410  18.106  0.00  0.00    +0.000 A 
ATOM      6  C   UNL     1       2.421   8.322  17.850  0.00  0.00    +0.000 A 
ENDROOT
BRANCH   4   7
ATOM      7  N   UNL     1       0.048  10.625  19.515  0.00  0.00    +0.000 N 
ATOM      8  C   UNL     1      -1.302  10.583  18.925  0.00  0.00    +0.000 C 
ATOM      9  C   UNL     1      -1.679  12.006  18.508  0.00  0.00    +0.000 C 
ATOM     10  C   UNL     1      -1.699  12.985  19.688  0.00  0.00    +0.000 C 
ATOM     11  C   UNL     1      -0.369  13.054  20.431  0.00  0.00    +0.000 C 
ATOM     12  S   UNL     1       0.155  11.447  20.999  0.00  0.00    +0.000 S 
ATOM     13  O   UNL     1      -0.853  10.912  21.890  0.00  0.00    +0.000 OA
ATOM     14  O   UNL     1       1.544  11.547  21.397  0.00  0.00    +0.000 OA
ENDBRANCH   4   7
BRANCH   1  15
ATOM     15  S   UNL     1       3.511   5.872  18.431  0.00  0.00    +0.000 S 
ATOM     16  O   UNL     1       4.282   5.489  19.590  0.00  0.00    +0.000 OA
ATOM     17  O   UNL     1       4.111   6.112  17.136  0.00  0.00    +0.000 OA
BRANCH  15  18
ATOM     18  N   UNL     1       2.284   4.720  18.208  0.00  0.00    +0.000 NA
ATOM     19  H   UNL     1       1.365   5.146  18.096  0.00  0.00    +0.000 HD
BRANCH  18  20
ATOM     20  C   UNL     1       2.307   3.459  18.998  0.00  0.00    +0.000 C 
ATOM     21  C   UNL     1       2.799   2.331  18.085  0.00  0.00    +0.000 C 
BRANCH  20  22
ATOM     22  C   UNL     1       0.936   3.113  19.595  0.00  0.00    +0.000 C 
BRANCH  22  24
ATOM     23  C   UNL     1       2.141   3.532  21.561  0.00  0.00    +0.000 C 
ATOM     24  O   UNL     1       1.036   2.840  20.991  0.00  0.00    +0.000 OA
ENDBRANCH  22  24
ENDBRANCH  20  22
ENDBRANCH  18  20
ENDBRANCH  15  18
ENDBRANCH   1  15
TORSDOF 6
ENDMDL
MODEL 4
REMARK VINA RESULT:      -6.6      2.018      7.562
REMARK  Name = 
REMARK  8 active torsions:
REMARK  status: ('A' for Active; 'I' for Inactive)
REMARK    1  A    between atoms: C_1  and  O_2
REMARK    2  A    between atoms: O_2  and  C_3
REMARK    3  A    between atoms: C_3  and  C_4
REMARK    4  A    between atoms: C_4  and  C_5
REMARK    5  A    between atoms: C_4  and  N_6
REMARK    6  A    between atoms: N_6  and  S_7
REMARK    7  A    between atoms: S_7  and  C_10
REMARK    8  A    between atoms: C_13  and  N_14
REMARK                            x       y       z     vdW  Elec       q    Type
REMARK                         _______ _______ _______ _____ _____    ______ ____
ROOT
ATOM      1  C   UNL     1       2.514   7.373  18.681  0.00  0.00    +0.000 A 
ATOM      2  C   UNL     1       2.256   8.275  17.642  0.00  0.00    +0.000 A 
ATOM      3  C   UNL     1       1.549   9.451  17.910  0.00  0.00    +0.000 A 
ATOM      4  C   UNL     1       1.099   9.707  19.206  0.00  0.00    +0.000 A 
ATOM      5  C   UNL     1       1.297   8.767  20.221  0.00  0.00    +0.000 A 
ATOM      6  C   UNL     1       2.005   7.594  19.964  0.00  0.00    +0.000 A 
ENDROOT
BRANCH   4   7
ATOM      7  N   UNL     1       0.406  10.906  19.542  0.00  0.00    +0.000 N 
ATOM      8  C   UNL     1      -0.772  10.831  20.426  0.00  0.00    +0.000 C 
ATOM      9  C   UNL     1      -1.763  11.910  19.986  0.00  0.00    +0.000 C 
ATOM     10  C   UNL     1      -1.179  13.325  20.079  0.00  0.00    +0.000 C 
ATOM     11  C   UNL     1       0.097  13.501  19.262  0.00  0.00    +0.000 C 
ATOM     12  S   UNL     1       1.344  12.312  19.718  0.00  0.00    +0.000 S 
ATOM     13  O   UNL     1       1.659  12.477  21.122  0.00  0.00    +0.000 OA
ATOM     14  O   UNL     1       2.374  12.336  18.701  0.00  0.00    +0.000 OA
ENDBRANCH   4   7
BRANCH   1  15
ATOM     15  S   UNL     1       3.560   5.955  18.407  0.00  0.00    +0.000 S 
ATOM     16  O   UNL     1       4.134   5.559  19.671  0.00  0.00    +0.000 OA
ATOM     17  O   UNL     1       4.365   6.262  17.244  0.00  0.00    +0.000 OA
BRANCH  15  18
ATOM     18  N   UNL     1       2.440   4.768  17.940  0.00  0.00    +0.000 NA
ATOM     19  H   UNL     1       1.570   5.169  17.593  0.00  0.00    +0.000 HD
BRANCH  18  20
ATOM     20  C   UNL     1       2.288   3.537  18.762  0.00  0.00    +0.000 C 
ATOM     21  C   UNL     1       2.357   2.325  17.828  0.00  0.00    +0.000 C 
BRANCH  20  22
ATOM     22  C   UNL     1       0.981   3.525  19.568  0.00  0.00    +0.000 C 
BRANCH  22  24
ATOM     23  C   UNL     1       2.139   3.311  21.594  0.00  0.00    +0.000 C 
ATOM     24  O   UNL     1       1.174   4.067  20.872  0.00  0.00    +0.000 OA
ENDBRANCH  22  24
ENDBRANCH  20  22
ENDBRANCH  18  20
ENDBRANCH  15  18
ENDBRANCH   1  15
TORSDOF 6
ENDMDL
MODEL 5
REMARK VINA RESULT:      -6.6      2.588      7.922
REMARK  Name = 
REMARK  8 active torsions:
REMARK  status: ('A' for Active; 'I' for Inactive)
REMARK    1  A    between atoms: C_1  and  O_2
REMARK    2  A    between atoms: O_2  and  C_3
REMARK    3  A    between atoms: C_3  and  C_4
REMARK    4  A    between atoms: C_4  and  C_5
REMARK    5  A    between atoms: C_4  and  N_6
REMARK    6  A    between atoms: N_6  and  S_7
REMARK    7  A    between atoms: S_7  and  C_10
REMARK    8  A    between atoms: C_13  and  N_14
REMARK                            x       y       z     vdW  Elec       q    Type
REMARK                         _______ _______ _______ _____ _____    ______ ____
ROOT
ATOM      1  C   UNL     1       2.599   7.285  18.667  0.00  0.00    +0.000 A 
ATOM      2  C   UNL     1       2.333   8.145  17.595  0.00  0.00    +0.000 A 
ATOM      3  C   UNL     1       1.603   9.317  17.817  0.00  0.00    +0.000 A 
ATOM      4  C   UNL     1       1.138   9.609  19.100  0.00  0.00    +0.000 A 
ATOM      5  C   UNL     1       1.345   8.710  20.149  0.00  0.00    +0.000 A 
ATOM      6  C   UNL     1       2.076   7.541  19.938  0.00  0.00    +0.000 A 
ENDROOT
BRANCH   4   7
ATOM      7  N   UNL     1       0.421  10.807  19.389  0.00  0.00    +0.000 N 
ATOM      8  C   UNL     1      -0.802  10.731  20.210  0.00  0.00    +0.000 C 
ATOM      9  C   UNL     1      -1.774  11.800  19.708  0.00  0.00    +0.000 C 
ATOM     10  C   UNL     1      -1.204  13.220  19.821  0.00  0.00    +0.000 C 
ATOM     11  C   UNL     1       0.112  13.398  19.071  0.00  0.00    +0.000 C 
ATOM     12  S   UNL     1       1.340  12.220  19.602  0.00  0.00    +0.000 S 
ATOM     13  O   UNL     1       1.580  12.398  21.020  0.00  0.00    +0.000 OA
ATOM     14  O   UNL     1       2.423  12.242  18.642  0.00  0.00    +0.000 OA
ENDBRANCH   4   7
BRANCH   1  15
ATOM     15  S   UNL     1       3.673   5.876  18.451  0.00  0.00    +0.000 S 
ATOM     16  O   UNL     1       3.031   4.945  17.555  0.00  0.00    +0.000 OA
ATOM     17  O   UNL     1       4.125   5.504  19.774  0.00  0.00    +0.000 OA
BRANCH  15  18
ATOM     18  N   UNL     1       5.000   6.560  17.642  0.00  0.00    +0.000 NA
ATOM     19  H   UNL     1       4.791   6.783  16.671  0.00  0.00    +0.000 HD
BRANCH  18  20
ATOM     20  C   UNL     1       6.366   6.027  17.893  0.00  0.00    +0.000 C 
ATOM     21  C   UNL     1       7.380   7.112  17.518  0.00  0.00    +0.000 C 
BRANCH  20  22
ATOM     22  C   UNL     1       6.646   4.733  17.115  0.00  0.00    +0.000 C 
BRANCH  22  24
ATOM     23  C   UNL     1       6.889   4.616  14.787  0.00  0.00    +0.000 C 
ATOM     24  O   UNL     1       7.517   4.974  16.012  0.00  0.00    +0.000 OA
ENDBRANCH  22  24
ENDBRANCH  20  22
ENDBRANCH  18  20
ENDBRANCH  15  18
ENDBRANCH   1  15
TORSDOF 6
ENDMDL
MODEL 6
REMARK VINA RESULT:      -6.6      1.878      2.305
REMARK  Name = 
REMARK  8 active torsions:
REMARK  status: ('A' for Active; 'I' for Inactive)
REMARK    1  A    between atoms: C_1  and  O_2
REMARK    2  A    between atoms: O_2  and  C_3
REMARK    3  A    between atoms: C_3  and  C_4
REMARK    4  A    between atoms: C_4  and  C_5
REMARK    5  A    between atoms: C_4  and  N_6
REMARK    6  A    between atoms: N_6  and  S_7
REMARK    7  A    between atoms: S_7  and  C_10
REMARK    8  A    between atoms: C_13  and  N_14
REMARK                            x       y       z     vdW  Elec       q    Type
REMARK                         _______ _______ _______ _____ _____    ______ ____
ROOT
ATOM      1  C   UNL     1       1.226   9.403  19.209  0.00  0.00    +0.000 A 
ATOM      2  C   UNL     1       1.796   9.124  17.962  0.00  0.00    +0.000 A 
ATOM      3  C   UNL     1       2.435   7.897  17.755  0.00  0.00    +0.000 A 
ATOM      4  C   UNL     1       2.507   6.971  18.797  0.00  0.00    +0.000 A 
ATOM      5  C   UNL     1       2.000   7.287  20.060  0.00  0.00    +0.000 A 
ATOM      6  C   UNL     1       1.357   8.506  20.273  0.00  0.00    +0.000 A 
ENDROOT
BRANCH   4   7
ATOM      7  N   UNL     1       3.114   5.692  18.630  0.00  0.00    +0.000 N 
ATOM      8  C   UNL     1       4.303   5.352  19.433  0.00  0.00    +0.000 C 
ATOM      9  C   UNL     1       5.208   4.459  18.582  0.00  0.00    +0.000 C 
ATOM     10  C   UNL     1       4.524   3.154  18.156  0.00  0.00    +0.000 C 
ATOM     11  C   UNL     1       3.230   3.383  17.380  0.00  0.00    +0.000 C 
ATOM     12  S   UNL     1       2.078   4.388  18.297  0.00  0.00    +0.000 S 
ATOM     13  O   UNL     1       1.765   3.724  19.546  0.00  0.00    +0.000 OA
ATOM     14  O   UNL     1       1.038   4.816  17.385  0.00  0.00    +0.000 OA
ENDBRANCH   4   7
BRANCH   1  15
ATOM     15  S   UNL     1       0.255  10.880  19.449  0.00  0.00    +0.000 S 
ATOM     16  O   UNL     1       1.151  12.009  19.523  0.00  0.00    +0.000 OA
ATOM     17  O   UNL     1      -0.703  10.572  20.490  0.00  0.00    +0.000 OA
BRANCH  15  18
ATOM     18  N   UNL     1      -0.607  10.982  17.990  0.00  0.00    +0.000 NA
ATOM     19  H   UNL     1      -0.466  11.873  17.516  0.00  0.00    +0.000 HD
BRANCH  18  20
ATOM     20  C   UNL     1      -1.988  10.432  17.913  0.00  0.00    +0.000 C 
ATOM     21  C   UNL     1      -2.134   9.690  16.582  0.00  0.00    +0.000 C 
BRANCH  20  22
ATOM     22  C   UNL     1      -3.063  11.520  18.047  0.00  0.00    +0.000 C 
BRANCH  22  24
ATOM     23  C   UNL     1      -5.287  12.033  17.516  0.00  0.00    +0.000 C 
ATOM     24  O   UNL     1      -4.127  11.309  17.123  0.00  0.00    +0.000 OA
ENDBRANCH  22  24
ENDBRANCH  20  22
ENDBRANCH  18  20
ENDBRANCH  15  18
ENDBRANCH   1  15
TORSDOF 6
ENDMDL
MODEL 7
REMARK VINA RESULT:      -6.6      2.075      7.707
REMARK  Name = 
REMARK  8 active torsions:
REMARK  status: ('A' for Active; 'I' for Inactive)
REMARK    1  A    between atoms: C_1  and  O_2
REMARK    2  A    between atoms: O_2  and  C_3
REMARK    3  A    between atoms: C_3  and  C_4
REMARK    4  A    between atoms: C_4  and  C_5
REMARK    5  A    between atoms: C_4  and  N_6
REMARK    6  A    between atoms: N_6  and  S_7
REMARK    7  A    between atoms: S_7  and  C_10
REMARK    8  A    between atoms: C_13  and  N_14
REMARK                            x       y       z     vdW  Elec       q    Type
REMARK                         _______ _______ _______ _____ _____    ______ ____
ROOT
ATOM      1  C   UNL     1       2.355   7.525  18.823  0.00  0.00    +0.000 A 
ATOM      2  C   UNL     1       2.079   8.488  17.845  0.00  0.00    +0.000 A 
ATOM      3  C   UNL     1       1.357   9.634  18.191  0.00  0.00    +0.000 A 
ATOM      4  C   UNL     1       0.911   9.800  19.503  0.00  0.00    +0.000 A 
ATOM      5  C   UNL     1       1.127   8.801  20.455  0.00  0.00    +0.000 A 
ATOM      6  C   UNL     1       1.850   7.656  20.120  0.00  0.00    +0.000 A 
ENDROOT
BRANCH   4   7
ATOM      7  N   UNL     1       0.203  10.966  19.918  0.00  0.00    +0.000 N 
ATOM      8  C   UNL     1       0.958  12.104  20.473  0.00  0.00    +0.000 C 
ATOM      9  C   UNL     1       0.091  12.769  21.543  0.00  0.00    +0.000 C 
ATOM     10  C   UNL     1      -1.238  13.297  20.987  0.00  0.00    +0.000 C 
ATOM     11  C   UNL     1      -2.076  12.215  20.313  0.00  0.00    +0.000 C 
ATOM     12  S   UNL     1      -1.172  11.391  19.016  0.00  0.00    +0.000 S 
ATOM     13  O   UNL     1      -0.781  12.369  18.021  0.00  0.00    +0.000 OA
ATOM     14  O   UNL     1      -1.903  10.195  18.656  0.00  0.00    +0.000 OA
ENDBRANCH   4   7
BRANCH   1  15
ATOM     15  S   UNL     1       3.420   6.142  18.455  0.00  0.00    +0.000 S 
ATOM     16  O   UNL     1       4.033   5.697  19.684  0.00  0.00    +0.000 OA
ATOM     17  O   UNL     1       4.189   6.520  17.289  0.00  0.00    +0.000 OA
BRANCH  15  18
ATOM     18  N   UNL     1       2.309   4.958  17.959  0.00  0.00    +0.000 NA
ATOM     19  H   UNL     1       1.393   5.349  17.744  0.00  0.00    +0.000 HD
BRANCH  18  20
ATOM     20  C   UNL     1       2.291   3.636  18.641  0.00  0.00    +0.000 C 
ATOM     21  C   UNL     1       2.465   2.546  17.579  0.00  0.00    +0.000 C 
BRANCH  20  22
ATOM     22  C   UNL     1       1.003   3.406  19.445  0.00  0.00    +0.000 C 
BRANCH  22  24
ATOM     23  C   UNL     1       1.612   2.856  21.641  0.00  0.00    +0.000 C 
ATOM     24  O   UNL     1       1.137   3.886  20.781  0.00  0.00    +0.000 OA
ENDBRANCH  22  24
ENDBRANCH  20  22
ENDBRANCH  18  20
ENDBRANCH  15  18
ENDBRANCH   1  15
TORSDOF 6
ENDMDL
MODEL 8
REMARK VINA RESULT:      -6.5      2.500      7.971
REMARK  Name = 
REMARK  8 active torsions:
REMARK  status: ('A' for Active; 'I' for Inactive)
REMARK    1  A    between atoms: C_1  and  O_2
REMARK    2  A    between atoms: O_2  and  C_3
REMARK    3  A    between atoms: C_3  and  C_4
REMARK    4  A    between atoms: C_4  and  C_5
REMARK    5  A    between atoms: C_4  and  N_6
REMARK    6  A    between atoms: N_6  and  S_7
REMARK    7  A    between atoms: S_7  and  C_10
REMARK    8  A    between atoms: C_13  and  N_14
REMARK                            x       y       z     vdW  Elec       q    Type
REMARK                         _______ _______ _______ _____ _____    ______ ____
ROOT
ATOM      1  C   UNL     1       2.769   7.286  18.717  0.00  0.00    +0.000 A 
ATOM      2  C   UNL     1       2.163   7.489  19.963  0.00  0.00    +0.000 A 
ATOM      3  C   UNL     1       1.342   8.604  20.155  0.00  0.00    +0.000 A 
ATOM      4  C   UNL     1       1.144   9.507  19.109  0.00  0.00    +0.000 A 
ATOM      5  C   UNL     1       1.810   9.335  17.893  0.00  0.00    +0.000 A 
ATOM      6  C   UNL     1       2.628   8.224  17.690  0.00  0.00    +0.000 A 
ENDROOT
BRANCH   4   7
ATOM      7  N   UNL     1       0.288  10.639  19.240  0.00  0.00    +0.000 N 
ATOM      8  C   UNL     1      -1.111  10.436  19.659  0.00  0.00    +0.000 C 
ATOM      9  C   UNL     1      -1.971  11.486  18.954  0.00  0.00    +0.000 C 
ATOM     10  C   UNL     1      -1.565  12.922  19.308  0.00  0.00    +0.000 C 
ATOM     11  C   UNL     1      -0.105  13.226  18.990  0.00  0.00    +0.000 C 
ATOM     12  S   UNL     1       0.999  12.079  19.793  0.00  0.00    +0.000 S 
ATOM     13  O   UNL     1       0.803  12.164  21.226  0.00  0.00    +0.000 OA
ATOM     14  O   UNL     1       2.310  12.232  19.197  0.00  0.00    +0.000 OA
ENDBRANCH   4   7
BRANCH   1  15
ATOM     15  S   UNL     1       3.678   5.787  18.388  0.00  0.00    +0.000 S 
ATOM     16  O   UNL     1       2.873   4.941  17.540  0.00  0.00    +0.000 OA
ATOM     17  O   UNL     1       4.206   5.344  19.661  0.00  0.00    +0.000 OA
BRANCH  15  18
ATOM     18  N   UNL     1       4.990   6.357  17.474  0.00  0.00    +0.000 NA
ATOM     19  H   UNL     1       4.792   6.372  16.475  0.00  0.00    +0.000 HD
BRANCH  18  20
ATOM     20  C   UNL     1       6.373   5.950  17.841  0.00  0.00    +0.000 C 
ATOM     21  C   UNL     1       7.320   7.105  17.498  0.00  0.00    +0.000 C 
BRANCH  20  22
ATOM     22  C   UNL     1       6.815   4.660  17.135  0.00  0.00    +0.000 C 
BRANCH  22  24
ATOM     23  C   UNL     1       6.805   4.554  14.794  0.00  0.00    +0.000 C 
ATOM     24  O   UNL     1       7.543   4.949  15.944  0.00  0.00    +0.000 OA
ENDBRANCH  22  24
ENDBRANCH  20  22
ENDBRANCH  18  20
ENDBRANCH  15  18
ENDBRANCH   1  15
TORSDOF 6
ENDMDL
MODEL 9
REMARK VINA RESULT:      -6.5      1.921      2.526
REMARK  Name = 
REMARK  8 active torsions:
REMARK  status: ('A' for Active; 'I' for Inactive)
REMARK    1  A    between atoms: C_1  and  O_2
REMARK    2  A    between atoms: O_2  and  C_3
REMARK    3  A    between atoms: C_3  and  C_4
REMARK    4  A    between atoms: C_4  and  C_5
REMARK    5  A    between atoms: C_4  and  N_6
REMARK    6  A    between atoms: N_6  and  S_7
REMARK    7  A    between atoms: S_7  and  C_10
REMARK    8  A    between atoms: C_13  and  N_14
REMARK                            x       y       z     vdW  Elec       q    Type
REMARK                         _______ _______ _______ _____ _____    ______ ____
ROOT
ATOM      1  C   UNL     1       1.170   9.409  19.241  0.00  0.00    +0.000 A 
ATOM      2  C   UNL     1       1.477   8.414  20.177  0.00  0.00    +0.000 A 
ATOM      3  C   UNL     1       2.229   7.303  19.780  0.00  0.00    +0.000 A 
ATOM      4  C   UNL     1       2.653   7.194  18.455  0.00  0.00    +0.000 A 
ATOM      5  C   UNL     1       2.280   8.154  17.511  0.00  0.00    +0.000 A 
ATOM      6  C   UNL     1       1.535   9.267  17.899  0.00  0.00    +0.000 A 
ENDROOT
BRANCH   4   7
ATOM      7  N   UNL     1       3.452   6.102  18.006  0.00  0.00    +0.000 N 
ATOM      8  C   UNL     1       4.916   6.267  17.929  0.00  0.00    +0.000 C 
ATOM      9  C   UNL     1       5.422   5.447  16.742  0.00  0.00    +0.000 C 
ATOM     10  C   UNL     1       5.112   3.951  16.878  0.00  0.00    +0.000 C 
ATOM     11  C   UNL     1       3.624   3.661  17.045  0.00  0.00    +0.000 C 
ATOM     12  S   UNL     1       2.930   4.542  18.431  0.00  0.00    +0.000 S 
ATOM     13  O   UNL     1       3.624   4.142  19.638  0.00  0.00    +0.000 OA
ATOM     14  O   UNL     1       1.488   4.470  18.327  0.00  0.00    +0.000 OA
ENDBRANCH   4   7
BRANCH   1  15
ATOM     15  S   UNL     1       0.366  10.916  19.755  0.00  0.00    +0.000 S 
ATOM     16  O   UNL     1       1.369  11.943  19.899  0.00  0.00    +0.000 OA
ATOM     17  O   UNL     1      -0.539  10.549  20.824  0.00  0.00    +0.000 OA
BRANCH  15  18
ATOM     18  N   UNL     1      -0.587  11.293  18.401  0.00  0.00    +0.000 NA
ATOM     19  H   UNL     1      -0.540  12.279  18.154  0.00  0.00    +0.000 HD
BRANCH  18  20
ATOM     20  C   UNL     1      -1.926  10.662  18.247  0.00  0.00    +0.000 C 
ATOM     21  C   UNL     1      -1.939   9.879  16.931  0.00  0.00    +0.000 C 
BRANCH  20  22
ATOM     22  C   UNL     1      -3.067  11.690  18.277  0.00  0.00    +0.000 C 
BRANCH  22  24
ATOM     23  C   UNL     1      -5.275  11.884  17.515  0.00  0.00    +0.000 C 
ATOM     24  O   UNL     1      -3.945  11.516  17.167  0.00  0.00    +0.000 OA
ENDBRANCH  22  24
ENDBRANCH  20  22
ENDBRANCH  18  20
ENDBRANCH  15  18
ENDBRANCH   1  15
TORSDOF 6
ENDMDL
