MODEL 1
REMARK VINA RESULT:      -9.3      0.000      0.000
REMARK  Name = 
REMARK  3 active torsions:
REMARK  status: ('A' for Active; 'I' for Inactive)
REMARK    1  A    between atoms: N_2  and  C_4
REMARK    2  A    between atoms: C_7  and  N_8
REMARK    3  A    between atoms: N_8  and  C_9
REMARK                            x       y       z     vdW  Elec       q    Type
REMARK                         _______ _______ _______ _____ _____    ______ ____
ROOT
ATOM      1  C   UNL     1       3.638   5.233  19.037  0.00  0.00    +0.000 A 
ATOM      2  C   UNL     1       4.269   5.215  17.739  0.00  0.00    +0.000 A 
ATOM      3  C   UNL     1       4.498   6.284  16.830  0.00  0.00    +0.000 A 
ATOM      4  C   UNL     1       5.297   6.157  15.696  0.00  0.00    +0.000 A 
ATOM      5  C   UNL     1       5.860   4.927  15.403  0.00  0.00    +0.000 A 
ATOM      6  C   UNL     1       5.462   3.823  16.146  0.00  0.00    +0.000 A 
ATOM      7  C   UNL     1       4.576   3.957  17.209  0.00  0.00    +0.000 A 
ATOM      8  N   UNL     1       3.864   2.895  17.572  0.00  0.00    +0.000 NA
ATOM      9  C   UNL     1       2.973   3.092  18.526  0.00  0.00    +0.000 A 
ATOM     10  C   UNL     1       1.649   2.688  18.351  0.00  0.00    +0.000 A 
ATOM     11  C   UNL     1       0.676   2.926  19.327  0.00  0.00    +0.000 A 
ATOM     12  C   UNL     1       1.089   3.357  20.582  0.00  0.00    +0.000 A 
ATOM     13  C   UNL     1       2.376   3.847  20.713  0.00  0.00    +0.000 A 
ATOM     14  C   UNL     1       3.129   4.009  19.536  0.00  0.00    +0.000 A 
ENDROOT
BRANCH   1  15
ATOM     15  N   UNL     1       3.326   6.396  19.826  0.00  0.00    +0.000 N 
ATOM     16  H   UNL     1       3.513   6.192  20.809  0.00  0.00    +0.000 HD
BRANCH  15  20
ATOM     17  C   UNL     1       0.739   9.675  19.596  0.00  0.00    +0.000 A 
ATOM     18  C   UNL     1       1.390   9.231  18.440  0.00  0.00    +0.000 A 
ATOM     19  C   UNL     1       2.187   8.083  18.504  0.00  0.00    +0.000 A 
ATOM     20  C   UNL     1       2.316   7.367  19.705  0.00  0.00    +0.000 A 
ATOM     21  C   UNL     1       1.496   7.715  20.777  0.00  0.00    +0.000 A 
ATOM     22  C   UNL     1       0.769   8.907  20.761  0.00  0.00    +0.000 A 
BRANCH  17  24
ATOM     23  O   UNL     1       0.759  11.985  19.836  0.00  0.00    +0.000 OA
ATOM     24  N   UNL     1       0.067  10.977  19.605  0.00  0.00    +0.000 N 
ATOM     25  O   UNL     1      -1.157  10.996  19.408  0.00  0.00    +0.000 OA
ENDBRANCH  17  24
ENDBRANCH  15  20
ENDBRANCH   1  15
TORSDOF 3
ENDMDL
MODEL 2
REMARK VINA RESULT:      -9.0      1.638      2.140
REMARK  Name = 
REMARK  3 active torsions:
REMARK  status: ('A' for Active; 'I' for Inactive)
REMARK    1  A    between atoms: N_2  and  C_4
REMARK    2  A    between atoms: C_7  and  N_8
REMARK    3  A    between atoms: N_8  and  C_9
REMARK                            x       y       z     vdW  Elec       q    Type
REMARK                         _______ _______ _______ _____ _____    ______ ____
ROOT
ATOM      1  C   UNL     1       3.636   5.870  18.452  0.00  0.00    +0.000 A 
ATOM      2  C   UNL     1       5.054   6.049  18.246  0.00  0.00    +0.000 A 
ATOM      3  C   UNL     1       5.736   6.958  17.392  0.00  0.00    +0.000 A 
ATOM      4  C   UNL     1       7.114   7.157  17.441  0.00  0.00    +0.000 A 
ATOM      5  C   UNL     1       7.871   6.407  18.325  0.00  0.00    +0.000 A 
ATOM      6  C   UNL     1       7.258   5.357  18.997  0.00  0.00    +0.000 A 
ATOM      7  C   UNL     1       5.898   5.110  18.849  0.00  0.00    +0.000 A 
ATOM      8  N   UNL     1       5.452   3.881  19.092  0.00  0.00    +0.000 NA
ATOM      9  C   UNL     1       4.172   3.669  18.852  0.00  0.00    +0.000 A 
ATOM     10  C   UNL     1       3.769   2.594  18.059  0.00  0.00    +0.000 A 
ATOM     11  C   UNL     1       2.422   2.375  17.753  0.00  0.00    +0.000 A 
ATOM     12  C   UNL     1       1.459   3.102  18.443  0.00  0.00    +0.000 A 
ATOM     13  C   UNL     1       1.866   4.224  19.143  0.00  0.00    +0.000 A 
ATOM     14  C   UNL     1       3.203   4.633  18.988  0.00  0.00    +0.000 A 
ENDROOT
BRANCH   1  15
ATOM     15  N   UNL     1       2.586   6.758  18.026  0.00  0.00    +0.000 N 
ATOM     16  H   UNL     1       2.623   6.854  17.010  0.00  0.00    +0.000 HD
BRANCH  15  20
ATOM     17  C   UNL     1       0.447   9.914  19.744  0.00  0.00    +0.000 A 
ATOM     18  C   UNL     1       1.022   8.945  20.571  0.00  0.00    +0.000 A 
ATOM     19  C   UNL     1       1.808   7.939  19.998  0.00  0.00    +0.000 A 
ATOM     20  C   UNL     1       2.040   7.913  18.614  0.00  0.00    +0.000 A 
ATOM     21  C   UNL     1       1.627   9.003  17.851  0.00  0.00    +0.000 A 
ATOM     22  C   UNL     1       0.765   9.963  18.386  0.00  0.00    +0.000 A 
BRANCH  17  24
ATOM     23  O   UNL     1      -0.719  10.854  21.520  0.00  0.00    +0.000 OA
ATOM     24  N   UNL     1      -0.538  10.853  20.288  0.00  0.00    +0.000 N 
ATOM     25  O   UNL     1      -1.153  11.574  19.489  0.00  0.00    +0.000 OA
ENDBRANCH  17  24
ENDBRANCH  15  20
ENDBRANCH   1  15
TORSDOF 3
ENDMDL
MODEL 3
REMARK VINA RESULT:      -8.8      1.435      1.945
REMARK  Name = 
REMARK  3 active torsions:
REMARK  status: ('A' for Active; 'I' for Inactive)
REMARK    1  A    between atoms: N_2  and  C_4
REMARK    2  A    between atoms: C_7  and  N_8
REMARK    3  A    between atoms: N_8  and  C_9
REMARK                            x       y       z     vdW  Elec       q    Type
REMARK                         _______ _______ _______ _____ _____    ______ ____
ROOT
ATOM      1  C   UNL     1       3.391   5.703  19.055  0.00  0.00    +0.000 A 
ATOM      2  C   UNL     1       4.709   5.841  18.482  0.00  0.00    +0.000 A 
ATOM      3  C   UNL     1       5.146   6.658  17.404  0.00  0.00    +0.000 A 
ATOM      4  C   UNL     1       6.490   6.839  17.085  0.00  0.00    +0.000 A 
ATOM      5  C   UNL     1       7.452   6.159  17.813  0.00  0.00    +0.000 A 
ATOM      6  C   UNL     1       7.036   5.183  18.710  0.00  0.00    +0.000 A 
ATOM      7  C   UNL     1       5.685   4.945  18.933  0.00  0.00    +0.000 A 
ATOM      8  N   UNL     1       5.324   3.751  19.392  0.00  0.00    +0.000 NA
ATOM      9  C   UNL     1       4.026   3.539  19.504  0.00  0.00    +0.000 A 
ATOM     10  C   UNL     1       3.443   2.403  18.939  0.00  0.00    +0.000 A 
ATOM     11  C   UNL     1       2.065   2.180  19.005  0.00  0.00    +0.000 A 
ATOM     12  C   UNL     1       1.303   2.981  19.848  0.00  0.00    +0.000 A 
ATOM     13  C   UNL     1       1.865   4.154  20.317  0.00  0.00    +0.000 A 
ATOM     14  C   UNL     1       3.116   4.527  19.793  0.00  0.00    +0.000 A 
ENDROOT
BRANCH   1  15
ATOM     15  N   UNL     1       2.261   6.567  18.830  0.00  0.00    +0.000 N 
ATOM     16  H   UNL     1       1.994   6.516  17.846  0.00  0.00    +0.000 HD
BRANCH  15  20
ATOM     17  C   UNL     1       0.672  10.104  20.397  0.00  0.00    +0.000 A 
ATOM     18  C   UNL     1       1.015   9.062  21.264  0.00  0.00    +0.000 A 
ATOM     19  C   UNL     1       1.625   7.915  20.745  0.00  0.00    +0.000 A 
ATOM     20  C   UNL     1       1.914   7.816  19.375  0.00  0.00    +0.000 A 
ATOM     21  C   UNL     1       1.749   8.947  18.578  0.00  0.00    +0.000 A 
ATOM     22  C   UNL     1       1.058  10.062  19.056  0.00  0.00    +0.000 A 
BRANCH  17  24
ATOM     23  O   UNL     1      -1.204  11.468  20.274  0.00  0.00    +0.000 OA
ATOM     24  N   UNL     1      -0.144  11.221  20.878  0.00  0.00    +0.000 N 
ATOM     25  O   UNL     1       0.280  11.873  21.844  0.00  0.00    +0.000 OA
ENDBRANCH  17  24
ENDBRANCH  15  20
ENDBRANCH   1  15
TORSDOF 3
ENDMDL
MODEL 4
REMARK VINA RESULT:      -8.8      4.160      5.747
REMARK  Name = 
REMARK  3 active torsions:
REMARK  status: ('A' for Active; 'I' for Inactive)
REMARK    1  A    between atoms: N_2  and  C_4
REMARK    2  A    between atoms: C_7  and  N_8
REMARK    3  A    between atoms: N_8  and  C_9
REMARK                            x       y       z     vdW  Elec       q    Type
REMARK                         _______ _______ _______ _____ _____    ______ ____
ROOT
ATOM      1  C   UNL     1       4.948   4.789  15.762  0.00  0.00    +0.000 A 
ATOM      2  C   UNL     1       5.714   4.435  14.591  0.00  0.00    +0.000 A 
ATOM      3  C   UNL     1       5.500   3.389  13.652  0.00  0.00    +0.000 A 
ATOM      4  C   UNL     1       6.207   3.285  12.457  0.00  0.00    +0.000 A 
ATOM      5  C   UNL     1       7.200   4.209  12.180  0.00  0.00    +0.000 A 
ATOM      6  C   UNL     1       7.580   5.093  13.183  0.00  0.00    +0.000 A 
ATOM      7  C   UNL     1       6.929   5.105  14.411  0.00  0.00    +0.000 A 
ATOM      8  N   UNL     1       7.584   5.581  15.465  0.00  0.00    +0.000 NA
ATOM      9  C   UNL     1       6.961   5.491  16.626  0.00  0.00    +0.000 A 
ATOM     10  C   UNL     1       7.598   4.920  17.728  0.00  0.00    +0.000 A 
ATOM     11  C   UNL     1       6.944   4.771  18.955  0.00  0.00    +0.000 A 
ATOM     12  C   UNL     1       5.727   5.416  19.139  0.00  0.00    +0.000 A 
ATOM     13  C   UNL     1       5.062   5.887  18.021  0.00  0.00    +0.000 A 
ATOM     14  C   UNL     1       5.595   5.553  16.763  0.00  0.00    +0.000 A 
ENDROOT
BRANCH   1  15
ATOM     15  N   UNL     1       3.631   4.318  16.103  0.00  0.00    +0.000 N 
ATOM     16  H   UNL     1       2.936   4.951  15.702  0.00  0.00    +0.000 HD
BRANCH  15  20
ATOM     17  C   UNL     1       2.443   2.882  19.848  0.00  0.00    +0.000 A 
ATOM     18  C   UNL     1       1.656   3.838  19.198  0.00  0.00    +0.000 A 
ATOM     19  C   UNL     1       2.011   4.252  17.909  0.00  0.00    +0.000 A 
ATOM     20  C   UNL     1       3.128   3.701  17.263  0.00  0.00    +0.000 A 
ATOM     21  C   UNL     1       3.765   2.609  17.852  0.00  0.00    +0.000 A 
ATOM     22  C   UNL     1       3.485   2.247  19.170  0.00  0.00    +0.000 A 
BRANCH  17  24
ATOM     23  O   UNL     1       3.189   2.220  21.945  0.00  0.00    +0.000 OA
ATOM     24  N   UNL     1       2.213   2.582  21.263  0.00  0.00    +0.000 N 
ATOM     25  O   UNL     1       1.055   2.681  21.694  0.00  0.00    +0.000 OA
ENDBRANCH  17  24
ENDBRANCH  15  20
ENDBRANCH   1  15
TORSDOF 3
ENDMDL
MODEL 5
REMARK VINA RESULT:      -8.8      1.674      2.031
REMARK  Name = 
REMARK  3 active torsions:
REMARK  status: ('A' for Active; 'I' for Inactive)
REMARK    1  A    between atoms: N_2  and  C_4
REMARK    2  A    between atoms: C_7  and  N_8
REMARK    3  A    between atoms: N_8  and  C_9
REMARK                            x       y       z     vdW  Elec       q    Type
REMARK                         _______ _______ _______ _____ _____    ______ ____
ROOT
ATOM      1  C   UNL     1       3.634   5.882  18.436  0.00  0.00    +0.000 A 
ATOM      2  C   UNL     1       5.056   6.064  18.270  0.00  0.00    +0.000 A 
ATOM      3  C   UNL     1       5.761   6.963  17.423  0.00  0.00    +0.000 A 
ATOM      4  C   UNL     1       7.136   7.169  17.511  0.00  0.00    +0.000 A 
ATOM      5  C   UNL     1       7.869   6.435  18.428  0.00  0.00    +0.000 A 
ATOM      6  C   UNL     1       7.240   5.392  19.096  0.00  0.00    +0.000 A 
ATOM      7  C   UNL     1       5.886   5.137  18.911  0.00  0.00    +0.000 A 
ATOM      8  N   UNL     1       5.438   3.910  19.159  0.00  0.00    +0.000 NA
ATOM      9  C   UNL     1       4.166   3.690  18.883  0.00  0.00    +0.000 A 
ATOM     10  C   UNL     1       3.791   2.601  18.095  0.00  0.00    +0.000 A 
ATOM     11  C   UNL     1       2.455   2.373  17.751  0.00  0.00    +0.000 A 
ATOM     12  C   UNL     1       1.469   3.105  18.402  0.00  0.00    +0.000 A 
ATOM     13  C   UNL     1       1.850   4.239  19.097  0.00  0.00    +0.000 A 
ATOM     14  C   UNL     1       3.189   4.652  18.977  0.00  0.00    +0.000 A 
ENDROOT
BRANCH   1  15
ATOM     15  N   UNL     1       2.594   6.760  17.966  0.00  0.00    +0.000 N 
ATOM     16  H   UNL     1       2.737   6.943  16.971  0.00  0.00    +0.000 HD
BRANCH  15  20
ATOM     17  C   UNL     1       1.153  10.196  19.866  0.00  0.00    +0.000 A 
ATOM     18  C   UNL     1       1.263  10.177  18.472  0.00  0.00    +0.000 A 
ATOM     19  C   UNL     1       1.664   8.997  17.835  0.00  0.00    +0.000 A 
ATOM     20  C   UNL     1       1.930   7.837  18.579  0.00  0.00    +0.000 A 
ATOM     21  C   UNL     1       1.613   7.831  19.936  0.00  0.00    +0.000 A 
ATOM     22  C   UNL     1       1.303   9.019  20.601  0.00  0.00    +0.000 A 
BRANCH  17  24
ATOM     23  O   UNL     1       0.577  11.412  21.759  0.00  0.00    +0.000 OA
ATOM     24  N   UNL     1       0.933  11.463  20.567  0.00  0.00    +0.000 N 
ATOM     25  O   UNL     1       1.088  12.513  19.927  0.00  0.00    +0.000 OA
ENDBRANCH  17  24
ENDBRANCH  15  20
ENDBRANCH   1  15
TORSDOF 3
ENDMDL
MODEL 6
REMARK VINA RESULT:      -8.7      1.305      3.787
REMARK  Name = 
REMARK  3 active torsions:
REMARK  status: ('A' for Active; 'I' for Inactive)
REMARK    1  A    between atoms: N_2  and  C_4
REMARK    2  A    between atoms: C_7  and  N_8
REMARK    3  A    between atoms: N_8  and  C_9
REMARK                            x       y       z     vdW  Elec       q    Type
REMARK                         _______ _______ _______ _____ _____    ______ ____
ROOT
ATOM      1  C   UNL     1       2.794   5.992  18.835  0.00  0.00    +0.000 A 
ATOM      2  C   UNL     1       2.188   4.738  19.213  0.00  0.00    +0.000 A 
ATOM      3  C   UNL     1       1.691   4.318  20.477  0.00  0.00    +0.000 A 
ATOM      4  C   UNL     1       0.951   3.150  20.652  0.00  0.00    +0.000 A 
ATOM      5  C   UNL     1       0.724   2.328  19.562  0.00  0.00    +0.000 A 
ATOM      6  C   UNL     1       1.394   2.600  18.376  0.00  0.00    +0.000 A 
ATOM      7  C   UNL     1       2.216   3.715  18.258  0.00  0.00    +0.000 A 
ATOM      8  N   UNL     1       3.178   3.693  17.341  0.00  0.00    +0.000 NA
ATOM      9  C   UNL     1       3.989   4.734  17.325  0.00  0.00    +0.000 A 
ATOM     10  C   UNL     1       5.373   4.554  17.355  0.00  0.00    +0.000 A 
ATOM     11  C   UNL     1       6.251   5.641  17.384  0.00  0.00    +0.000 A 
ATOM     12  C   UNL     1       5.742   6.911  17.141  0.00  0.00    +0.000 A 
ATOM     13  C   UNL     1       4.372   7.090  17.214  0.00  0.00    +0.000 A 
ATOM     14  C   UNL     1       3.602   6.005  17.672  0.00  0.00    +0.000 A 
ENDROOT
BRANCH   1  15
ATOM     15  N   UNL     1       2.796   7.211  19.600  0.00  0.00    +0.000 N 
ATOM     16  H   UNL     1       3.530   7.160  20.308  0.00  0.00    +0.000 HD
BRANCH  15  20
ATOM     17  C   UNL     1       0.111  10.061  21.069  0.00  0.00    +0.000 A 
ATOM     18  C   UNL     1       0.535  10.140  19.740  0.00  0.00    +0.000 A 
ATOM     19  C   UNL     1       1.366   9.137  19.228  0.00  0.00    +0.000 A 
ATOM     20  C   UNL     1       1.751   8.050  20.028  0.00  0.00    +0.000 A 
ATOM     21  C   UNL     1       1.147   7.896  21.275  0.00  0.00    +0.000 A 
ATOM     22  C   UNL     1       0.394   8.929  21.835  0.00  0.00    +0.000 A 
BRANCH  17  24
ATOM     23  O   UNL     1      -0.402  11.398  22.898  0.00  0.00    +0.000 OA
ATOM     24  N   UNL     1      -0.588  11.193  21.685  0.00  0.00    +0.000 N 
ATOM     25  O   UNL     1      -1.343  11.865  20.967  0.00  0.00    +0.000 OA
ENDBRANCH  17  24
ENDBRANCH  15  20
ENDBRANCH   1  15
TORSDOF 3
ENDMDL
MODEL 7
REMARK VINA RESULT:      -8.7      0.606      1.198
REMARK  Name = 
REMARK  3 active torsions:
REMARK  status: ('A' for Active; 'I' for Inactive)
REMARK    1  A    between atoms: N_2  and  C_4
REMARK    2  A    between atoms: C_7  and  N_8
REMARK    3  A    between atoms: N_8  and  C_9
REMARK                            x       y       z     vdW  Elec       q    Type
REMARK                         _______ _______ _______ _____ _____    ______ ____
ROOT
ATOM      1  C   UNL     1       3.453   5.284  19.153  0.00  0.00    +0.000 A 
ATOM      2  C   UNL     1       4.131   5.327  17.879  0.00  0.00    +0.000 A 
ATOM      3  C   UNL     1       4.349   6.428  17.007  0.00  0.00    +0.000 A 
ATOM      4  C   UNL     1       5.194   6.364  15.901  0.00  0.00    +0.000 A 
ATOM      5  C   UNL     1       5.816   5.165  15.597  0.00  0.00    +0.000 A 
ATOM      6  C   UNL     1       5.435   4.026  16.295  0.00  0.00    +0.000 A 
ATOM      7  C   UNL     1       4.507   4.097  17.328  0.00  0.00    +0.000 A 
ATOM      8  N   UNL     1       3.825   2.998  17.636  0.00  0.00    +0.000 NA
ATOM      9  C   UNL     1       2.892   3.133  18.561  0.00  0.00    +0.000 A 
ATOM     10  C   UNL     1       1.593   2.683  18.326  0.00  0.00    +0.000 A 
ATOM     11  C   UNL     1       0.577   2.857  19.271  0.00  0.00    +0.000 A 
ATOM     12  C   UNL     1       0.926   3.268  20.552  0.00  0.00    +0.000 A 
ATOM     13  C   UNL     1       2.188   3.804  20.743  0.00  0.00    +0.000 A 
ATOM     14  C   UNL     1       2.976   4.028  19.600  0.00  0.00    +0.000 A 
ENDROOT
BRANCH   1  15
ATOM     15  N   UNL     1       3.066   6.412  19.960  0.00  0.00    +0.000 N 
ATOM     16  H   UNL     1       2.832   6.085  20.899  0.00  0.00    +0.000 HD
BRANCH  15  20
ATOM     17  C   UNL     1       0.497   9.548  18.934  0.00  0.00    +0.000 A 
ATOM     18  C   UNL     1       0.603   9.158  20.273  0.00  0.00    +0.000 A 
ATOM     19  C   UNL     1       1.527   8.167  20.623  0.00  0.00    +0.000 A 
ATOM     20  C   UNL     1       2.356   7.585  19.651  0.00  0.00    +0.000 A 
ATOM     21  C   UNL     1       2.369   8.139  18.372  0.00  0.00    +0.000 A 
ATOM     22  C   UNL     1       1.394   9.059  17.983  0.00  0.00    +0.000 A 
BRANCH  17  24
ATOM     23  O   UNL     1      -0.788  11.468  19.172  0.00  0.00    +0.000 OA
ATOM     24  N   UNL     1      -0.593  10.431  18.512  0.00  0.00    +0.000 N 
ATOM     25  O   UNL     1      -1.275  10.082  17.537  0.00  0.00    +0.000 OA
ENDBRANCH  17  24
ENDBRANCH  15  20
ENDBRANCH   1  15
TORSDOF 3
ENDMDL
MODEL 8
REMARK VINA RESULT:      -8.7      1.098      3.630
REMARK  Name = 
REMARK  3 active torsions:
REMARK  status: ('A' for Active; 'I' for Inactive)
REMARK    1  A    between atoms: N_2  and  C_4
REMARK    2  A    between atoms: C_7  and  N_8
REMARK    3  A    between atoms: N_8  and  C_9
REMARK                            x       y       z     vdW  Elec       q    Type
REMARK                         _______ _______ _______ _____ _____    ______ ____
ROOT
ATOM      1  C   UNL     1       3.295   5.978  18.183  0.00  0.00    +0.000 A 
ATOM      2  C   UNL     1       2.568   4.814  18.629  0.00  0.00    +0.000 A 
ATOM      3  C   UNL     1       1.780   4.633  19.799  0.00  0.00    +0.000 A 
ATOM      4  C   UNL     1       0.972   3.516  20.004  0.00  0.00    +0.000 A 
ATOM      5  C   UNL     1       0.965   2.508  19.056  0.00  0.00    +0.000 A 
ATOM      6  C   UNL     1       1.897   2.558  18.027  0.00  0.00    +0.000 A 
ATOM      7  C   UNL     1       2.769   3.634  17.905  0.00  0.00    +0.000 A 
ATOM      8  N   UNL     1       3.913   3.445  17.253  0.00  0.00    +0.000 NA
ATOM      9  C   UNL     1       4.749   4.467  17.239  0.00  0.00    +0.000 A 
ATOM     10  C   UNL     1       6.081   4.296  17.618  0.00  0.00    +0.000 A 
ATOM     11  C   UNL     1       6.973   5.372  17.655  0.00  0.00    +0.000 A 
ATOM     12  C   UNL     1       6.586   6.575  17.078  0.00  0.00    +0.000 A 
ATOM     13  C   UNL     1       5.243   6.763  16.801  0.00  0.00    +0.000 A 
ATOM     14  C   UNL     1       4.345   5.780  17.254  0.00  0.00    +0.000 A 
ENDROOT
BRANCH   1  15
ATOM     15  N   UNL     1       3.174   7.317  18.697  0.00  0.00    +0.000 N 
ATOM     16  H   UNL     1       3.907   7.476  19.391  0.00  0.00    +0.000 HD
BRANCH  15  20
ATOM     17  C   UNL     1       0.213  10.133  19.592  0.00  0.00    +0.000 A 
ATOM     18  C   UNL     1       0.580   9.923  18.259  0.00  0.00    +0.000 A 
ATOM     19  C   UNL     1       1.509   8.921  17.957  0.00  0.00    +0.000 A 
ATOM     20  C   UNL     1       2.050   8.117  18.973  0.00  0.00    +0.000 A 
ATOM     21  C   UNL     1       1.510   8.213  20.254  0.00  0.00    +0.000 A 
ATOM     22  C   UNL     1       0.657   9.265  20.591  0.00  0.00    +0.000 A 
BRANCH  17  24
ATOM     23  O   UNL     1      -0.118  12.105  20.772  0.00  0.00    +0.000 OA
ATOM     24  N   UNL     1      -0.597  11.298  19.955  0.00  0.00    +0.000 N 
ATOM     25  O   UNL     1      -1.723  11.401  19.446  0.00  0.00    +0.000 OA
ENDBRANCH  17  24
ENDBRANCH  15  20
ENDBRANCH   1  15
TORSDOF 3
ENDMDL
MODEL 9
REMARK VINA RESULT:      -8.7      1.184      3.890
REMARK  Name = 
REMARK  3 active torsions:
REMARK  status: ('A' for Active; 'I' for Inactive)
REMARK    1  A    between atoms: N_2  and  C_4
REMARK    2  A    between atoms: C_7  and  N_8
REMARK    3  A    between atoms: N_8  and  C_9
REMARK                            x       y       z     vdW  Elec       q    Type
REMARK                         _______ _______ _______ _____ _____    ______ ____
ROOT
ATOM      1  C   UNL     1       2.883   6.034  18.598  0.00  0.00    +0.000 A 
ATOM      2  C   UNL     1       2.231   4.821  19.031  0.00  0.00    +0.000 A 
ATOM      3  C   UNL     1       1.656   4.503  20.291  0.00  0.00    +0.000 A 
ATOM      4  C   UNL     1       0.883   3.364  20.507  0.00  0.00    +0.000 A 
ATOM      5  C   UNL     1       0.701   2.467  19.468  0.00  0.00    +0.000 A 
ATOM      6  C   UNL     1       1.442   2.640  18.306  0.00  0.00    +0.000 A 
ATOM      7  C   UNL     1       2.291   3.731  18.155  0.00  0.00    +0.000 A 
ATOM      8  N   UNL     1       3.303   3.625  17.299  0.00  0.00    +0.000 NA
ATOM      9  C   UNL     1       4.135   4.650  17.254  0.00  0.00    +0.000 A 
ATOM     10  C   UNL     1       5.510   4.450  17.376  0.00  0.00    +0.000 A 
ATOM     11  C   UNL     1       6.408   5.522  17.377  0.00  0.00    +0.000 A 
ATOM     12  C   UNL     1       5.939   6.779  17.014  0.00  0.00    +0.000 A 
ATOM     13  C   UNL     1       4.571   6.984  16.996  0.00  0.00    +0.000 A 
ATOM     14  C   UNL     1       3.754   5.949  17.485  0.00  0.00    +0.000 A 
ENDROOT
BRANCH   1  15
ATOM     15  N   UNL     1       2.867   7.306  19.271  0.00  0.00    +0.000 N 
ATOM     16  H   UNL     1       3.259   7.193  20.208  0.00  0.00    +0.000 HD
BRANCH  15  20
ATOM     17  C   UNL     1      -0.287  10.050  19.131  0.00  0.00    +0.000 A 
ATOM     18  C   UNL     1       0.143   9.561  20.368  0.00  0.00    +0.000 A 
ATOM     19  C   UNL     1       1.253   8.710  20.417  0.00  0.00    +0.000 A 
ATOM     20  C   UNL     1       1.945   8.368  19.245  0.00  0.00    +0.000 A 
ATOM     21  C   UNL     1       1.619   9.032  18.064  0.00  0.00    +0.000 A 
ATOM     22  C   UNL     1       0.462   9.808  17.978  0.00  0.00    +0.000 A 
BRANCH  17  24
ATOM     23  O   UNL     1      -2.334  10.454  18.111  0.00  0.00    +0.000 OA
ATOM     24  N   UNL     1      -1.556  10.774  19.029  0.00  0.00    +0.000 N 
ATOM     25  O   UNL     1      -1.772  11.680  19.847  0.00  0.00    +0.000 OA
ENDBRANCH  17  24
ENDBRANCH  15  20
ENDBRANCH   1  15
TORSDOF 3
ENDMDL
