MODEL 1
REMARK VINA RESULT:      -7.1      0.000      0.000
REMARK  Name = 
REMARK  7 active torsions:
REMARK  status: ('A' for Active; 'I' for Inactive)
REMARK    1  A    between atoms: C_2  and  C_3
REMARK    2  A    between atoms: C_3  and  N_4
REMARK    3  A    between atoms: N_7  and  C_8
REMARK    4  A    between atoms: C_11  and  O_12
REMARK    5  A    between atoms: N_17  and  C_18
REMARK    6  A    between atoms: C_21  and  S_22
REMARK    7  A    between atoms: S_22  and  C_23
REMARK                            x       y       z     vdW  Elec       q    Type
REMARK                         _______ _______ _______ _____ _____    ______ ____
ROOT
ATOM      1  C   UNL     1       3.288   4.997  20.273  0.00  0.00    +0.000 C 
ENDROOT
BRANCH   1   2
ATOM      2  N   UNL     1       3.211   4.092  19.100  0.00  0.00    +0.000 NA
ATOM      3  C   UNL     1       2.859   4.814  17.846  0.00  0.00    +0.000 C 
ATOM      4  C   UNL     1       3.950   5.733  17.255  0.00  0.00    +0.000 C 
ATOM      5  N   UNL     1       5.211   5.002  17.088  0.00  0.00    +0.000 N 
ATOM      6  C   UNL     1       5.674   4.297  18.292  0.00  0.00    +0.000 C 
ATOM      7  C   UNL     1       4.531   3.424  18.889  0.00  0.00    +0.000 C 
BRANCH   5   8
ATOM      8  C   UNL     1       5.751   4.741  15.842  0.00  0.00    +0.000 A 
ATOM      9  C   UNL     1       7.002   5.262  15.471  0.00  0.00    +0.000 A 
ATOM     10  C   UNL     1       7.537   5.072  14.188  0.00  0.00    +0.000 A 
ATOM     11  C   UNL     1       6.821   4.342  13.252  0.00  0.00    +0.000 A 
ATOM     12  C   UNL     1       5.596   3.790  13.586  0.00  0.00    +0.000 A 
ATOM     13  C   UNL     1       5.070   3.992  14.869  0.00  0.00    +0.000 A 
BRANCH  11  14
ATOM     14  O   UNL     1       7.284   4.148  11.986  0.00  0.00    +0.000 OA
ATOM     15  H   UNL     1       8.246   4.280  11.985  0.00  0.00    +0.000 HD
ENDBRANCH  11  14
ENDBRANCH   5   8
ENDBRANCH   1   2
BRANCH   1  17
ATOM     16  O   UNL     1       0.968   5.435  20.669  0.00  0.00    +0.000 OA
ATOM     17  C   UNL     1       2.068   5.921  20.410  0.00  0.00    +0.000 C 
ATOM     18  N   UNL     1       2.322   7.258  20.162  0.00  0.00    +0.000 N 
ATOM     19  H   UNL     1       3.253   7.463  19.809  0.00  0.00    +0.000 HD
BRANCH  18  20
ATOM     20  C   UNL     1       1.444   8.342  20.391  0.00  0.00    +0.000 A 
ATOM     21  C   UNL     1       1.017   9.196  19.371  0.00  0.00    +0.000 A 
ATOM     22  C   UNL     1       0.130  10.244  19.637  0.00  0.00    +0.000 A 
ATOM     23  C   UNL     1      -0.351  10.457  20.929  0.00  0.00    +0.000 A 
ATOM     24  C   UNL     1       0.077   9.609  21.955  0.00  0.00    +0.000 A 
ATOM     25  C   UNL     1       0.955   8.547  21.684  0.00  0.00    +0.000 A 
BRANCH  23  26
ATOM     26  S   UNL     1      -1.419  11.849  21.235  0.00  0.00    +0.000 S 
BRANCH  26  27
ATOM     27  C   UNL     1      -1.502  11.798  23.036  0.00  0.00    +0.000 C 
ATOM     28  F   UNL     1      -1.055  12.963  23.571  0.00  0.00    +0.000 F 
ATOM     29  F   UNL     1      -2.796  11.672  23.432  0.00  0.00    +0.000 F 
ENDBRANCH  26  27
ENDBRANCH  23  26
ENDBRANCH  18  20
ENDBRANCH   1  17
TORSDOF 7
ENDMDL
MODEL 2
REMARK VINA RESULT:      -7.0      6.537      8.290
REMARK  Name = 
REMARK  7 active torsions:
REMARK  status: ('A' for Active; 'I' for Inactive)
REMARK    1  A    between atoms: C_2  and  C_3
REMARK    2  A    between atoms: C_3  and  N_4
REMARK    3  A    between atoms: N_7  and  C_8
REMARK    4  A    between atoms: C_11  and  O_12
REMARK    5  A    between atoms: N_17  and  C_18
REMARK    6  A    between atoms: C_21  and  S_22
REMARK    7  A    between atoms: S_22  and  C_23
REMARK                            x       y       z     vdW  Elec       q    Type
REMARK                         _______ _______ _______ _____ _____    ______ ____
ROOT
ATOM      1  C   UNL     1       7.815   6.873  18.197  0.00  0.00    +0.000 C 
ENDROOT
BRANCH   1   2
ATOM      2  N   UNL     1       6.773   6.373  17.267  0.00  0.00    +0.000 NA
ATOM      3  C   UNL     1       6.702   4.886  17.238  0.00  0.00    +0.000 C 
ATOM      4  C   UNL     1       6.122   4.203  18.495  0.00  0.00    +0.000 C 
ATOM      5  N   UNL     1       4.814   4.771  18.838  0.00  0.00    +0.000 N 
ATOM      6  C   UNL     1       4.791   6.236  18.945  0.00  0.00    +0.000 C 
ATOM      7  C   UNL     1       5.434   6.887  17.684  0.00  0.00    +0.000 C 
BRANCH   5   8
ATOM      8  C   UNL     1       3.648   4.031  18.761  0.00  0.00    +0.000 A 
ATOM      9  C   UNL     1       3.566   2.746  19.324  0.00  0.00    +0.000 A 
ATOM     10  C   UNL     1       2.420   1.948  19.195  0.00  0.00    +0.000 A 
ATOM     11  C   UNL     1       1.323   2.437  18.502  0.00  0.00    +0.000 A 
ATOM     12  C   UNL     1       1.353   3.709  17.955  0.00  0.00    +0.000 A 
ATOM     13  C   UNL     1       2.507   4.494  18.085  0.00  0.00    +0.000 A 
BRANCH  11  14
ATOM     14  O   UNL     1       0.194   1.695  18.328  0.00  0.00    +0.000 OA
ATOM     15  H   UNL     1       0.375   1.008  17.666  0.00  0.00    +0.000 HD
ENDBRANCH  11  14
ENDBRANCH   5   8
ENDBRANCH   1   2
BRANCH   1  17
ATOM     16  O   UNL     1       7.619   8.984  17.084  0.00  0.00    +0.000 OA
ATOM     17  C   UNL     1       8.110   8.373  18.031  0.00  0.00    +0.000 C 
ATOM     18  N   UNL     1       8.982   8.899  18.968  0.00  0.00    +0.000 N 
ATOM     19  H   UNL     1       9.415   8.218  19.585  0.00  0.00    +0.000 HD
BRANCH  18  20
ATOM     20  C   UNL     1       9.284  10.265  19.167  0.00  0.00    +0.000 A 
ATOM     21  C   UNL     1       9.262  10.868  20.428  0.00  0.00    +0.000 A 
ATOM     22  C   UNL     1       9.588  12.219  20.583  0.00  0.00    +0.000 A 
ATOM     23  C   UNL     1       9.946  12.995  19.481  0.00  0.00    +0.000 A 
ATOM     24  C   UNL     1       9.964  12.400  18.216  0.00  0.00    +0.000 A 
ATOM     25  C   UNL     1       9.652  11.039  18.062  0.00  0.00    +0.000 A 
BRANCH  23  26
ATOM     26  S   UNL     1      10.279  14.728  19.716  0.00  0.00    +0.000 S 
BRANCH  26  27
ATOM     27  C   UNL     1      10.287  15.288  18.001  0.00  0.00    +0.000 C 
ATOM     28  F   UNL     1       9.029  15.585  17.587  0.00  0.00    +0.000 F 
ATOM     29  F   UNL     1      11.002  16.439  17.898  0.00  0.00    +0.000 F 
ENDBRANCH  26  27
ENDBRANCH  23  26
ENDBRANCH  18  20
ENDBRANCH   1  17
TORSDOF 7
ENDMDL
MODEL 3
REMARK VINA RESULT:      -7.0      5.259     10.957
REMARK  Name = 
REMARK  7 active torsions:
REMARK  status: ('A' for Active; 'I' for Inactive)
REMARK    1  A    between atoms: C_2  and  C_3
REMARK    2  A    between atoms: C_3  and  N_4
REMARK    3  A    between atoms: N_7  and  C_8
REMARK    4  A    between atoms: C_11  and  O_12
REMARK    5  A    between atoms: N_17  and  C_18
REMARK    6  A    between atoms: C_21  and  S_22
REMARK    7  A    between atoms: S_22  and  C_23
REMARK                            x       y       z     vdW  Elec       q    Type
REMARK                         _______ _______ _______ _____ _____    ______ ____
ROOT
ATOM      1  C   UNL     1       1.407   8.560  21.081  0.00  0.00    +0.000 C 
ENDROOT
BRANCH   1   2
ATOM      2  N   UNL     1      -0.031   8.909  20.976  0.00  0.00    +0.000 NA
ATOM      3  C   UNL     1      -0.725   8.864  22.293  0.00  0.00    +0.000 C 
ATOM      4  C   UNL     1      -0.370   9.985  23.294  0.00  0.00    +0.000 C 
ATOM      5  N   UNL     1      -0.532  11.305  22.675  0.00  0.00    +0.000 N 
ATOM      6  C   UNL     1       0.164  11.469  21.392  0.00  0.00    +0.000 C 
ATOM      7  C   UNL     1      -0.176  10.293  20.430  0.00  0.00    +0.000 C 
BRANCH   5   8
ATOM      8  C   UNL     1      -1.496  12.202  23.097  0.00  0.00    +0.000 A 
ATOM      9  C   UNL     1      -1.195  13.565  23.264  0.00  0.00    +0.000 A 
ATOM     10  C   UNL     1      -2.135  14.480  23.760  0.00  0.00    +0.000 A 
ATOM     11  C   UNL     1      -3.407  14.039  24.091  0.00  0.00    +0.000 A 
ATOM     12  C   UNL     1      -3.752  12.709  23.917  0.00  0.00    +0.000 A 
ATOM     13  C   UNL     1      -2.803  11.804  23.426  0.00  0.00    +0.000 A 
BRANCH  11  14
ATOM     14  O   UNL     1      -4.350  14.881  24.599  0.00  0.00    +0.000 OA
ATOM     15  H   UNL     1      -3.999  15.786  24.578  0.00  0.00    +0.000 HD
ENDBRANCH  11  14
ENDBRANCH   5   8
ENDBRANCH   1   2
BRANCH   1  17
ATOM     16  O   UNL     1       1.842   8.494  18.728  0.00  0.00    +0.000 OA
ATOM     17  C   UNL     1       1.971   7.914  19.805  0.00  0.00    +0.000 C 
ATOM     18  N   UNL     1       2.542   6.668  19.990  0.00  0.00    +0.000 N 
ATOM     19  H   UNL     1       2.424   6.271  20.917  0.00  0.00    +0.000 HD
BRANCH  18  20
ATOM     20  C   UNL     1       3.293   5.935  19.043  0.00  0.00    +0.000 A 
ATOM     21  C   UNL     1       4.691   5.945  19.015  0.00  0.00    +0.000 A 
ATOM     22  C   UNL     1       5.395   5.188  18.074  0.00  0.00    +0.000 A 
ATOM     23  C   UNL     1       4.716   4.401  17.143  0.00  0.00    +0.000 A 
ATOM     24  C   UNL     1       3.318   4.390  17.163  0.00  0.00    +0.000 A 
ATOM     25  C   UNL     1       2.611   5.138  18.118  0.00  0.00    +0.000 A 
BRANCH  23  26
ATOM     26  S   UNL     1       5.653   3.513  15.916  0.00  0.00    +0.000 S 
BRANCH  26  27
ATOM     27  C   UNL     1       6.058   4.859  14.786  0.00  0.00    +0.000 C 
ATOM     28  F   UNL     1       5.215   5.909  14.968  0.00  0.00    +0.000 F 
ATOM     29  F   UNL     1       7.306   5.324  15.055  0.00  0.00    +0.000 F 
ENDBRANCH  26  27
ENDBRANCH  23  26
ENDBRANCH  18  20
ENDBRANCH   1  17
TORSDOF 7
ENDMDL
MODEL 4
REMARK VINA RESULT:      -7.0      5.362     11.131
REMARK  Name = 
REMARK  7 active torsions:
REMARK  status: ('A' for Active; 'I' for Inactive)
REMARK    1  A    between atoms: C_2  and  C_3
REMARK    2  A    between atoms: C_3  and  N_4
REMARK    3  A    between atoms: N_7  and  C_8
REMARK    4  A    between atoms: C_11  and  O_12
REMARK    5  A    between atoms: N_17  and  C_18
REMARK    6  A    between atoms: C_21  and  S_22
REMARK    7  A    between atoms: S_22  and  C_23
REMARK                            x       y       z     vdW  Elec       q    Type
REMARK                         _______ _______ _______ _____ _____    ______ ____
ROOT
ATOM      1  C   UNL     1       1.029  10.247  19.557  0.00  0.00    +0.000 C 
ENDROOT
BRANCH   1   2
ATOM      2  N   UNL     1      -0.347   9.804  19.893  0.00  0.00    +0.000 NA
ATOM      3  C   UNL     1      -0.558   9.670  21.362  0.00  0.00    +0.000 C 
ATOM      4  C   UNL     1      -0.622  10.984  22.168  0.00  0.00    +0.000 C 
ATOM      5  N   UNL     1      -1.610  11.901  21.591  0.00  0.00    +0.000 N 
ATOM      6  C   UNL     1      -1.453  12.144  20.150  0.00  0.00    +0.000 C 
ATOM      7  C   UNL     1      -1.338  10.797  19.378  0.00  0.00    +0.000 C 
BRANCH   5   8
ATOM      8  C   UNL     1      -2.764  12.258  22.264  0.00  0.00    +0.000 A 
ATOM      9  C   UNL     1      -3.849  12.840  21.586  0.00  0.00    +0.000 A 
ATOM     10  C   UNL     1      -5.000  13.277  22.259  0.00  0.00    +0.000 A 
ATOM     11  C   UNL     1      -5.085  13.126  23.634  0.00  0.00    +0.000 A 
ATOM     12  C   UNL     1      -4.049  12.533  24.336  0.00  0.00    +0.000 A 
ATOM     13  C   UNL     1      -2.902  12.107  23.654  0.00  0.00    +0.000 A 
BRANCH  11  14
ATOM     14  O   UNL     1      -6.169  13.554  24.338  0.00  0.00    +0.000 OA
ATOM     15  H   UNL     1      -6.936  13.575  23.742  0.00  0.00    +0.000 HD
ENDBRANCH  11  14
ENDBRANCH   5   8
ENDBRANCH   1   2
BRANCH   1  17
ATOM     16  O   UNL     1       1.858   9.787  17.358  0.00  0.00    +0.000 OA
ATOM     17  C   UNL     1       1.713   9.361  18.503  0.00  0.00    +0.000 C 
ATOM     18  N   UNL     1       2.062   8.098  18.946  0.00  0.00    +0.000 N 
ATOM     19  H   UNL     1       1.728   7.858  19.875  0.00  0.00    +0.000 HD
BRANCH  18  20
ATOM     20  C   UNL     1       2.857   7.152  18.260  0.00  0.00    +0.000 A 
ATOM     21  C   UNL     1       3.975   7.513  17.502  0.00  0.00    +0.000 A 
ATOM     22  C   UNL     1       4.747   6.543  16.855  0.00  0.00    +0.000 A 
ATOM     23  C   UNL     1       4.420   5.191  16.957  0.00  0.00    +0.000 A 
ATOM     24  C   UNL     1       3.300   4.823  17.710  0.00  0.00    +0.000 A 
ATOM     25  C   UNL     1       2.534   5.797  18.372  0.00  0.00    +0.000 A 
BRANCH  23  26
ATOM     26  S   UNL     1       5.387   3.998  16.056  0.00  0.00    +0.000 S 
BRANCH  26  27
ATOM     27  C   UNL     1       7.040   4.414  16.648  0.00  0.00    +0.000 C 
ATOM     28  F   UNL     1       7.428   5.627  16.175  0.00  0.00    +0.000 F 
ATOM     29  F   UNL     1       7.029   4.521  18.002  0.00  0.00    +0.000 F 
ENDBRANCH  26  27
ENDBRANCH  23  26
ENDBRANCH  18  20
ENDBRANCH   1  17
TORSDOF 7
ENDMDL
MODEL 5
REMARK VINA RESULT:      -6.8      5.297     11.131
REMARK  Name = 
REMARK  7 active torsions:
REMARK  status: ('A' for Active; 'I' for Inactive)
REMARK    1  A    between atoms: C_2  and  C_3
REMARK    2  A    between atoms: C_3  and  N_4
REMARK    3  A    between atoms: N_7  and  C_8
REMARK    4  A    between atoms: C_11  and  O_12
REMARK    5  A    between atoms: N_17  and  C_18
REMARK    6  A    between atoms: C_21  and  S_22
REMARK    7  A    between atoms: S_22  and  C_23
REMARK                            x       y       z     vdW  Elec       q    Type
REMARK                         _______ _______ _______ _____ _____    ______ ____
ROOT
ATOM      1  C   UNL     1       0.915  10.644  19.440  0.00  0.00    +0.000 C 
ENDROOT
BRANCH   1   2
ATOM      2  N   UNL     1      -0.361  10.085  19.950  0.00  0.00    +0.000 NA
ATOM      3  C   UNL     1      -0.439  10.108  21.437  0.00  0.00    +0.000 C 
ATOM      4  C   UNL     1      -0.608  11.495  22.094  0.00  0.00    +0.000 C 
ATOM      5  N   UNL     1      -1.749  12.209  21.511  0.00  0.00    +0.000 N 
ATOM      6  C   UNL     1      -1.737  12.290  20.044  0.00  0.00    +0.000 C 
ATOM      7  C   UNL     1      -1.509  10.882  19.420  0.00  0.00    +0.000 C 
BRANCH   5   8
ATOM      8  C   UNL     1      -2.884  12.506  22.244  0.00  0.00    +0.000 A 
ATOM      9  C   UNL     1      -2.929  12.284  23.631  0.00  0.00    +0.000 A 
ATOM     10  C   UNL     1      -4.092  12.508  24.383  0.00  0.00    +0.000 A 
ATOM     11  C   UNL     1      -5.235  12.973  23.750  0.00  0.00    +0.000 A 
ATOM     12  C   UNL     1      -5.223  13.230  22.390  0.00  0.00    +0.000 A 
ATOM     13  C   UNL     1      -4.058  12.996  21.648  0.00  0.00    +0.000 A 
BRANCH  11  14
ATOM     14  O   UNL     1      -6.396  13.185  24.429  0.00  0.00    +0.000 OA
ATOM     15  H   UNL     1      -6.474  14.134  24.618  0.00  0.00    +0.000 HD
ENDBRANCH  11  14
ENDBRANCH   5   8
ENDBRANCH   1   2
BRANCH   1  17
ATOM     16  O   UNL     1       2.005  10.078  17.384  0.00  0.00    +0.000 OA
ATOM     17  C   UNL     1       1.666   9.687  18.500  0.00  0.00    +0.000 C 
ATOM     18  N   UNL     1       1.845   8.409  18.997  0.00  0.00    +0.000 N 
ATOM     19  H   UNL     1       1.365   8.213  19.871  0.00  0.00    +0.000 HD
BRANCH  18  20
ATOM     20  C   UNL     1       2.649   7.390  18.437  0.00  0.00    +0.000 A 
ATOM     21  C   UNL     1       2.469   6.036  18.734  0.00  0.00    +0.000 A 
ATOM     22  C   UNL     1       3.273   5.058  18.142  0.00  0.00    +0.000 A 
ATOM     23  C   UNL     1       4.274   5.413  17.237  0.00  0.00    +0.000 A 
ATOM     24  C   UNL     1       4.463   6.766  16.939  0.00  0.00    +0.000 A 
ATOM     25  C   UNL     1       3.644   7.747  17.522  0.00  0.00    +0.000 A 
BRANCH  23  26
ATOM     26  S   UNL     1       5.322   4.141  16.565  0.00  0.00    +0.000 S 
BRANCH  26  27
ATOM     27  C   UNL     1       6.864   4.507  17.428  0.00  0.00    +0.000 C 
ATOM     28  F   UNL     1       7.508   5.548  16.841  0.00  0.00    +0.000 F 
ATOM     29  F   UNL     1       6.594   4.898  18.701  0.00  0.00    +0.000 F 
ENDBRANCH  26  27
ENDBRANCH  23  26
ENDBRANCH  18  20
ENDBRANCH   1  17
TORSDOF 7
ENDMDL
MODEL 6
REMARK VINA RESULT:      -6.8      5.167     10.980
REMARK  Name = 
REMARK  7 active torsions:
REMARK  status: ('A' for Active; 'I' for Inactive)
REMARK    1  A    between atoms: C_2  and  C_3
REMARK    2  A    between atoms: C_3  and  N_4
REMARK    3  A    between atoms: N_7  and  C_8
REMARK    4  A    between atoms: C_11  and  O_12
REMARK    5  A    between atoms: N_17  and  C_18
REMARK    6  A    between atoms: C_21  and  S_22
REMARK    7  A    between atoms: S_22  and  C_23
REMARK                            x       y       z     vdW  Elec       q    Type
REMARK                         _______ _______ _______ _____ _____    ______ ____
ROOT
ATOM      1  C   UNL     1       0.287  10.115  18.908  0.00  0.00    +0.000 C 
ENDROOT
BRANCH   1   2
ATOM      2  N   UNL     1       0.621  11.320  19.706  0.00  0.00    +0.000 NA
ATOM      3  C   UNL     1      -0.402  12.394  19.571  0.00  0.00    +0.000 C 
ATOM      4  C   UNL     1      -1.763  12.134  20.253  0.00  0.00    +0.000 C 
ATOM      5  N   UNL     1      -1.577  11.779  21.664  0.00  0.00    +0.000 N 
ATOM      6  C   UNL     1      -0.622  10.686  21.900  0.00  0.00    +0.000 C 
ATOM      7  C   UNL     1       0.716  10.958  21.152  0.00  0.00    +0.000 C 
BRANCH   5   8
ATOM      8  C   UNL     1      -2.016  12.593  22.691  0.00  0.00    +0.000 A 
ATOM      9  C   UNL     1      -3.217  12.323  23.368  0.00  0.00    +0.000 A 
ATOM     10  C   UNL     1      -3.719  13.175  24.363  0.00  0.00    +0.000 A 
ATOM     11  C   UNL     1      -3.011  14.316  24.705  0.00  0.00    +0.000 A 
ATOM     12  C   UNL     1      -1.809  14.605  24.080  0.00  0.00    +0.000 A 
ATOM     13  C   UNL     1      -1.321  13.750  23.084  0.00  0.00    +0.000 A 
BRANCH  11  14
ATOM     14  O   UNL     1      -3.465  15.189  25.647  0.00  0.00    +0.000 OA
ATOM     15  H   UNL     1      -2.805  15.248  26.357  0.00  0.00    +0.000 HD
ENDBRANCH  11  14
ENDBRANCH   5   8
ENDBRANCH   1   2
BRANCH   1  17
ATOM     16  O   UNL     1       2.220  10.016  17.498  0.00  0.00    +0.000 OA
ATOM     17  C   UNL     1       1.522   9.417  18.314  0.00  0.00    +0.000 C 
ATOM     18  N   UNL     1       1.703   8.109  18.728  0.00  0.00    +0.000 N 
ATOM     19  H   UNL     1       0.944   7.722  19.282  0.00  0.00    +0.000 HD
BRANCH  18  20
ATOM     20  C   UNL     1       2.836   7.298  18.492  0.00  0.00    +0.000 A 
ATOM     21  C   UNL     1       3.677   7.478  17.389  0.00  0.00    +0.000 A 
ATOM     22  C   UNL     1       4.800   6.665  17.205  0.00  0.00    +0.000 A 
ATOM     23  C   UNL     1       5.108   5.660  18.121  0.00  0.00    +0.000 A 
ATOM     24  C   UNL     1       4.269   5.472  19.223  0.00  0.00    +0.000 A 
ATOM     25  C   UNL     1       3.149   6.298  19.416  0.00  0.00    +0.000 A 
BRANCH  23  26
ATOM     26  S   UNL     1       6.506   4.602  17.805  0.00  0.00    +0.000 S 
BRANCH  26  27
ATOM     27  C   UNL     1       7.786   5.481  18.724  0.00  0.00    +0.000 C 
ATOM     28  F   UNL     1       7.956   6.735  18.232  0.00  0.00    +0.000 F 
ATOM     29  F   UNL     1       7.400   5.631  20.018  0.00  0.00    +0.000 F 
ENDBRANCH  26  27
ENDBRANCH  23  26
ENDBRANCH  18  20
ENDBRANCH   1  17
TORSDOF 7
ENDMDL
MODEL 7
REMARK VINA RESULT:      -6.8      5.570     11.138
REMARK  Name = 
REMARK  7 active torsions:
REMARK  status: ('A' for Active; 'I' for Inactive)
REMARK    1  A    between atoms: C_2  and  C_3
REMARK    2  A    between atoms: C_3  and  N_4
REMARK    3  A    between atoms: N_7  and  C_8
REMARK    4  A    between atoms: C_11  and  O_12
REMARK    5  A    between atoms: N_17  and  C_18
REMARK    6  A    between atoms: C_21  and  S_22
REMARK    7  A    between atoms: S_22  and  C_23
REMARK                            x       y       z     vdW  Elec       q    Type
REMARK                         _______ _______ _______ _____ _____    ______ ____
ROOT
ATOM      1  C   UNL     1       1.522   9.004  20.277  0.00  0.00    +0.000 C 
ENDROOT
BRANCH   1   2
ATOM      2  N   UNL     1       0.089   9.386  20.252  0.00  0.00    +0.000 NA
ATOM      3  C   UNL     1      -0.601   9.095  21.539  0.00  0.00    +0.000 C 
ATOM      4  C   UNL     1      -0.226   9.995  22.736  0.00  0.00    +0.000 C 
ATOM      5  N   UNL     1      -0.373  11.412  22.386  0.00  0.00    +0.000 N 
ATOM      6  C   UNL     1       0.320  11.814  21.154  0.00  0.00    +0.000 C 
ATOM      7  C   UNL     1      -0.039  10.850  19.985  0.00  0.00    +0.000 C 
BRANCH   5   8
ATOM      8  C   UNL     1      -1.323  12.223  22.981  0.00  0.00    +0.000 A 
ATOM      9  C   UNL     1      -2.587  11.720  23.333  0.00  0.00    +0.000 A 
ATOM     10  C   UNL     1      -3.591  12.539  23.868  0.00  0.00    +0.000 A 
ATOM     11  C   UNL     1      -3.337  13.887  24.071  0.00  0.00    +0.000 A 
ATOM     12  C   UNL     1      -2.095  14.416  23.762  0.00  0.00    +0.000 A 
ATOM     13  C   UNL     1      -1.102  13.589  23.221  0.00  0.00    +0.000 A 
BRANCH  11  14
ATOM     14  O   UNL     1      -4.284  14.730  24.567  0.00  0.00    +0.000 OA
ATOM     15  H   UNL     1      -3.955  15.110  25.398  0.00  0.00    +0.000 HD
ENDBRANCH  11  14
ENDBRANCH   5   8
ENDBRANCH   1   2
BRANCH   1  17
ATOM     16  O   UNL     1       1.594   8.534  17.930  0.00  0.00    +0.000 OA
ATOM     17  C   UNL     1       1.955   8.182  19.052  0.00  0.00    +0.000 C 
ATOM     18  N   UNL     1       2.691   7.048  19.346  0.00  0.00    +0.000 N 
ATOM     19  H   UNL     1       2.764   6.824  20.335  0.00  0.00    +0.000 HD
BRANCH  18  20
ATOM     20  C   UNL     1       3.367   6.218  18.424  0.00  0.00    +0.000 A 
ATOM     21  C   UNL     1       3.027   4.877  18.223  0.00  0.00    +0.000 A 
ATOM     22  C   UNL     1       3.709   4.096  17.285  0.00  0.00    +0.000 A 
ATOM     23  C   UNL     1       4.744   4.641  16.525  0.00  0.00    +0.000 A 
ATOM     24  C   UNL     1       5.093   5.980  16.724  0.00  0.00    +0.000 A 
ATOM     25  C   UNL     1       4.397   6.769  17.656  0.00  0.00    +0.000 A 
BRANCH  23  26
ATOM     26  S   UNL     1       5.634   3.589  15.397  0.00  0.00    +0.000 S 
BRANCH  26  27
ATOM     27  C   UNL     1       6.407   4.833  14.343  0.00  0.00    +0.000 C 
ATOM     28  F   UNL     1       7.619   5.195  14.837  0.00  0.00    +0.000 F 
ATOM     29  F   UNL     1       6.642   4.309  13.111  0.00  0.00    +0.000 F 
ENDBRANCH  26  27
ENDBRANCH  23  26
ENDBRANCH  18  20
ENDBRANCH   1  17
TORSDOF 7
ENDMDL
MODEL 8
REMARK VINA RESULT:      -6.8      5.379     11.197
REMARK  Name = 
REMARK  7 active torsions:
REMARK  status: ('A' for Active; 'I' for Inactive)
REMARK    1  A    between atoms: C_2  and  C_3
REMARK    2  A    between atoms: C_3  and  N_4
REMARK    3  A    between atoms: N_7  and  C_8
REMARK    4  A    between atoms: C_11  and  O_12
REMARK    5  A    between atoms: N_17  and  C_18
REMARK    6  A    between atoms: C_21  and  S_22
REMARK    7  A    between atoms: S_22  and  C_23
REMARK                            x       y       z     vdW  Elec       q    Type
REMARK                         _______ _______ _______ _____ _____    ______ ____
ROOT
ATOM      1  C   UNL     1       0.664  10.833  19.197  0.00  0.00    +0.000 C 
ENDROOT
BRANCH   1   2
ATOM      2  N   UNL     1      -0.627  10.246  19.632  0.00  0.00    +0.000 NA
ATOM      3  C   UNL     1      -0.713  10.094  21.112  0.00  0.00    +0.000 C 
ATOM      4  C   UNL     1      -0.857  11.397  21.928  0.00  0.00    +0.000 C 
ATOM      5  N   UNL     1      -1.978  12.201  21.430  0.00  0.00    +0.000 N 
ATOM      6  C   UNL     1      -1.955  12.455  19.983  0.00  0.00    +0.000 C 
ATOM      7  C   UNL     1      -1.754  11.126  19.197  0.00  0.00    +0.000 C 
BRANCH   5   8
ATOM      8  C   UNL     1      -3.110  12.434  22.189  0.00  0.00    +0.000 A 
ATOM      9  C   UNL     1      -4.316  12.836  21.588  0.00  0.00    +0.000 A 
ATOM     10  C   UNL     1      -5.456  13.149  22.343  0.00  0.00    +0.000 A 
ATOM     11  C   UNL     1      -5.406  13.052  23.725  0.00  0.00    +0.000 A 
ATOM     12  C   UNL     1      -4.246  12.634  24.354  0.00  0.00    +0.000 A 
ATOM     13  C   UNL     1      -3.112  12.331  23.590  0.00  0.00    +0.000 A 
BRANCH  11  14
ATOM     14  O   UNL     1      -6.477  13.367  24.506  0.00  0.00    +0.000 OA
ATOM     15  H   UNL     1      -6.856  14.203  24.188  0.00  0.00    +0.000 HD
ENDBRANCH  11  14
ENDBRANCH   5   8
ENDBRANCH   1   2
BRANCH   1  17
ATOM     16  O   UNL     1       2.165  10.128  17.469  0.00  0.00    +0.000 OA
ATOM     17  C   UNL     1       1.595   9.818  18.515  0.00  0.00    +0.000 C 
ATOM     18  N   UNL     1       1.661   8.583  19.135  0.00  0.00    +0.000 N 
ATOM     19  H   UNL     1       1.005   8.448  19.900  0.00  0.00    +0.000 HD
BRANCH  18  20
ATOM     20  C   UNL     1       2.562   7.536  18.839  0.00  0.00    +0.000 A 
ATOM     21  C   UNL     1       2.679   6.392  19.634  0.00  0.00    +0.000 A 
ATOM     22  C   UNL     1       3.570   5.369  19.293  0.00  0.00    +0.000 A 
ATOM     23  C   UNL     1       4.359   5.467  18.147  0.00  0.00    +0.000 A 
ATOM     24  C   UNL     1       4.251   6.611  17.350  0.00  0.00    +0.000 A 
ATOM     25  C   UNL     1       3.345   7.631  17.685  0.00  0.00    +0.000 A 
BRANCH  23  26
ATOM     26  S   UNL     1       5.532   4.175  17.793  0.00  0.00    +0.000 S 
BRANCH  26  27
ATOM     27  C   UNL     1       7.079   5.076  18.019  0.00  0.00    +0.000 C 
ATOM     28  F   UNL     1       7.182   5.543  19.289  0.00  0.00    +0.000 F 
ATOM     29  F   UNL     1       8.130   4.235  17.837  0.00  0.00    +0.000 F 
ENDBRANCH  26  27
ENDBRANCH  23  26
ENDBRANCH  18  20
ENDBRANCH   1  17
TORSDOF 7
ENDMDL
MODEL 9
REMARK VINA RESULT:      -6.7      5.461     11.122
REMARK  Name = 
REMARK  7 active torsions:
REMARK  status: ('A' for Active; 'I' for Inactive)
REMARK    1  A    between atoms: C_2  and  C_3
REMARK    2  A    between atoms: C_3  and  N_4
REMARK    3  A    between atoms: N_7  and  C_8
REMARK    4  A    between atoms: C_11  and  O_12
REMARK    5  A    between atoms: N_17  and  C_18
REMARK    6  A    between atoms: C_21  and  S_22
REMARK    7  A    between atoms: S_22  and  C_23
REMARK                            x       y       z     vdW  Elec       q    Type
REMARK                         _______ _______ _______ _____ _____    ______ ____
ROOT
ATOM      1  C   UNL     1       0.466   9.745  19.095  0.00  0.00    +0.000 C 
ENDROOT
BRANCH   1   2
ATOM      2  N   UNL     1       0.824  10.952  19.879  0.00  0.00    +0.000 NA
ATOM      3  C   UNL     1      -0.130  12.076  19.662  0.00  0.00    +0.000 C 
ATOM      4  C   UNL     1      -1.537  11.909  20.276  0.00  0.00    +0.000 C 
ATOM      5  N   UNL     1      -1.445  11.584  21.703  0.00  0.00    +0.000 N 
ATOM      6  C   UNL     1      -0.566  10.449  22.018  0.00  0.00    +0.000 C 
ATOM      7  C   UNL     1       0.823  10.627  21.337  0.00  0.00    +0.000 C 
BRANCH   5   8
ATOM      8  C   UNL     1      -1.890  12.451  22.685  0.00  0.00    +0.000 A 
ATOM      9  C   UNL     1      -3.146  12.275  23.292  0.00  0.00    +0.000 A 
ATOM     10  C   UNL     1      -3.650  13.181  24.236  0.00  0.00    +0.000 A 
ATOM     11  C   UNL     1      -2.891  14.283  24.597  0.00  0.00    +0.000 A 
ATOM     12  C   UNL     1      -1.637  14.478  24.043  0.00  0.00    +0.000 A 
ATOM     13  C   UNL     1      -1.147  13.569  23.096  0.00  0.00    +0.000 A 
BRANCH  11  14
ATOM     14  O   UNL     1      -3.343  15.205  25.492  0.00  0.00    +0.000 OA
ATOM     15  H   UNL     1      -3.321  16.080  25.070  0.00  0.00    +0.000 HD
ENDBRANCH  11  14
ENDBRANCH   5   8
ENDBRANCH   1   2
BRANCH   1  17
ATOM     16  O   UNL     1       2.200   9.763  17.444  0.00  0.00    +0.000 OA
ATOM     17  C   UNL     1       1.659   9.127  18.348  0.00  0.00    +0.000 C 
ATOM     18  N   UNL     1       1.986   7.842  18.741  0.00  0.00    +0.000 N 
ATOM     19  H   UNL     1       1.337   7.411  19.392  0.00  0.00    +0.000 HD
BRANCH  18  20
ATOM     20  C   UNL     1       3.135   7.110  18.363  0.00  0.00    +0.000 A 
ATOM     21  C   UNL     1       3.965   7.499  17.308  0.00  0.00    +0.000 A 
ATOM     22  C   UNL     1       5.104   6.757  16.981  0.00  0.00    +0.000 A 
ATOM     23  C   UNL     1       5.439   5.612  17.703  0.00  0.00    +0.000 A 
ATOM     24  C   UNL     1       4.609   5.215  18.757  0.00  0.00    +0.000 A 
ATOM     25  C   UNL     1       3.474   5.969  19.096  0.00  0.00    +0.000 A 
BRANCH  23  26
ATOM     26  S   UNL     1       6.856   4.658  17.203  0.00  0.00    +0.000 S 
BRANCH  26  27
ATOM     27  C   UNL     1       6.261   4.002  15.631  0.00  0.00    +0.000 C 
ATOM     28  F   UNL     1       4.906   3.903  15.633  0.00  0.00    +0.000 F 
ATOM     29  F   UNL     1       6.576   4.860  14.627  0.00  0.00    +0.000 F 
ENDBRANCH  26  27
ENDBRANCH  23  26
ENDBRANCH  18  20
ENDBRANCH   1  17
TORSDOF 7
ENDMDL
