MODEL 1
REMARK VINA RESULT:      -9.0      0.000      0.000
REMARK  Name = 
REMARK  7 active torsions:
REMARK  status: ('A' for Active; 'I' for Inactive)
REMARK    1  A    between atoms: C_2  and  C_4
REMARK    2  A    between atoms: C_8  and  O_9
REMARK    3  A    between atoms: O_9  and  C_10
REMARK    4  A    between atoms: C_10  and  C_11
REMARK    5  A    between atoms: C_15  and  N_16
REMARK    6  A    between atoms: C_17  and  C_19
REMARK    7  A    between atoms: C_22  and  C_23
REMARK                            x       y       z     vdW  Elec       q    Type
REMARK                         _______ _______ _______ _____ _____    ______ ____
ROOT
ATOM      1  C   UNL     1       2.636   3.777  18.744  0.00  0.00    +0.000 A 
ATOM      2  C   UNL     1       3.011   2.782  19.656  0.00  0.00    +0.000 A 
ATOM      3  C   UNL     1       2.724   2.928  21.011  0.00  0.00    +0.000 A 
ATOM      4  C   UNL     1       2.080   4.074  21.470  0.00  0.00    +0.000 A 
ATOM      5  C   UNL     1       1.726   5.095  20.586  0.00  0.00    +0.000 A 
ATOM      6  C   UNL     1       1.998   4.936  19.222  0.00  0.00    +0.000 A 
ENDROOT
BRANCH   5   7
ATOM      7  N   UNL     1       1.078   6.278  21.002  0.00  0.00    +0.000 N 
ATOM      8  C   UNL     1       1.437   7.560  20.622  0.00  0.00    +0.000 C 
ATOM      9  O   UNL     1       2.301   7.854  19.799  0.00  0.00    +0.000 OA
ATOM     10  H   UNL     1       0.288   6.158  21.617  0.00  0.00    +0.000 HD
BRANCH   8  11
ATOM     11  C   UNL     1       0.716   8.679  21.281  0.00  0.00    +0.000 A 
ATOM     12  C   UNL     1       0.303   9.733  20.457  0.00  0.00    +0.000 A 
ATOM     13  C   UNL     1      -0.363  10.832  20.995  0.00  0.00    +0.000 A 
ATOM     14  C   UNL     1      -0.648  10.904  22.368  0.00  0.00    +0.000 A 
ATOM     15  C   UNL     1      -0.235   9.831  23.180  0.00  0.00    +0.000 A 
ATOM     16  C   UNL     1       0.435   8.723  22.648  0.00  0.00    +0.000 A 
BRANCH  14  17
ATOM     17  C   UNL     1      -1.343  12.070  22.943  0.00  0.00    +0.000 A 
ATOM     18  C   UNL     1      -2.712  12.067  23.220  0.00  0.00    +0.000 A 
ATOM     19  C   UNL     1      -3.308  13.220  23.720  0.00  0.00    +0.000 A 
ATOM     20  C   UNL     1      -2.526  14.345  23.940  0.00  0.00    +0.000 A 
ATOM     21  C   UNL     1      -1.175  14.267  23.657  0.00  0.00    +0.000 A 
ATOM     22  N   UNL     1      -0.570  13.161  23.172  0.00  0.00    +0.000 NA
ENDBRANCH  14  17
ENDBRANCH   8  11
ENDBRANCH   5   7
BRANCH   1  23
ATOM     23  C   UNL     1       2.937   3.620  17.273  0.00  0.00    +0.000 C 
BRANCH  23  24
ATOM     24  O   UNL     1       4.237   3.053  17.127  0.00  0.00    +0.000 OA
BRANCH  24  29
ATOM     25  C   UNL     1       6.813   5.716  16.963  0.00  0.00    +0.000 A 
ATOM     26  C   UNL     1       7.277   5.416  15.689  0.00  0.00    +0.000 A 
ATOM     27  N   UNL     1       6.802   4.390  14.947  0.00  0.00    +0.000 NA
ATOM     28  C   UNL     1       5.804   3.656  15.499  0.00  0.00    +0.000 A 
ATOM     29  C   UNL     1       5.249   3.892  16.755  0.00  0.00    +0.000 A 
ATOM     30  C   UNL     1       5.771   4.947  17.499  0.00  0.00    +0.000 A 
BRANCH  25  32
ATOM     31  N   UNL     1       8.049   6.551  18.875  0.00  0.00    +0.000 N 
ATOM     32  C   UNL     1       7.427   6.843  17.693  0.00  0.00    +0.000 C 
ATOM     33  O   UNL     1       7.414   7.982  17.245  0.00  0.00    +0.000 OA
ATOM     34  H   UNL     1       8.565   7.311  19.304  0.00  0.00    +0.000 HD
ATOM     35  H   UNL     1       8.323   5.611  19.122  0.00  0.00    +0.000 HD
ENDBRANCH  25  32
ENDBRANCH  24  29
ENDBRANCH  23  24
ENDBRANCH   1  23
TORSDOF 7
ENDMDL
MODEL 2
REMARK VINA RESULT:      -8.9      1.585      2.653
REMARK  Name = 
REMARK  7 active torsions:
REMARK  status: ('A' for Active; 'I' for Inactive)
REMARK    1  A    between atoms: C_2  and  C_4
REMARK    2  A    between atoms: C_8  and  O_9
REMARK    3  A    between atoms: O_9  and  C_10
REMARK    4  A    between atoms: C_10  and  C_11
REMARK    5  A    between atoms: C_15  and  N_16
REMARK    6  A    between atoms: C_17  and  C_19
REMARK    7  A    between atoms: C_22  and  C_23
REMARK                            x       y       z     vdW  Elec       q    Type
REMARK                         _______ _______ _______ _____ _____    ______ ____
ROOT
ATOM      1  C   UNL     1       3.411   3.589  18.862  0.00  0.00    +0.000 A 
ATOM      2  C   UNL     1       3.453   2.540  19.790  0.00  0.00    +0.000 A 
ATOM      3  C   UNL     1       2.851   2.683  21.038  0.00  0.00    +0.000 A 
ATOM      4  C   UNL     1       2.220   3.878  21.378  0.00  0.00    +0.000 A 
ATOM      5  C   UNL     1       2.194   4.949  20.482  0.00  0.00    +0.000 A 
ATOM      6  C   UNL     1       2.782   4.795  19.222  0.00  0.00    +0.000 A 
ENDROOT
BRANCH   5   7
ATOM      7  N   UNL     1       1.573   6.181  20.782  0.00  0.00    +0.000 N 
ATOM      8  C   UNL     1       1.826   7.380  20.136  0.00  0.00    +0.000 C 
ATOM      9  O   UNL     1       2.548   7.531  19.152  0.00  0.00    +0.000 OA
ATOM     10  H   UNL     1       0.887   6.165  21.520  0.00  0.00    +0.000 HD
BRANCH   8  11
ATOM     11  C   UNL     1       1.172   8.590  20.692  0.00  0.00    +0.000 A 
ATOM     12  C   UNL     1       0.488   8.436  21.904  0.00  0.00    +0.000 A 
ATOM     13  C   UNL     1      -0.171   9.515  22.487  0.00  0.00    +0.000 A 
ATOM     14  C   UNL     1      -0.153  10.784  21.887  0.00  0.00    +0.000 A 
ATOM     15  C   UNL     1       0.548  10.925  20.674  0.00  0.00    +0.000 A 
ATOM     16  C   UNL     1       1.212   9.845  20.081  0.00  0.00    +0.000 A 
BRANCH  14  17
ATOM     17  C   UNL     1      -0.857  11.927  22.495  0.00  0.00    +0.000 A 
ATOM     18  C   UNL     1      -2.103  11.801  23.113  0.00  0.00    +0.000 A 
ATOM     19  C   UNL     1      -2.729  12.933  23.624  0.00  0.00    +0.000 A 
ATOM     20  C   UNL     1      -2.095  14.163  23.516  0.00  0.00    +0.000 A 
ATOM     21  C   UNL     1      -0.855  14.207  22.906  0.00  0.00    +0.000 A 
ATOM     22  N   UNL     1      -0.225  13.124  22.401  0.00  0.00    +0.000 NA
ENDBRANCH  14  17
ENDBRANCH   8  11
ENDBRANCH   5   7
BRANCH   1  23
ATOM     23  C   UNL     1       4.054   3.436  17.506  0.00  0.00    +0.000 C 
BRANCH  23  24
ATOM     24  O   UNL     1       5.258   4.200  17.478  0.00  0.00    +0.000 OA
BRANCH  24  29
ATOM     25  C   UNL     1       6.237   4.072  13.903  0.00  0.00    +0.000 A 
ATOM     26  C   UNL     1       7.279   4.986  13.986  0.00  0.00    +0.000 A 
ATOM     27  N   UNL     1       7.618   5.626  15.129  0.00  0.00    +0.000 NA
ATOM     28  C   UNL     1       6.895   5.314  16.234  0.00  0.00    +0.000 A 
ATOM     29  C   UNL     1       5.852   4.391  16.262  0.00  0.00    +0.000 A 
ATOM     30  C   UNL     1       5.519   3.761  15.066  0.00  0.00    +0.000 A 
BRANCH  25  32
ATOM     31  N   UNL     1       4.621   3.342  12.249  0.00  0.00    +0.000 N 
ATOM     32  C   UNL     1       5.938   3.455  12.595  0.00  0.00    +0.000 C 
ATOM     33  O   UNL     1       6.829   3.096  11.836  0.00  0.00    +0.000 OA
ATOM     34  H   UNL     1       4.436   3.027  11.304  0.00  0.00    +0.000 HD
ATOM     35  H   UNL     1       3.896   3.876  12.707  0.00  0.00    +0.000 HD
ENDBRANCH  25  32
ENDBRANCH  24  29
ENDBRANCH  23  24
ENDBRANCH   1  23
TORSDOF 7
ENDMDL
MODEL 3
REMARK VINA RESULT:      -8.8      1.175      1.413
REMARK  Name = 
REMARK  7 active torsions:
REMARK  status: ('A' for Active; 'I' for Inactive)
REMARK    1  A    between atoms: C_2  and  C_4
REMARK    2  A    between atoms: C_8  and  O_9
REMARK    3  A    between atoms: O_9  and  C_10
REMARK    4  A    between atoms: C_10  and  C_11
REMARK    5  A    between atoms: C_15  and  N_16
REMARK    6  A    between atoms: C_17  and  C_19
REMARK    7  A    between atoms: C_22  and  C_23
REMARK                            x       y       z     vdW  Elec       q    Type
REMARK                         _______ _______ _______ _____ _____    ______ ____
ROOT
ATOM      1  C   UNL     1       2.589   3.719  18.642  0.00  0.00    +0.000 A 
ATOM      2  C   UNL     1       2.965   2.762  19.595  0.00  0.00    +0.000 A 
ATOM      3  C   UNL     1       2.721   2.987  20.948  0.00  0.00    +0.000 A 
ATOM      4  C   UNL     1       2.120   4.172  21.363  0.00  0.00    +0.000 A 
ATOM      5  C   UNL     1       1.767   5.155  20.435  0.00  0.00    +0.000 A 
ATOM      6  C   UNL     1       1.995   4.918  19.075  0.00  0.00    +0.000 A 
ENDROOT
BRANCH   5   7
ATOM      7  N   UNL     1       1.161   6.375  20.806  0.00  0.00    +0.000 N 
ATOM      8  C   UNL     1       1.492   7.618  20.294  0.00  0.00    +0.000 C 
ATOM      9  O   UNL     1       2.285   7.834  19.380  0.00  0.00    +0.000 OA
ATOM     10  H   UNL     1       0.425   6.314  21.492  0.00  0.00    +0.000 HD
BRANCH   8  11
ATOM     11  C   UNL     1       0.834   8.795  20.916  0.00  0.00    +0.000 A 
ATOM     12  C   UNL     1       1.040  10.032  20.295  0.00  0.00    +0.000 A 
ATOM     13  C   UNL     1       0.476  11.191  20.822  0.00  0.00    +0.000 A 
ATOM     14  C   UNL     1      -0.322  11.147  21.977  0.00  0.00    +0.000 A 
ATOM     15  C   UNL     1      -0.527   9.893  22.583  0.00  0.00    +0.000 A 
ATOM     16  C   UNL     1       0.036   8.723  22.060  0.00  0.00    +0.000 A 
BRANCH  14  17
ATOM     17  C   UNL     1      -0.913  12.372  22.545  0.00  0.00    +0.000 A 
ATOM     18  C   UNL     1      -0.330  13.631  22.386  0.00  0.00    +0.000 A 
ATOM     19  C   UNL     1      -0.921  14.736  22.991  0.00  0.00    +0.000 A 
ATOM     20  C   UNL     1      -2.081  14.562  23.732  0.00  0.00    +0.000 A 
ATOM     21  C   UNL     1      -2.608  13.288  23.831  0.00  0.00    +0.000 A 
ATOM     22  N   UNL     1      -2.056  12.198  23.254  0.00  0.00    +0.000 NA
ENDBRANCH  14  17
ENDBRANCH   8  11
ENDBRANCH   5   7
BRANCH   1  23
ATOM     23  C   UNL     1       2.844   3.477  17.174  0.00  0.00    +0.000 C 
BRANCH  23  24
ATOM     24  O   UNL     1       4.239   3.257  16.979  0.00  0.00    +0.000 OA
BRANCH  24  29
ATOM     25  C   UNL     1       6.742   5.733  18.146  0.00  0.00    +0.000 A 
ATOM     26  C   UNL     1       6.578   6.636  17.104  0.00  0.00    +0.000 A 
ATOM     27  N   UNL     1       5.728   6.432  16.071  0.00  0.00    +0.000 NA
ATOM     28  C   UNL     1       4.999   5.288  16.104  0.00  0.00    +0.000 A 
ATOM     29  C   UNL     1       5.069   4.334  17.116  0.00  0.00    +0.000 A 
ATOM     30  C   UNL     1       5.964   4.567  18.157  0.00  0.00    +0.000 A 
BRANCH  25  32
ATOM     31  N   UNL     1       8.433   7.206  19.072  0.00  0.00    +0.000 N 
ATOM     32  C   UNL     1       7.721   6.046  19.207  0.00  0.00    +0.000 C 
ATOM     33  O   UNL     1       7.862   5.323  20.184  0.00  0.00    +0.000 OA
ATOM     34  H   UNL     1       9.011   7.465  19.862  0.00  0.00    +0.000 HD
ATOM     35  H   UNL     1       8.142   7.947  18.449  0.00  0.00    +0.000 HD
ENDBRANCH  25  32
ENDBRANCH  24  29
ENDBRANCH  23  24
ENDBRANCH   1  23
TORSDOF 7
ENDMDL
MODEL 4
REMARK VINA RESULT:      -8.8      2.239      3.667
REMARK  Name = 
REMARK  7 active torsions:
REMARK  status: ('A' for Active; 'I' for Inactive)
REMARK    1  A    between atoms: C_2  and  C_4
REMARK    2  A    between atoms: C_8  and  O_9
REMARK    3  A    between atoms: O_9  and  C_10
REMARK    4  A    between atoms: C_10  and  C_11
REMARK    5  A    between atoms: C_15  and  N_16
REMARK    6  A    between atoms: C_17  and  C_19
REMARK    7  A    between atoms: C_22  and  C_23
REMARK                            x       y       z     vdW  Elec       q    Type
REMARK                         _______ _______ _______ _____ _____    ______ ____
ROOT
ATOM      1  C   UNL     1       4.699   5.407  17.256  0.00  0.00    +0.000 A 
ATOM      2  C   UNL     1       4.144   4.127  17.131  0.00  0.00    +0.000 A 
ATOM      3  C   UNL     1       2.854   3.873  17.593  0.00  0.00    +0.000 A 
ATOM      4  C   UNL     1       2.116   4.887  18.199  0.00  0.00    +0.000 A 
ATOM      5  C   UNL     1       2.660   6.163  18.364  0.00  0.00    +0.000 A 
ATOM      6  C   UNL     1       3.949   6.419  17.882  0.00  0.00    +0.000 A 
ENDROOT
BRANCH   5   7
ATOM      7  N   UNL     1       1.956   7.221  18.977  0.00  0.00    +0.000 N 
ATOM      8  C   UNL     1       1.812   8.495  18.452  0.00  0.00    +0.000 C 
ATOM      9  O   UNL     1       2.190   8.863  17.341  0.00  0.00    +0.000 OA
ATOM     10  H   UNL     1       1.521   7.011  19.862  0.00  0.00    +0.000 HD
BRANCH   8  11
ATOM     11  C   UNL     1       1.153   9.505  19.316  0.00  0.00    +0.000 A 
ATOM     12  C   UNL     1       1.069   9.207  20.682  0.00  0.00    +0.000 A 
ATOM     13  C   UNL     1       0.449  10.090  21.562  0.00  0.00    +0.000 A 
ATOM     14  C   UNL     1      -0.092  11.303  21.109  0.00  0.00    +0.000 A 
ATOM     15  C   UNL     1       0.009  11.592  19.735  0.00  0.00    +0.000 A 
ATOM     16  C   UNL     1       0.631  10.710  18.843  0.00  0.00    +0.000 A 
BRANCH  14  17
ATOM     17  C   UNL     1      -0.758  12.236  22.035  0.00  0.00    +0.000 A 
ATOM     18  C   UNL     1      -1.988  11.952  22.633  0.00  0.00    +0.000 A 
ATOM     19  C   UNL     1      -2.579  12.902  23.460  0.00  0.00    +0.000 A 
ATOM     20  C   UNL     1      -1.928  14.107  23.679  0.00  0.00    +0.000 A 
ATOM     21  C   UNL     1      -0.705  14.310  23.065  0.00  0.00    +0.000 A 
ATOM     22  N   UNL     1      -0.109  13.406  22.258  0.00  0.00    +0.000 NA
ENDBRANCH  14  17
ENDBRANCH   8  11
ENDBRANCH   5   7
BRANCH   1  23
ATOM     23  C   UNL     1       6.093   5.689  16.751  0.00  0.00    +0.000 C 
BRANCH  23  24
ATOM     24  O   UNL     1       6.637   4.489  16.207  0.00  0.00    +0.000 OA
BRANCH  24  29
ATOM     25  C   UNL     1       6.133   3.552  12.654  0.00  0.00    +0.000 A 
ATOM     26  C   UNL     1       7.086   4.410  12.122  0.00  0.00    +0.000 A 
ATOM     27  N   UNL     1       7.822   5.262  12.873  0.00  0.00    +0.000 NA
ATOM     28  C   UNL     1       7.606   5.229  14.212  0.00  0.00    +0.000 A 
ATOM     29  C   UNL     1       6.696   4.387  14.846  0.00  0.00    +0.000 A 
ATOM     30  C   UNL     1       5.944   3.532  14.043  0.00  0.00    +0.000 A 
BRANCH  25  32
ATOM     31  N   UNL     1       5.918   1.473  11.424  0.00  0.00    +0.000 N 
ATOM     32  C   UNL     1       5.368   2.685  11.735  0.00  0.00    +0.000 C 
ATOM     33  O   UNL     1       4.273   3.018  11.302  0.00  0.00    +0.000 OA
ATOM     34  H   UNL     1       5.330   0.843  10.890  0.00  0.00    +0.000 HD
ATOM     35  H   UNL     1       6.656   1.058  11.975  0.00  0.00    +0.000 HD
ENDBRANCH  25  32
ENDBRANCH  24  29
ENDBRANCH  23  24
ENDBRANCH   1  23
TORSDOF 7
ENDMDL
MODEL 5
REMARK VINA RESULT:      -8.8      1.600      2.510
REMARK  Name = 
REMARK  7 active torsions:
REMARK  status: ('A' for Active; 'I' for Inactive)
REMARK    1  A    between atoms: C_2  and  C_4
REMARK    2  A    between atoms: C_8  and  O_9
REMARK    3  A    between atoms: O_9  and  C_10
REMARK    4  A    between atoms: C_10  and  C_11
REMARK    5  A    between atoms: C_15  and  N_16
REMARK    6  A    between atoms: C_17  and  C_19
REMARK    7  A    between atoms: C_22  and  C_23
REMARK                            x       y       z     vdW  Elec       q    Type
REMARK                         _______ _______ _______ _____ _____    ______ ____
ROOT
ATOM      1  C   UNL     1       2.984   4.071  18.666  0.00  0.00    +0.000 A 
ATOM      2  C   UNL     1       3.273   3.017  19.543  0.00  0.00    +0.000 A 
ATOM      3  C   UNL     1       2.829   3.062  20.863  0.00  0.00    +0.000 A 
ATOM      4  C   UNL     1       2.112   4.164  21.323  0.00  0.00    +0.000 A 
ATOM      5  C   UNL     1       1.841   5.241  20.476  0.00  0.00    +0.000 A 
ATOM      6  C   UNL     1       2.271   5.184  19.146  0.00  0.00    +0.000 A 
ENDROOT
BRANCH   5   7
ATOM      7  N   UNL     1       1.124   6.383  20.896  0.00  0.00    +0.000 N 
ATOM      8  C   UNL     1       1.434   7.689  20.556  0.00  0.00    +0.000 C 
ATOM      9  O   UNL     1       2.310   8.041  19.768  0.00  0.00    +0.000 OA
ATOM     10  H   UNL     1       0.321   6.212  21.482  0.00  0.00    +0.000 HD
BRANCH   8  11
ATOM     11  C   UNL     1       0.641   8.758  21.214  0.00  0.00    +0.000 A 
ATOM     12  C   UNL     1       0.590   9.996  20.562  0.00  0.00    +0.000 A 
ATOM     13  C   UNL     1      -0.115  11.060  21.118  0.00  0.00    +0.000 A 
ATOM     14  C   UNL     1      -0.804  10.915  22.333  0.00  0.00    +0.000 A 
ATOM     15  C   UNL     1      -0.752   9.660  22.970  0.00  0.00    +0.000 A 
ATOM     16  C   UNL     1      -0.045   8.586  22.418  0.00  0.00    +0.000 A 
BRANCH  14  17
ATOM     17  C   UNL     1      -1.544  12.041  22.931  0.00  0.00    +0.000 A 
ATOM     18  C   UNL     1      -1.017  13.332  23.004  0.00  0.00    +0.000 A 
ATOM     19  C   UNL     1      -1.755  14.335  23.625  0.00  0.00    +0.000 A 
ATOM     20  C   UNL     1      -3.003  14.030  24.150  0.00  0.00    +0.000 A 
ATOM     21  C   UNL     1      -3.465  12.733  24.025  0.00  0.00    +0.000 A 
ATOM     22  N   UNL     1      -2.770  11.740  23.428  0.00  0.00    +0.000 NA
ENDBRANCH  14  17
ENDBRANCH   8  11
ENDBRANCH   5   7
BRANCH   1  23
ATOM     23  C   UNL     1       3.456   4.023  17.233  0.00  0.00    +0.000 C 
BRANCH  23  24
ATOM     24  O   UNL     1       4.815   3.592  17.209  0.00  0.00    +0.000 OA
BRANCH  24  29
ATOM     25  C   UNL     1       6.497   4.127  13.947  0.00  0.00    +0.000 A 
ATOM     26  C   UNL     1       7.327   5.161  14.359  0.00  0.00    +0.000 A 
ATOM     27  N   UNL     1       7.313   5.672  15.611  0.00  0.00    +0.000 NA
ATOM     28  C   UNL     1       6.449   5.101  16.488  0.00  0.00    +0.000 A 
ATOM     29  C   UNL     1       5.597   4.042  16.184  0.00  0.00    +0.000 A 
ATOM     30  C   UNL     1       5.626   3.549  14.881  0.00  0.00    +0.000 A 
BRANCH  25  32
ATOM     31  N   UNL     1       5.846   2.563  12.212  0.00  0.00    +0.000 N 
ATOM     32  C   UNL     1       6.578   3.668  12.546  0.00  0.00    +0.000 C 
ATOM     33  O   UNL     1       7.239   4.271  11.711  0.00  0.00    +0.000 OA
ATOM     34  H   UNL     1       5.818   2.331  11.226  0.00  0.00    +0.000 HD
ATOM     35  H   UNL     1       5.087   2.225  12.786  0.00  0.00    +0.000 HD
ENDBRANCH  25  32
ENDBRANCH  24  29
ENDBRANCH  23  24
ENDBRANCH   1  23
TORSDOF 7
ENDMDL
MODEL 6
REMARK VINA RESULT:      -8.8      2.250      3.597
REMARK  Name = 
REMARK  7 active torsions:
REMARK  status: ('A' for Active; 'I' for Inactive)
REMARK    1  A    between atoms: C_2  and  C_4
REMARK    2  A    between atoms: C_8  and  O_9
REMARK    3  A    between atoms: O_9  and  C_10
REMARK    4  A    between atoms: C_10  and  C_11
REMARK    5  A    between atoms: C_15  and  N_16
REMARK    6  A    between atoms: C_17  and  C_19
REMARK    7  A    between atoms: C_22  and  C_23
REMARK                            x       y       z     vdW  Elec       q    Type
REMARK                         _______ _______ _______ _____ _____    ______ ____
ROOT
ATOM      1  C   UNL     1       4.718   4.446  17.226  0.00  0.00    +0.000 A 
ATOM      2  C   UNL     1       3.837   3.397  16.932  0.00  0.00    +0.000 A 
ATOM      3  C   UNL     1       2.492   3.491  17.283  0.00  0.00    +0.000 A 
ATOM      4  C   UNL     1       2.019   4.621  17.946  0.00  0.00    +0.000 A 
ATOM      5  C   UNL     1       2.885   5.665  18.279  0.00  0.00    +0.000 A 
ATOM      6  C   UNL     1       4.231   5.576  17.908  0.00  0.00    +0.000 A 
ENDROOT
BRANCH   5   7
ATOM      7  N   UNL     1       2.457   6.827  18.956  0.00  0.00    +0.000 N 
ATOM      8  C   UNL     1       1.865   6.849  20.208  0.00  0.00    +0.000 C 
ATOM      9  O   UNL     1       1.713   5.881  20.952  0.00  0.00    +0.000 OA
ATOM     10  H   UNL     1       2.611   7.701  18.479  0.00  0.00    +0.000 HD
BRANCH   8  11
ATOM     11  C   UNL     1       1.359   8.160  20.686  0.00  0.00    +0.000 A 
ATOM     12  C   UNL     1       1.222   9.170  19.726  0.00  0.00    +0.000 A 
ATOM     13  C   UNL     1       0.772  10.437  20.091  0.00  0.00    +0.000 A 
ATOM     14  C   UNL     1       0.432  10.729  21.421  0.00  0.00    +0.000 A 
ATOM     15  C   UNL     1       0.566   9.699  22.372  0.00  0.00    +0.000 A 
ATOM     16  C   UNL     1       1.018   8.423  22.014  0.00  0.00    +0.000 A 
BRANCH  14  17
ATOM     17  C   UNL     1      -0.034  12.070  21.814  0.00  0.00    +0.000 A 
ATOM     18  C   UNL     1      -1.221  12.276  22.521  0.00  0.00    +0.000 A 
ATOM     19  C   UNL     1      -1.621  13.575  22.817  0.00  0.00    +0.000 A 
ATOM     20  C   UNL     1      -0.826  14.637  22.411  0.00  0.00    +0.000 A 
ATOM     21  C   UNL     1       0.344  14.354  21.729  0.00  0.00    +0.000 A 
ATOM     22  N   UNL     1       0.756  13.103  21.428  0.00  0.00    +0.000 NA
ENDBRANCH  14  17
ENDBRANCH   8  11
ENDBRANCH   5   7
BRANCH   1  23
ATOM     23  C   UNL     1       6.174   4.351  16.841  0.00  0.00    +0.000 C 
BRANCH  23  24
ATOM     24  O   UNL     1       6.460   5.358  15.872  0.00  0.00    +0.000 OA
BRANCH  24  29
ATOM     25  C   UNL     1       6.212   3.679  12.575  0.00  0.00    +0.000 A 
ATOM     26  C   UNL     1       7.265   4.351  11.969  0.00  0.00    +0.000 A 
ATOM     27  N   UNL     1       7.987   5.313  12.588  0.00  0.00    +0.000 NA
ATOM     28  C   UNL     1       7.651   5.589  13.873  0.00  0.00    +0.000 A 
ATOM     29  C   UNL     1       6.633   4.953  14.579  0.00  0.00    +0.000 A 
ATOM     30  C   UNL     1       5.899   3.977  13.908  0.00  0.00    +0.000 A 
BRANCH  25  32
ATOM     31  N   UNL     1       6.082   1.454  11.617  0.00  0.00    +0.000 N 
ATOM     32  C   UNL     1       5.474   2.666  11.793  0.00  0.00    +0.000 C 
ATOM     33  O   UNL     1       4.353   2.886  11.354  0.00  0.00    +0.000 OA
ATOM     34  H   UNL     1       5.517   0.734  11.182  0.00  0.00    +0.000 HD
ATOM     35  H   UNL     1       6.854   1.150  12.193  0.00  0.00    +0.000 HD
ENDBRANCH  25  32
ENDBRANCH  24  29
ENDBRANCH  23  24
ENDBRANCH   1  23
TORSDOF 7
ENDMDL
MODEL 7
REMARK VINA RESULT:      -8.7      0.747      1.124
REMARK  Name = 
REMARK  7 active torsions:
REMARK  status: ('A' for Active; 'I' for Inactive)
REMARK    1  A    between atoms: C_2  and  C_4
REMARK    2  A    between atoms: C_8  and  O_9
REMARK    3  A    between atoms: O_9  and  C_10
REMARK    4  A    between atoms: C_10  and  C_11
REMARK    5  A    between atoms: C_15  and  N_16
REMARK    6  A    between atoms: C_17  and  C_19
REMARK    7  A    between atoms: C_22  and  C_23
REMARK                            x       y       z     vdW  Elec       q    Type
REMARK                         _______ _______ _______ _____ _____    ______ ____
ROOT
ATOM      1  C   UNL     1       2.965   3.252  19.023  0.00  0.00    +0.000 A 
ATOM      2  C   UNL     1       3.192   2.370  20.088  0.00  0.00    +0.000 A 
ATOM      3  C   UNL     1       2.771   2.700  21.375  0.00  0.00    +0.000 A 
ATOM      4  C   UNL     1       2.141   3.919  21.613  0.00  0.00    +0.000 A 
ATOM      5  C   UNL     1       1.934   4.829  20.574  0.00  0.00    +0.000 A 
ATOM      6  C   UNL     1       2.339   4.486  19.280  0.00  0.00    +0.000 A 
ENDROOT
BRANCH   5   7
ATOM      7  N   UNL     1       1.306   6.078  20.766  0.00  0.00    +0.000 N 
ATOM      8  C   UNL     1       1.772   7.289  20.280  0.00  0.00    +0.000 C 
ATOM      9  O   UNL     1       2.738   7.443  19.535  0.00  0.00    +0.000 OA
ATOM     10  H   UNL     1       0.446   6.067  21.293  0.00  0.00    +0.000 HD
BRANCH   8  11
ATOM     11  C   UNL     1       1.041   8.508  20.709  0.00  0.00    +0.000 A 
ATOM     12  C   UNL     1       0.472   8.483  21.988  0.00  0.00    +0.000 A 
ATOM     13  C   UNL     1      -0.247   9.577  22.463  0.00  0.00    +0.000 A 
ATOM     14  C   UNL     1      -0.407  10.733  21.683  0.00  0.00    +0.000 A 
ATOM     15  C   UNL     1       0.181  10.745  20.403  0.00  0.00    +0.000 A 
ATOM     16  C   UNL     1       0.905   9.650  19.918  0.00  0.00    +0.000 A 
BRANCH  14  17
ATOM     17  C   UNL     1      -1.175  11.889  22.177  0.00  0.00    +0.000 A 
ATOM     18  C   UNL     1      -2.164  11.771  23.157  0.00  0.00    +0.000 A 
ATOM     19  C   UNL     1      -2.881  12.900  23.540  0.00  0.00    +0.000 A 
ATOM     20  C   UNL     1      -2.591  14.120  22.947  0.00  0.00    +0.000 A 
ATOM     21  C   UNL     1      -1.587  14.162  21.996  0.00  0.00    +0.000 A 
ATOM     22  N   UNL     1      -0.876  13.082  21.605  0.00  0.00    +0.000 NA
ENDBRANCH  14  17
ENDBRANCH   8  11
ENDBRANCH   5   7
BRANCH   1  23
ATOM     23  C   UNL     1       3.411   2.895  17.626  0.00  0.00    +0.000 C 
BRANCH  23  24
ATOM     24  O   UNL     1       3.549   4.094  16.867  0.00  0.00    +0.000 OA
BRANCH  24  29
ATOM     25  C   UNL     1       6.766   5.936  16.993  0.00  0.00    +0.000 A 
ATOM     26  C   UNL     1       7.378   5.270  15.940  0.00  0.00    +0.000 A 
ATOM     27  N   UNL     1       6.789   4.262  15.255  0.00  0.00    +0.000 NA
ATOM     28  C   UNL     1       5.528   3.932  15.630  0.00  0.00    +0.000 A 
ATOM     29  C   UNL     1       4.817   4.557  16.652  0.00  0.00    +0.000 A 
ATOM     30  C   UNL     1       5.457   5.580  17.347  0.00  0.00    +0.000 A 
BRANCH  25  32
ATOM     31  N   UNL     1       8.115   6.669  18.871  0.00  0.00    +0.000 N 
ATOM     32  C   UNL     1       7.515   7.002  17.688  0.00  0.00    +0.000 C 
ATOM     33  O   UNL     1       7.629   8.123  17.210  0.00  0.00    +0.000 OA
ATOM     34  H   UNL     1       8.721   7.374  19.275  0.00  0.00    +0.000 HD
ATOM     35  H   UNL     1       8.281   5.710  19.139  0.00  0.00    +0.000 HD
ENDBRANCH  25  32
ENDBRANCH  24  29
ENDBRANCH  23  24
ENDBRANCH   1  23
TORSDOF 7
ENDMDL
MODEL 8
REMARK VINA RESULT:      -8.6      1.530      2.102
REMARK  Name = 
REMARK  7 active torsions:
REMARK  status: ('A' for Active; 'I' for Inactive)
REMARK    1  A    between atoms: C_2  and  C_4
REMARK    2  A    between atoms: C_8  and  O_9
REMARK    3  A    between atoms: O_9  and  C_10
REMARK    4  A    between atoms: C_10  and  C_11
REMARK    5  A    between atoms: C_15  and  N_16
REMARK    6  A    between atoms: C_17  and  C_19
REMARK    7  A    between atoms: C_22  and  C_23
REMARK                            x       y       z     vdW  Elec       q    Type
REMARK                         _______ _______ _______ _____ _____    ______ ____
ROOT
ATOM      1  C   UNL     1       3.611   3.804  19.750  0.00  0.00    +0.000 A 
ATOM      2  C   UNL     1       2.865   2.628  19.591  0.00  0.00    +0.000 A 
ATOM      3  C   UNL     1       1.492   2.632  19.824  0.00  0.00    +0.000 A 
ATOM      4  C   UNL     1       0.855   3.800  20.236  0.00  0.00    +0.000 A 
ATOM      5  C   UNL     1       1.582   4.976  20.433  0.00  0.00    +0.000 A 
ATOM      6  C   UNL     1       2.959   4.974  20.179  0.00  0.00    +0.000 A 
ENDROOT
BRANCH   5   7
ATOM      7  N   UNL     1       0.985   6.183  20.856  0.00  0.00    +0.000 N 
ATOM      8  C   UNL     1       1.392   7.451  20.475  0.00  0.00    +0.000 C 
ATOM      9  O   UNL     1       2.263   7.711  19.646  0.00  0.00    +0.000 OA
ATOM     10  H   UNL     1       0.194   6.094  21.475  0.00  0.00    +0.000 HD
BRANCH   8  11
ATOM     11  C   UNL     1       0.721   8.597  21.139  0.00  0.00    +0.000 A 
ATOM     12  C   UNL     1       0.416   9.700  20.334  0.00  0.00    +0.000 A 
ATOM     13  C   UNL     1      -0.197  10.826  20.879  0.00  0.00    +0.000 A 
ATOM     14  C   UNL     1      -0.536  10.877  22.241  0.00  0.00    +0.000 A 
ATOM     15  C   UNL     1      -0.231   9.755  23.034  0.00  0.00    +0.000 A 
ATOM     16  C   UNL     1       0.384   8.620  22.494  0.00  0.00    +0.000 A 
BRANCH  14  17
ATOM     17  C   UNL     1      -1.175  12.070  22.825  0.00  0.00    +0.000 A 
ATOM     18  C   UNL     1      -2.515  12.089  23.218  0.00  0.00    +0.000 A 
ATOM     19  C   UNL     1      -3.062  13.266  23.718  0.00  0.00    +0.000 A 
ATOM     20  C   UNL     1      -2.260  14.393  23.824  0.00  0.00    +0.000 A 
ATOM     21  C   UNL     1      -0.938  14.294  23.430  0.00  0.00    +0.000 A 
ATOM     22  N   UNL     1      -0.381  13.164  22.941  0.00  0.00    +0.000 NA
ENDBRANCH  14  17
ENDBRANCH   8  11
ENDBRANCH   5   7
BRANCH   1  23
ATOM     23  C   UNL     1       5.098   3.807  19.492  0.00  0.00    +0.000 C 
BRANCH  23  24
ATOM     24  O   UNL     1       5.508   5.135  19.175  0.00  0.00    +0.000 OA
BRANCH  24  29
ATOM     25  C   UNL     1       6.113   5.373  15.524  0.00  0.00    +0.000 A 
ATOM     26  C   UNL     1       5.324   6.493  15.300  0.00  0.00    +0.000 A 
ATOM     27  N   UNL     1       4.614   7.110  16.273  0.00  0.00    +0.000 NA
ATOM     28  C   UNL     1       4.726   6.593  17.523  0.00  0.00    +0.000 A 
ATOM     29  C   UNL     1       5.512   5.493  17.857  0.00  0.00    +0.000 A 
ATOM     30  C   UNL     1       6.218   4.872  16.829  0.00  0.00    +0.000 A 
BRANCH  25  32
ATOM     31  N   UNL     1       6.353   3.563  13.928  0.00  0.00    +0.000 N 
ATOM     32  C   UNL     1       6.821   4.765  14.380  0.00  0.00    +0.000 C 
ATOM     33  O   UNL     1       7.760   5.329  13.833  0.00  0.00    +0.000 OA
ATOM     34  H   UNL     1       6.772   3.216  13.073  0.00  0.00    +0.000 HD
ATOM     35  H   UNL     1       5.431   3.222  14.161  0.00  0.00    +0.000 HD
ENDBRANCH  25  32
ENDBRANCH  24  29
ENDBRANCH  23  24
ENDBRANCH   1  23
TORSDOF 7
ENDMDL
MODEL 9
REMARK VINA RESULT:      -8.6      5.310      8.698
REMARK  Name = 
REMARK  7 active torsions:
REMARK  status: ('A' for Active; 'I' for Inactive)
REMARK    1  A    between atoms: C_2  and  C_4
REMARK    2  A    between atoms: C_8  and  O_9
REMARK    3  A    between atoms: O_9  and  C_10
REMARK    4  A    between atoms: C_10  and  C_11
REMARK    5  A    between atoms: C_15  and  N_16
REMARK    6  A    between atoms: C_17  and  C_19
REMARK    7  A    between atoms: C_22  and  C_23
REMARK                            x       y       z     vdW  Elec       q    Type
REMARK                         _______ _______ _______ _____ _____    ______ ____
ROOT
ATOM      1  C   UNL     1       4.330   5.692  17.147  0.00  0.00    +0.000 A 
ATOM      2  C   UNL     1       4.906   4.632  16.434  0.00  0.00    +0.000 A 
ATOM      3  C   UNL     1       6.219   4.726  15.977  0.00  0.00    +0.000 A 
ATOM      4  C   UNL     1       6.959   5.882  16.211  0.00  0.00    +0.000 A 
ATOM      5  C   UNL     1       6.396   6.964  16.890  0.00  0.00    +0.000 A 
ATOM      6  C   UNL     1       5.083   6.859  17.365  0.00  0.00    +0.000 A 
ENDROOT
BRANCH   5   7
ATOM      7  N   UNL     1       7.102   8.159  17.145  0.00  0.00    +0.000 N 
ATOM      8  C   UNL     1       8.072   8.320  18.122  0.00  0.00    +0.000 C 
ATOM      9  O   UNL     1       8.527   7.432  18.840  0.00  0.00    +0.000 OA
ATOM     10  H   UNL     1       6.877   8.944  16.553  0.00  0.00    +0.000 HD
BRANCH   8  11
ATOM     11  C   UNL     1       8.597   9.694  18.322  0.00  0.00    +0.000 A 
ATOM     12  C   UNL     1       9.463   9.885  19.406  0.00  0.00    +0.000 A 
ATOM     13  C   UNL     1       9.988  11.146  19.679  0.00  0.00    +0.000 A 
ATOM     14  C   UNL     1       9.676  12.250  18.870  0.00  0.00    +0.000 A 
ATOM     15  C   UNL     1       8.813  12.039  17.778  0.00  0.00    +0.000 A 
ATOM     16  C   UNL     1       8.281  10.775  17.497  0.00  0.00    +0.000 A 
BRANCH  14  17
ATOM     17  C   UNL     1      10.220  13.588  19.160  0.00  0.00    +0.000 A 
ATOM     18  C   UNL     1      10.987  14.304  18.238  0.00  0.00    +0.000 A 
ATOM     19  C   UNL     1      11.507  15.543  18.601  0.00  0.00    +0.000 A 
ATOM     20  C   UNL     1      11.243  16.043  19.867  0.00  0.00    +0.000 A 
ATOM     21  C   UNL     1      10.462  15.284  20.720  0.00  0.00    +0.000 A 
ATOM     22  N   UNL     1       9.945  14.079  20.395  0.00  0.00    +0.000 NA
ENDBRANCH  14  17
ENDBRANCH   8  11
ENDBRANCH   5   7
BRANCH   1  23
ATOM     23  C   UNL     1       2.910   5.591  17.651  0.00  0.00    +0.000 C 
BRANCH  23  24
ATOM     24  O   UNL     1       2.910   5.769  19.066  0.00  0.00    +0.000 OA
BRANCH  24  29
ATOM     25  C   UNL     1       3.814   2.535  20.640  0.00  0.00    +0.000 A 
ATOM     26  C   UNL     1       2.752   2.484  21.532  0.00  0.00    +0.000 A 
ATOM     27  N   UNL     1       1.820   3.460  21.635  0.00  0.00    +0.000 NA
ATOM     28  C   UNL     1       1.950   4.512  20.788  0.00  0.00    +0.000 A 
ATOM     29  C   UNL     1       2.961   4.644  19.839  0.00  0.00    +0.000 A 
ATOM     30  C   UNL     1       3.913   3.629  19.770  0.00  0.00    +0.000 A 
BRANCH  25  32
ATOM     31  N   UNL     1       4.833   0.642  19.516  0.00  0.00    +0.000 N 
ATOM     32  C   UNL     1       4.789   1.426  20.636  0.00  0.00    +0.000 C 
ATOM     33  O   UNL     1       5.552   1.238  21.574  0.00  0.00    +0.000 OA
ATOM     34  H   UNL     1       5.583  -0.037  19.479  0.00  0.00    +0.000 HD
ATOM     35  H   UNL     1       4.435   0.938  18.636  0.00  0.00    +0.000 HD
ENDBRANCH  25  32
ENDBRANCH  24  29
ENDBRANCH  23  24
ENDBRANCH   1  23
TORSDOF 7
ENDMDL
