MODEL 1
REMARK VINA RESULT:      -7.9      0.000      0.000
REMARK  Name = 
REMARK  10 active torsions:
REMARK  status: ('A' for Active; 'I' for Inactive)
REMARK    1  A    between atoms: C_1  and  C_2
REMARK    2  A    between atoms: C_2  and  O_3
REMARK    3  A    between atoms: O_3  and  C_4
REMARK    4  A    between atoms: C_8  and  C_9
REMARK    5  A    between atoms: C_14  and  C_16
REMARK    6  A    between atoms: C_16  and  C_17
REMARK    7  A    between atoms: C_16  and  C_19
REMARK    8  A    between atoms: C_17  and  C_18
REMARK    9  A    between atoms: N_24  and  S_25
REMARK   10  A    between atoms: S_25  and  C_28
REMARK                            x       y       z     vdW  Elec       q    Type
REMARK                         _______ _______ _______ _____ _____    ______ ____
ROOT
ATOM      1  C   UNL     1       2.507   6.711  19.505  0.00  0.00    +0.000 A 
ATOM      2  C   UNL     1       1.913   7.212  20.670  0.00  0.00    +0.000 A 
ATOM      3  C   UNL     1       1.281   8.459  20.666  0.00  0.00    +0.000 A 
ATOM      4  C   UNL     1       1.300   9.208  19.501  0.00  0.00    +0.000 A 
ATOM      5  N   UNL     1       0.738  10.487  19.439  0.00  0.00    +0.000 N 
ATOM      6  C   UNL     1      -0.556  10.730  19.858  0.00  0.00    +0.000 C 
ATOM      7  O   UNL     1      -1.301   9.865  20.322  0.00  0.00    +0.000 OA
ATOM      8  N   UNL     1       1.898   8.788  18.370  0.00  0.00    +0.000 NA
ATOM      9  C   UNL     1       2.441   7.543  18.388  0.00  0.00    +0.000 A 
ATOM     10  H   UNL     1       1.083  11.028  18.658  0.00  0.00    +0.000 HD
ENDROOT
BRANCH   1  15
ATOM     11  C   UNL     1       5.206   4.336  19.047  0.00  0.00    +0.000 A 
ATOM     12  C   UNL     1       4.621   3.122  19.370  0.00  0.00    +0.000 A 
ATOM     13  N   UNL     1       3.330   3.020  19.756  0.00  0.00    +0.000 NA
ATOM     14  C   UNL     1       2.649   4.198  19.812  0.00  0.00    +0.000 A 
ATOM     15  C   UNL     1       3.225   5.429  19.498  0.00  0.00    +0.000 A 
ATOM     16  N   UNL     1       4.526   5.502  19.119  0.00  0.00    +0.000 NA
BRANCH  11  17
ATOM     17  O   UNL     1       6.533   4.344  18.673  0.00  0.00    +0.000 OA
BRANCH  17  19
ATOM     18  C   UNL     1       6.486   4.249  16.281  0.00  0.00    +0.000 C 
ATOM     19  C   UNL     1       6.757   5.122  17.493  0.00  0.00    +0.000 C 
ENDBRANCH  17  19
ENDBRANCH  11  17
ENDBRANCH   1  15
BRANCH   6  20
ATOM     20  C   UNL     1      -1.034  12.172  19.647  0.00  0.00    +0.000 C 
BRANCH  20  21
ATOM     21  C   UNL     1      -2.546  12.204  19.438  0.00  0.00    +0.000 A 
ATOM     22  C   UNL     1      -3.111  11.650  18.296  0.00  0.00    +0.000 A 
ATOM     23  C   UNL     1      -4.476  11.750  18.164  0.00  0.00    +0.000 A 
ATOM     24  N   UNL     1      -5.257  12.344  19.076  0.00  0.00    +0.000 NA
ATOM     25  C   UNL     1      -4.622  12.846  20.133  0.00  0.00    +0.000 A 
ATOM     26  N   UNL     1      -5.394  13.562  21.044  0.00  0.00    +0.000 N 
ATOM     27  N   UNL     1      -3.305  12.819  20.380  0.00  0.00    +0.000 NA
ATOM     28  H   UNL     1      -4.849  14.297  21.483  0.00  0.00    +0.000 HD
BRANCH  26  29
ATOM     29  S   UNL     1      -6.210  12.646  22.167  0.00  0.00    +0.000 S 
ATOM     30  O   UNL     1      -6.778  11.540  21.431  0.00  0.00    +0.000 OA
ATOM     31  O   UNL     1      -5.376  12.401  23.332  0.00  0.00    +0.000 OA
BRANCH  29  32
ATOM     32  C   UNL     1      -7.617  13.638  22.787  0.00  0.00    +0.000 C 
ATOM     33  C   UNL     1      -7.694  13.790  24.283  0.00  0.00    +0.000 C 
ATOM     34  C   UNL     1      -7.228  14.943  23.438  0.00  0.00    +0.000 C 
ENDBRANCH  29  32
ENDBRANCH  26  29
ENDBRANCH  20  21
BRANCH  20  35
ATOM     35  C   UNL     1      -0.309  12.828  18.450  0.00  0.00    +0.000 C 
ATOM     36  C   UNL     1       0.193  14.241  18.723  0.00  0.00    +0.000 C 
ENDBRANCH  20  35
ENDBRANCH   6  20
TORSDOF 8
ENDMDL
MODEL 2
REMARK VINA RESULT:      -7.9      1.764      2.120
REMARK  Name = 
REMARK  10 active torsions:
REMARK  status: ('A' for Active; 'I' for Inactive)
REMARK    1  A    between atoms: C_1  and  C_2
REMARK    2  A    between atoms: C_2  and  O_3
REMARK    3  A    between atoms: O_3  and  C_4
REMARK    4  A    between atoms: C_8  and  C_9
REMARK    5  A    between atoms: C_14  and  C_16
REMARK    6  A    between atoms: C_16  and  C_17
REMARK    7  A    between atoms: C_16  and  C_19
REMARK    8  A    between atoms: C_17  and  C_18
REMARK    9  A    between atoms: N_24  and  S_25
REMARK   10  A    between atoms: S_25  and  C_28
REMARK                            x       y       z     vdW  Elec       q    Type
REMARK                         _______ _______ _______ _____ _____    ______ ____
ROOT
ATOM      1  C   UNL     1       2.419   7.142  18.854  0.00  0.00    +0.000 A 
ATOM      2  C   UNL     1       2.110   8.025  17.813  0.00  0.00    +0.000 A 
ATOM      3  C   UNL     1       1.453   9.231  18.073  0.00  0.00    +0.000 A 
ATOM      4  C   UNL     1       1.070   9.509  19.375  0.00  0.00    +0.000 A 
ATOM      5  N   UNL     1       0.359  10.669  19.701  0.00  0.00    +0.000 N 
ATOM      6  C   UNL     1       0.796  11.919  19.308  0.00  0.00    +0.000 C 
ATOM      7  O   UNL     1       1.815  12.113  18.643  0.00  0.00    +0.000 OA
ATOM      8  N   UNL     1       1.305   8.672  20.403  0.00  0.00    +0.000 NA
ATOM      9  C   UNL     1       2.006   7.542  20.126  0.00  0.00    +0.000 A 
ATOM     10  H   UNL     1      -0.113  10.600  20.592  0.00  0.00    +0.000 HD
ENDROOT
BRANCH   1  15
ATOM     11  C   UNL     1       4.991   4.591  18.745  0.00  0.00    +0.000 A 
ATOM     12  C   UNL     1       4.362   3.531  18.112  0.00  0.00    +0.000 A 
ATOM     13  N   UNL     1       3.076   3.594  17.699  0.00  0.00    +0.000 NA
ATOM     14  C   UNL     1       2.443   4.771  17.957  0.00  0.00    +0.000 A 
ATOM     15  C   UNL     1       3.059   5.845  18.600  0.00  0.00    +0.000 A 
ATOM     16  N   UNL     1       4.350   5.752  19.010  0.00  0.00    +0.000 NA
BRANCH  11  17
ATOM     17  O   UNL     1       6.302   4.433  19.141  0.00  0.00    +0.000 OA
BRANCH  17  19
ATOM     18  C   UNL     1       8.039   6.080  19.181  0.00  0.00    +0.000 C 
ATOM     19  C   UNL     1       7.210   5.158  18.305  0.00  0.00    +0.000 C 
ENDBRANCH  17  19
ENDBRANCH  11  17
ENDBRANCH   1  15
BRANCH   6  20
ATOM     20  C   UNL     1      -0.063  13.083  19.818  0.00  0.00    +0.000 C 
BRANCH  20  21
ATOM     21  C   UNL     1      -1.545  12.776  19.618  0.00  0.00    +0.000 A 
ATOM     22  C   UNL     1      -1.952  11.880  18.637  0.00  0.00    +0.000 A 
ATOM     23  C   UNL     1      -3.306  11.683  18.494  0.00  0.00    +0.000 A 
ATOM     24  N   UNL     1      -4.218  12.307  19.250  0.00  0.00    +0.000 NA
ATOM     25  C   UNL     1      -3.729  13.148  20.160  0.00  0.00    +0.000 A 
ATOM     26  N   UNL     1      -4.656  13.891  20.887  0.00  0.00    +0.000 N 
ATOM     27  N   UNL     1      -2.441  13.432  20.397  0.00  0.00    +0.000 NA
ATOM     28  H   UNL     1      -4.277  14.797  21.142  0.00  0.00    +0.000 HD
BRANCH  26  29
ATOM     29  S   UNL     1      -5.327  13.114  22.196  0.00  0.00    +0.000 S 
ATOM     30  O   UNL     1      -6.046  14.131  22.929  0.00  0.00    +0.000 OA
ATOM     31  O   UNL     1      -6.002  11.896  21.778  0.00  0.00    +0.000 OA
BRANCH  29  32
ATOM     32  C   UNL     1      -3.962  12.556  23.279  0.00  0.00    +0.000 C 
ATOM     33  C   UNL     1      -3.426  13.591  24.232  0.00  0.00    +0.000 C 
ATOM     34  C   UNL     1      -4.310  12.489  24.746  0.00  0.00    +0.000 C 
ENDBRANCH  29  32
ENDBRANCH  26  29
ENDBRANCH  20  21
BRANCH  20  35
ATOM     35  C   UNL     1       0.316  14.405  19.112  0.00  0.00    +0.000 C 
ATOM     36  C   UNL     1       1.073  15.389  19.994  0.00  0.00    +0.000 C 
ENDBRANCH  20  35
ENDBRANCH   6  20
TORSDOF 8
ENDMDL
MODEL 3
REMARK VINA RESULT:      -7.8      4.249     11.580
REMARK  Name = 
REMARK  10 active torsions:
REMARK  status: ('A' for Active; 'I' for Inactive)
REMARK    1  A    between atoms: C_1  and  C_2
REMARK    2  A    between atoms: C_2  and  O_3
REMARK    3  A    between atoms: O_3  and  C_4
REMARK    4  A    between atoms: C_8  and  C_9
REMARK    5  A    between atoms: C_14  and  C_16
REMARK    6  A    between atoms: C_16  and  C_17
REMARK    7  A    between atoms: C_16  and  C_19
REMARK    8  A    between atoms: C_17  and  C_18
REMARK    9  A    between atoms: N_24  and  S_25
REMARK   10  A    between atoms: S_25  and  C_28
REMARK                            x       y       z     vdW  Elec       q    Type
REMARK                         _______ _______ _______ _____ _____    ______ ____
ROOT
ATOM      1  C   UNL     1      -0.242  10.857  21.372  0.00  0.00    +0.000 A 
ATOM      2  C   UNL     1       1.105  10.715  21.018  0.00  0.00    +0.000 A 
ATOM      3  C   UNL     1       1.688   9.448  20.931  0.00  0.00    +0.000 A 
ATOM      4  C   UNL     1       0.919   8.341  21.252  0.00  0.00    +0.000 A 
ATOM      5  N   UNL     1       1.451   7.047  21.243  0.00  0.00    +0.000 N 
ATOM      6  C   UNL     1       2.134   6.554  20.148  0.00  0.00    +0.000 C 
ATOM      7  O   UNL     1       2.339   7.199  19.119  0.00  0.00    +0.000 OA
ATOM      8  N   UNL     1      -0.367   8.430  21.642  0.00  0.00    +0.000 NA
ATOM      9  C   UNL     1      -0.922   9.670  21.648  0.00  0.00    +0.000 A 
ATOM     10  H   UNL     1       0.896   6.394  21.779  0.00  0.00    +0.000 HD
ENDROOT
BRANCH   1  15
ATOM     11  C   UNL     1      -0.886  14.174  22.685  0.00  0.00    +0.000 A 
ATOM     12  C   UNL     1      -1.974  14.604  21.944  0.00  0.00    +0.000 A 
ATOM     13  N   UNL     1      -2.544  13.842  20.984  0.00  0.00    +0.000 NA
ATOM     14  C   UNL     1      -1.965  12.625  20.792  0.00  0.00    +0.000 A 
ATOM     15  C   UNL     1      -0.863  12.179  21.523  0.00  0.00    +0.000 A 
ATOM     16  N   UNL     1      -0.308  12.969  22.478  0.00  0.00    +0.000 NA
BRANCH  11  17
ATOM     17  O   UNL     1      -0.364  15.023  23.638  0.00  0.00    +0.000 OA
BRANCH  17  19
ATOM     18  C   UNL     1      -0.964  16.536  25.393  0.00  0.00    +0.000 C 
ATOM     19  C   UNL     1      -1.244  15.187  24.754  0.00  0.00    +0.000 C 
ENDBRANCH  17  19
ENDBRANCH  11  17
ENDBRANCH   1  15
BRANCH   6  20
ATOM     20  C   UNL     1       2.580   5.093  20.282  0.00  0.00    +0.000 C 
BRANCH  20  21
ATOM     21  C   UNL     1       3.061   4.560  18.934  0.00  0.00    +0.000 A 
ATOM     22  C   UNL     1       2.170   3.948  18.060  0.00  0.00    +0.000 A 
ATOM     23  C   UNL     1       2.687   3.463  16.881  0.00  0.00    +0.000 A 
ATOM     24  N   UNL     1       3.982   3.561  16.556  0.00  0.00    +0.000 NA
ATOM     25  C   UNL     1       4.755   4.162  17.459  0.00  0.00    +0.000 A 
ATOM     26  N   UNL     1       6.123   4.182  17.197  0.00  0.00    +0.000 N 
ATOM     27  N   UNL     1       4.381   4.672  18.641  0.00  0.00    +0.000 NA
ATOM     28  H   UNL     1       6.658   4.160  18.058  0.00  0.00    +0.000 HD
BRANCH  26  29
ATOM     29  S   UNL     1       6.638   5.395  16.182  0.00  0.00    +0.000 S 
ATOM     30  O   UNL     1       7.376   4.736  15.128  0.00  0.00    +0.000 OA
ATOM     31  O   UNL     1       5.542   6.293  15.859  0.00  0.00    +0.000 OA
BRANCH  29  32
ATOM     32  C   UNL     1       7.843   6.422  17.099  0.00  0.00    +0.000 C 
ATOM     33  C   UNL     1       7.280   7.658  17.749  0.00  0.00    +0.000 C 
ATOM     34  C   UNL     1       7.626   6.463  18.592  0.00  0.00    +0.000 C 
ENDBRANCH  29  32
ENDBRANCH  26  29
ENDBRANCH  20  21
BRANCH  20  35
ATOM     35  C   UNL     1       1.437   4.210  20.834  0.00  0.00    +0.000 C 
ATOM     36  C   UNL     1       1.911   3.020  21.659  0.00  0.00    +0.000 C 
ENDBRANCH  20  35
ENDBRANCH   6  20
TORSDOF 8
ENDMDL
MODEL 4
REMARK VINA RESULT:      -7.8      1.227      2.012
REMARK  Name = 
REMARK  10 active torsions:
REMARK  status: ('A' for Active; 'I' for Inactive)
REMARK    1  A    between atoms: C_1  and  C_2
REMARK    2  A    between atoms: C_2  and  O_3
REMARK    3  A    between atoms: O_3  and  C_4
REMARK    4  A    between atoms: C_8  and  C_9
REMARK    5  A    between atoms: C_14  and  C_16
REMARK    6  A    between atoms: C_16  and  C_17
REMARK    7  A    between atoms: C_16  and  C_19
REMARK    8  A    between atoms: C_17  and  C_18
REMARK    9  A    between atoms: N_24  and  S_25
REMARK   10  A    between atoms: S_25  and  C_28
REMARK                            x       y       z     vdW  Elec       q    Type
REMARK                         _______ _______ _______ _____ _____    ______ ____
ROOT
ATOM      1  C   UNL     1       2.795   7.195  18.431  0.00  0.00    +0.000 A 
ATOM      2  C   UNL     1       2.251   7.495  19.686  0.00  0.00    +0.000 A 
ATOM      3  C   UNL     1       1.536   8.679  19.886  0.00  0.00    +0.000 A 
ATOM      4  C   UNL     1       1.422   9.571  18.832  0.00  0.00    +0.000 A 
ATOM      5  N   UNL     1       0.770  10.801  18.976  0.00  0.00    +0.000 N 
ATOM      6  C   UNL     1      -0.505  10.887  19.501  0.00  0.00    +0.000 C 
ATOM      7  O   UNL     1      -1.155   9.914  19.890  0.00  0.00    +0.000 OA
ATOM      8  N   UNL     1       1.966   9.348  17.622  0.00  0.00    +0.000 NA
ATOM      9  C   UNL     1       2.593   8.156  17.440  0.00  0.00    +0.000 A 
ATOM     10  H   UNL     1       1.022  11.462  18.255  0.00  0.00    +0.000 HD
ENDROOT
BRANCH   1  15
ATOM     11  C   UNL     1       3.652   3.677  18.257  0.00  0.00    +0.000 A 
ATOM     12  C   UNL     1       4.992   3.693  17.906  0.00  0.00    +0.000 A 
ATOM     13  N   UNL     1       5.675   4.842  17.705  0.00  0.00    +0.000 NA
ATOM     14  C   UNL     1       4.948   5.982  17.864  0.00  0.00    +0.000 A 
ATOM     15  C   UNL     1       3.596   5.984  18.209  0.00  0.00    +0.000 A 
ATOM     16  N   UNL     1       2.934   4.814  18.399  0.00  0.00    +0.000 NA
BRANCH  11  17
ATOM     17  O   UNL     1       3.035   2.457  18.431  0.00  0.00    +0.000 OA
BRANCH  17  19
ATOM     18  C   UNL     1       0.688   2.265  18.866  0.00  0.00    +0.000 C 
ATOM     19  C   UNL     1       2.059   2.490  19.478  0.00  0.00    +0.000 C 
ENDBRANCH  17  19
ENDBRANCH  11  17
ENDBRANCH   1  15
BRANCH   6  20
ATOM     20  C   UNL     1      -1.094  12.302  19.514  0.00  0.00    +0.000 C 
BRANCH  20  21
ATOM     21  C   UNL     1      -2.610  12.247  19.336  0.00  0.00    +0.000 A 
ATOM     22  C   UNL     1      -3.167  11.600  18.239  0.00  0.00    +0.000 A 
ATOM     23  C   UNL     1      -4.538  11.624  18.131  0.00  0.00    +0.000 A 
ATOM     24  N   UNL     1      -5.330  12.231  19.024  0.00  0.00    +0.000 NA
ATOM     25  C   UNL     1      -4.702  12.825  20.037  0.00  0.00    +0.000 A 
ATOM     26  N   UNL     1      -5.493  13.555  20.921  0.00  0.00    +0.000 N 
ATOM     27  N   UNL     1      -3.381  12.878  20.256  0.00  0.00    +0.000 NA
ATOM     28  H   UNL     1      -4.978  14.340  21.305  0.00  0.00    +0.000 HD
BRANCH  26  29
ATOM     29  S   UNL     1      -6.240  12.667  22.112  0.00  0.00    +0.000 S 
ATOM     30  O   UNL     1      -6.901  11.576  21.431  0.00  0.00    +0.000 OA
ATOM     31  O   UNL     1      -5.320  12.398  23.205  0.00  0.00    +0.000 OA
BRANCH  29  32
ATOM     32  C   UNL     1      -7.560  13.703  22.842  0.00  0.00    +0.000 C 
ATOM     33  C   UNL     1      -7.696  13.621  24.339  0.00  0.00    +0.000 C 
ATOM     34  C   UNL     1      -7.064  14.833  23.711  0.00  0.00    +0.000 C 
ENDBRANCH  29  32
ENDBRANCH  26  29
ENDBRANCH  20  21
BRANCH  20  35
ATOM     35  C   UNL     1      -0.453  13.181  18.416  0.00  0.00    +0.000 C 
ATOM     36  C   UNL     1      -0.183  14.618  18.846  0.00  0.00    +0.000 C 
ENDBRANCH  20  35
ENDBRANCH   6  20
TORSDOF 8
ENDMDL
MODEL 5
REMARK VINA RESULT:      -7.7      2.226      3.201
REMARK  Name = 
REMARK  10 active torsions:
REMARK  status: ('A' for Active; 'I' for Inactive)
REMARK    1  A    between atoms: C_1  and  C_2
REMARK    2  A    between atoms: C_2  and  O_3
REMARK    3  A    between atoms: O_3  and  C_4
REMARK    4  A    between atoms: C_8  and  C_9
REMARK    5  A    between atoms: C_14  and  C_16
REMARK    6  A    between atoms: C_16  and  C_17
REMARK    7  A    between atoms: C_16  and  C_19
REMARK    8  A    between atoms: C_17  and  C_18
REMARK    9  A    between atoms: N_24  and  S_25
REMARK   10  A    between atoms: S_25  and  C_28
REMARK                            x       y       z     vdW  Elec       q    Type
REMARK                         _______ _______ _______ _____ _____    ______ ____
ROOT
ATOM      1  C   UNL     1       2.284   7.640  18.802  0.00  0.00    +0.000 A 
ATOM      2  C   UNL     1       2.154   8.680  17.874  0.00  0.00    +0.000 A 
ATOM      3  C   UNL     1       1.525   9.877  18.231  0.00  0.00    +0.000 A 
ATOM      4  C   UNL     1       0.991   9.991  19.504  0.00  0.00    +0.000 A 
ATOM      5  N   UNL     1       0.299  11.136  19.912  0.00  0.00    +0.000 N 
ATOM      6  C   UNL     1       0.840  12.398  19.766  0.00  0.00    +0.000 C 
ATOM      7  O   UNL     1       1.944  12.619  19.265  0.00  0.00    +0.000 OA
ATOM      8  N   UNL     1       1.052   9.002  20.415  0.00  0.00    +0.000 NA
ATOM      9  C   UNL     1       1.730   7.879  20.060  0.00  0.00    +0.000 A 
ATOM     10  H   UNL     1      -0.287  10.971  20.719  0.00  0.00    +0.000 HD
ENDROOT
BRANCH   1  15
ATOM     11  C   UNL     1       2.913   4.070  18.772  0.00  0.00    +0.000 A 
ATOM     12  C   UNL     1       3.979   3.942  17.897  0.00  0.00    +0.000 A 
ATOM     13  N   UNL     1       4.538   5.004  17.274  0.00  0.00    +0.000 NA
ATOM     14  C   UNL     1       3.970   6.207  17.563  0.00  0.00    +0.000 A 
ATOM     15  C   UNL     1       2.891   6.354  18.435  0.00  0.00    +0.000 A 
ATOM     16  N   UNL     1       2.346   5.268  19.042  0.00  0.00    +0.000 NA
BRANCH  11  17
ATOM     17  O   UNL     1       2.402   2.930  19.354  0.00  0.00    +0.000 OA
BRANCH  17  19
ATOM     18  C   UNL     1       1.410   2.699  21.520  0.00  0.00    +0.000 C 
ATOM     19  C   UNL     1       1.209   3.192  20.098  0.00  0.00    +0.000 C 
ENDBRANCH  17  19
ENDBRANCH  11  17
ENDBRANCH   1  15
BRANCH   6  20
ATOM     20  C   UNL     1      -0.022  13.531  20.337  0.00  0.00    +0.000 C 
BRANCH  20  21
ATOM     21  C   UNL     1      -1.060  12.970  21.308  0.00  0.00    +0.000 A 
ATOM     22  C   UNL     1      -0.658  12.274  22.442  0.00  0.00    +0.000 A 
ATOM     23  C   UNL     1      -1.652  11.770  23.248  0.00  0.00    +0.000 A 
ATOM     24  N   UNL     1      -2.956  11.926  22.985  0.00  0.00    +0.000 NA
ATOM     25  C   UNL     1      -3.239  12.605  21.874  0.00  0.00    +0.000 A 
ATOM     26  N   UNL     1      -4.582  12.689  21.519  0.00  0.00    +0.000 N 
ATOM     27  N   UNL     1      -2.371  13.142  21.006  0.00  0.00    +0.000 NA
ATOM     28  H   UNL     1      -4.689  12.732  20.511  0.00  0.00    +0.000 HD
BRANCH  26  29
ATOM     29  S   UNL     1      -5.450  13.885  22.282  0.00  0.00    +0.000 S 
ATOM     30  O   UNL     1      -4.474  14.855  22.725  0.00  0.00    +0.000 OA
ATOM     31  O   UNL     1      -6.578  14.301  21.465  0.00  0.00    +0.000 OA
BRANCH  29  32
ATOM     32  C   UNL     1      -6.193  13.166  23.791  0.00  0.00    +0.000 C 
ATOM     33  C   UNL     1      -7.558  13.686  24.154  0.00  0.00    +0.000 C 
ATOM     34  C   UNL     1      -7.417  12.318  23.547  0.00  0.00    +0.000 C 
ENDBRANCH  29  32
ENDBRANCH  26  29
ENDBRANCH  20  21
BRANCH  20  35
ATOM     35  C   UNL     1      -0.715  14.326  19.208  0.00  0.00    +0.000 C 
ATOM     36  C   UNL     1      -0.335  15.801  19.160  0.00  0.00    +0.000 C 
ENDBRANCH  20  35
ENDBRANCH   6  20
TORSDOF 8
ENDMDL
MODEL 6
REMARK VINA RESULT:      -7.7      2.560      4.002
REMARK  Name = 
REMARK  10 active torsions:
REMARK  status: ('A' for Active; 'I' for Inactive)
REMARK    1  A    between atoms: C_1  and  C_2
REMARK    2  A    between atoms: C_2  and  O_3
REMARK    3  A    between atoms: O_3  and  C_4
REMARK    4  A    between atoms: C_8  and  C_9
REMARK    5  A    between atoms: C_14  and  C_16
REMARK    6  A    between atoms: C_16  and  C_17
REMARK    7  A    between atoms: C_16  and  C_19
REMARK    8  A    between atoms: C_17  and  C_18
REMARK    9  A    between atoms: N_24  and  S_25
REMARK   10  A    between atoms: S_25  and  C_28
REMARK                            x       y       z     vdW  Elec       q    Type
REMARK                         _______ _______ _______ _____ _____    ______ ____
ROOT
ATOM      1  C   UNL     1       1.529   8.527  20.002  0.00  0.00    +0.000 A 
ATOM      2  C   UNL     1       1.558   8.631  21.398  0.00  0.00    +0.000 A 
ATOM      3  C   UNL     1       0.900   9.680  22.047  0.00  0.00    +0.000 A 
ATOM      4  C   UNL     1       0.264  10.640  21.278  0.00  0.00    +0.000 A 
ATOM      5  N   UNL     1      -0.366  11.748  21.856  0.00  0.00    +0.000 N 
ATOM      6  C   UNL     1      -1.290  11.605  22.872  0.00  0.00    +0.000 C 
ATOM      7  O   UNL     1      -1.620  10.520  23.353  0.00  0.00    +0.000 OA
ATOM      8  N   UNL     1       0.248  10.608  19.932  0.00  0.00    +0.000 NA
ATOM      9  C   UNL     1       0.836   9.538  19.336  0.00  0.00    +0.000 A 
ATOM     10  H   UNL     1      -0.509  12.502  21.198  0.00  0.00    +0.000 HD
ENDROOT
BRANCH   1  15
ATOM     11  C   UNL     1       2.881   5.244  19.272  0.00  0.00    +0.000 A 
ATOM     12  C   UNL     1       3.624   5.454  18.122  0.00  0.00    +0.000 A 
ATOM     13  N   UNL     1       3.716   6.666  17.530  0.00  0.00    +0.000 NA
ATOM     14  C   UNL     1       3.018   7.663  18.141  0.00  0.00    +0.000 A 
ATOM     15  C   UNL     1       2.258   7.467  19.294  0.00  0.00    +0.000 A 
ATOM     16  N   UNL     1       2.179   6.237  19.864  0.00  0.00    +0.000 NA
BRANCH  11  17
ATOM     17  O   UNL     1       2.837   3.972  19.800  0.00  0.00    +0.000 OA
BRANCH  17  19
ATOM     18  C   UNL     1       2.253   2.578  21.657  0.00  0.00    +0.000 C 
ATOM     19  C   UNL     1       1.982   3.891  20.944  0.00  0.00    +0.000 C 
ENDBRANCH  17  19
ENDBRANCH  11  17
ENDBRANCH   1  15
BRANCH   6  20
ATOM     20  C   UNL     1      -1.937  12.917  23.333  0.00  0.00    +0.000 C 
BRANCH  20  21
ATOM     21  C   UNL     1      -3.458  12.786  23.337  0.00  0.00    +0.000 A 
ATOM     22  C   UNL     1      -4.170  12.889  24.526  0.00  0.00    +0.000 A 
ATOM     23  C   UNL     1      -5.534  12.725  24.453  0.00  0.00    +0.000 A 
ATOM     24  N   UNL     1      -6.179  12.478  23.306  0.00  0.00    +0.000 NA
ATOM     25  C   UNL     1      -5.409  12.395  22.222  0.00  0.00    +0.000 A 
ATOM     26  N   UNL     1      -6.039  12.033  21.034  0.00  0.00    +0.000 N 
ATOM     27  N   UNL     1      -4.077  12.530  22.158  0.00  0.00    +0.000 NA
ATOM     28  H   UNL     1      -5.410  11.511  20.433  0.00  0.00    +0.000 HD
BRANCH  26  29
ATOM     29  S   UNL     1      -6.786  13.273  20.215  0.00  0.00    +0.000 S 
ATOM     30  O   UNL     1      -7.881  13.697  21.059  0.00  0.00    +0.000 OA
ATOM     31  O   UNL     1      -5.808  14.239  19.743  0.00  0.00    +0.000 OA
BRANCH  29  32
ATOM     32  C   UNL     1      -7.537  12.574  18.700  0.00  0.00    +0.000 C 
ATOM     33  C   UNL     1      -6.871  12.963  17.407  0.00  0.00    +0.000 C 
ATOM     34  C   UNL     1      -6.666  11.583  17.966  0.00  0.00    +0.000 C 
ENDBRANCH  29  32
ENDBRANCH  26  29
ENDBRANCH  20  21
BRANCH  20  35
ATOM     35  C   UNL     1      -1.500  14.098  22.437  0.00  0.00    +0.000 C 
ATOM     36  C   UNL     1      -1.461  15.443  23.151  0.00  0.00    +0.000 C 
ENDBRANCH  20  35
ENDBRANCH   6  20
TORSDOF 8
ENDMDL
MODEL 7
REMARK VINA RESULT:      -7.7      3.691     11.787
REMARK  Name = 
REMARK  10 active torsions:
REMARK  status: ('A' for Active; 'I' for Inactive)
REMARK    1  A    between atoms: C_1  and  C_2
REMARK    2  A    between atoms: C_2  and  O_3
REMARK    3  A    between atoms: O_3  and  C_4
REMARK    4  A    between atoms: C_8  and  C_9
REMARK    5  A    between atoms: C_14  and  C_16
REMARK    6  A    between atoms: C_16  and  C_17
REMARK    7  A    between atoms: C_16  and  C_19
REMARK    8  A    between atoms: C_17  and  C_18
REMARK    9  A    between atoms: N_24  and  S_25
REMARK   10  A    between atoms: S_25  and  C_28
REMARK                            x       y       z     vdW  Elec       q    Type
REMARK                         _______ _______ _______ _____ _____    ______ ____
ROOT
ATOM      1  C   UNL     1       0.150  10.685  20.438  0.00  0.00    +0.000 A 
ATOM      2  C   UNL     1       1.121  10.224  19.540  0.00  0.00    +0.000 A 
ATOM      3  C   UNL     1       1.670   8.947  19.682  0.00  0.00    +0.000 A 
ATOM      4  C   UNL     1       1.272   8.169  20.757  0.00  0.00    +0.000 A 
ATOM      5  N   UNL     1       1.821   6.904  20.994  0.00  0.00    +0.000 N 
ATOM      6  C   UNL     1       1.870   5.940  20.006  0.00  0.00    +0.000 C 
ATOM      7  O   UNL     1       1.456   6.111  18.858  0.00  0.00    +0.000 OA
ATOM      8  N   UNL     1       0.376   8.586  21.671  0.00  0.00    +0.000 NA
ATOM      9  C   UNL     1      -0.191   9.804  21.464  0.00  0.00    +0.000 A 
ATOM     10  H   UNL     1       1.682   6.590  21.945  0.00  0.00    +0.000 HD
ENDROOT
BRANCH   1  15
ATOM     11  C   UNL     1      -2.241  13.399  20.672  0.00  0.00    +0.000 A 
ATOM     12  C   UNL     1      -1.551  14.479  20.144  0.00  0.00    +0.000 A 
ATOM     13  N   UNL     1      -0.280  14.376  19.694  0.00  0.00    +0.000 NA
ATOM     14  C   UNL     1       0.275  13.138  19.806  0.00  0.00    +0.000 A 
ATOM     15  C   UNL     1      -0.403  12.042  20.343  0.00  0.00    +0.000 A 
ATOM     16  N   UNL     1      -1.677  12.176  20.792  0.00  0.00    +0.000 NA
BRANCH  11  17
ATOM     17  O   UNL     1      -3.530  13.600  21.115  0.00  0.00    +0.000 OA
BRANCH  17  19
ATOM     18  C   UNL     1      -3.957  13.097  23.416  0.00  0.00    +0.000 C 
ATOM     19  C   UNL     1      -3.568  14.178  22.424  0.00  0.00    +0.000 C 
ENDBRANCH  17  19
ENDBRANCH  11  17
ENDBRANCH   1  15
BRANCH   6  20
ATOM     20  C   UNL     1       2.434   4.589  20.463  0.00  0.00    +0.000 C 
BRANCH  20  21
ATOM     21  C   UNL     1       3.217   3.931  19.329  0.00  0.00    +0.000 A 
ATOM     22  C   UNL     1       2.733   2.783  18.713  0.00  0.00    +0.000 A 
ATOM     23  C   UNL     1       3.512   2.230  17.724  0.00  0.00    +0.000 A 
ATOM     24  N   UNL     1       4.687   2.748  17.344  0.00  0.00    +0.000 NA
ATOM     25  C   UNL     1       5.066   3.847  17.995  0.00  0.00    +0.000 A 
ATOM     26  N   UNL     1       6.331   4.346  17.697  0.00  0.00    +0.000 N 
ATOM     27  N   UNL     1       4.405   4.480  18.975  0.00  0.00    +0.000 NA
ATOM     28  H   UNL     1       6.744   4.797  18.506  0.00  0.00    +0.000 HD
BRANCH  26  29
ATOM     29  S   UNL     1       6.419   5.308  16.344  0.00  0.00    +0.000 S 
ATOM     30  O   UNL     1       5.078   5.801  16.125  0.00  0.00    +0.000 OA
ATOM     31  O   UNL     1       7.533   6.236  16.446  0.00  0.00    +0.000 OA
BRANCH  29  32
ATOM     32  C   UNL     1       6.820   4.236  14.916  0.00  0.00    +0.000 C 
ATOM     33  C   UNL     1       5.760   4.153  13.849  0.00  0.00    +0.000 C 
ATOM     34  C   UNL     1       6.999   4.970  13.609  0.00  0.00    +0.000 C 
ENDBRANCH  29  32
ENDBRANCH  26  29
ENDBRANCH  20  21
BRANCH  20  35
ATOM     35  C   UNL     1       1.306   3.653  20.954  0.00  0.00    +0.000 C 
ATOM     36  C   UNL     1       1.753   2.627  21.988  0.00  0.00    +0.000 C 
ENDBRANCH  20  35
ENDBRANCH   6  20
TORSDOF 8
ENDMDL
MODEL 8
REMARK VINA RESULT:      -7.7      4.565     11.435
REMARK  Name = 
REMARK  10 active torsions:
REMARK  status: ('A' for Active; 'I' for Inactive)
REMARK    1  A    between atoms: C_1  and  C_2
REMARK    2  A    between atoms: C_2  and  O_3
REMARK    3  A    between atoms: O_3  and  C_4
REMARK    4  A    between atoms: C_8  and  C_9
REMARK    5  A    between atoms: C_14  and  C_16
REMARK    6  A    between atoms: C_16  and  C_17
REMARK    7  A    between atoms: C_16  and  C_19
REMARK    8  A    between atoms: C_17  and  C_18
REMARK    9  A    between atoms: N_24  and  S_25
REMARK   10  A    between atoms: S_25  and  C_28
REMARK                            x       y       z     vdW  Elec       q    Type
REMARK                         _______ _______ _______ _____ _____    ______ ____
ROOT
ATOM      1  C   UNL     1       0.472  10.756  20.239  0.00  0.00    +0.000 A 
ATOM      2  C   UNL     1       1.266  10.163  19.250  0.00  0.00    +0.000 A 
ATOM      3  C   UNL     1       1.761   8.867  19.418  0.00  0.00    +0.000 A 
ATOM      4  C   UNL     1       1.492   8.202  20.604  0.00  0.00    +0.000 A 
ATOM      5  N   UNL     1       2.002   6.926  20.865  0.00  0.00    +0.000 N 
ATOM      6  C   UNL     1       1.844   5.887  19.968  0.00  0.00    +0.000 C 
ATOM      7  O   UNL     1       1.268   5.997  18.884  0.00  0.00    +0.000 OA
ATOM      8  N   UNL     1       0.772   8.748  21.602  0.00  0.00    +0.000 NA
ATOM      9  C   UNL     1       0.247   9.982  21.378  0.00  0.00    +0.000 A 
ATOM     10  H   UNL     1       1.994   6.697  21.849  0.00  0.00    +0.000 HD
ENDROOT
BRANCH   1  15
ATOM     11  C   UNL     1       0.541  14.346  19.747  0.00  0.00    +0.000 A 
ATOM     12  C   UNL     1      -0.780  14.719  19.930  0.00  0.00    +0.000 A 
ATOM     13  N   UNL     1      -1.752  13.824  20.216  0.00  0.00    +0.000 NA
ATOM     14  C   UNL     1      -1.339  12.529  20.301  0.00  0.00    +0.000 A 
ATOM     15  C   UNL     1      -0.014  12.136  20.111  0.00  0.00    +0.000 A 
ATOM     16  N   UNL     1       0.941  13.057  19.819  0.00  0.00    +0.000 NA
BRANCH  11  17
ATOM     17  O   UNL     1       1.463  15.327  19.448  0.00  0.00    +0.000 OA
BRANCH  17  19
ATOM     18  C   UNL     1       3.208  15.238  17.812  0.00  0.00    +0.000 C 
ATOM     19  C   UNL     1       2.763  14.787  19.192  0.00  0.00    +0.000 C 
ENDBRANCH  17  19
ENDBRANCH  11  17
ENDBRANCH   1  15
BRANCH   6  20
ATOM     20  C   UNL     1       2.397   4.541  20.450  0.00  0.00    +0.000 C 
BRANCH  20  21
ATOM     21  C   UNL     1       3.218   3.879  19.345  0.00  0.00    +0.000 A 
ATOM     22  C   UNL     1       2.782   2.698  18.757  0.00  0.00    +0.000 A 
ATOM     23  C   UNL     1       3.594   2.144  17.794  0.00  0.00    +0.000 A 
ATOM     24  N   UNL     1       4.755   2.692  17.414  0.00  0.00    +0.000 NA
ATOM     25  C   UNL     1       5.087   3.821  18.038  0.00  0.00    +0.000 A 
ATOM     26  N   UNL     1       6.338   4.355  17.741  0.00  0.00    +0.000 N 
ATOM     27  N   UNL     1       4.392   4.459  18.991  0.00  0.00    +0.000 NA
ATOM     28  H   UNL     1       6.724   4.843  18.543  0.00  0.00    +0.000 HD
BRANCH  26  29
ATOM     29  S   UNL     1       6.411   5.282  16.362  0.00  0.00    +0.000 S 
ATOM     30  O   UNL     1       5.058   5.728  16.118  0.00  0.00    +0.000 OA
ATOM     31  O   UNL     1       7.497   6.245  16.448  0.00  0.00    +0.000 OA
BRANCH  29  32
ATOM     32  C   UNL     1       6.857   4.182  14.969  0.00  0.00    +0.000 C 
ATOM     33  C   UNL     1       5.820   4.056  13.885  0.00  0.00    +0.000 C 
ATOM     34  C   UNL     1       7.050   4.887  13.649  0.00  0.00    +0.000 C 
ENDBRANCH  29  32
ENDBRANCH  26  29
ENDBRANCH  20  21
BRANCH  20  35
ATOM     35  C   UNL     1       1.258   3.604  20.911  0.00  0.00    +0.000 C 
ATOM     36  C   UNL     1       1.660   2.625  22.007  0.00  0.00    +0.000 C 
ENDBRANCH  20  35
ENDBRANCH   6  20
TORSDOF 8
ENDMDL
MODEL 9
REMARK VINA RESULT:      -7.7      2.036      2.885
REMARK  Name = 
REMARK  10 active torsions:
REMARK  status: ('A' for Active; 'I' for Inactive)
REMARK    1  A    between atoms: C_1  and  C_2
REMARK    2  A    between atoms: C_2  and  O_3
REMARK    3  A    between atoms: O_3  and  C_4
REMARK    4  A    between atoms: C_8  and  C_9
REMARK    5  A    between atoms: C_14  and  C_16
REMARK    6  A    between atoms: C_16  and  C_17
REMARK    7  A    between atoms: C_16  and  C_19
REMARK    8  A    between atoms: C_17  and  C_18
REMARK    9  A    between atoms: N_24  and  S_25
REMARK   10  A    between atoms: S_25  and  C_28
REMARK                            x       y       z     vdW  Elec       q    Type
REMARK                         _______ _______ _______ _____ _____    ______ ____
ROOT
ATOM      1  C   UNL     1       2.527   6.964  19.356  0.00  0.00    +0.000 A 
ATOM      2  C   UNL     1       2.354   7.686  18.169  0.00  0.00    +0.000 A 
ATOM      3  C   UNL     1       1.577   8.848  18.150  0.00  0.00    +0.000 A 
ATOM      4  C   UNL     1       0.941   9.240  19.317  0.00  0.00    +0.000 A 
ATOM      5  N   UNL     1       0.102  10.358  19.359  0.00  0.00    +0.000 N 
ATOM      6  C   UNL     1       0.515  11.589  18.887  0.00  0.00    +0.000 C 
ATOM      7  O   UNL     1       1.623  11.798  18.389  0.00  0.00    +0.000 OA
ATOM      8  N   UNL     1       1.041   8.553  20.471  0.00  0.00    +0.000 NA
ATOM      9  C   UNL     1       1.859   7.469  20.473  0.00  0.00    +0.000 A 
ATOM     10  H   UNL     1      -0.520  10.350  20.155  0.00  0.00    +0.000 HD
ENDROOT
BRANCH   1  15
ATOM     11  C   UNL     1       5.170   4.583  18.663  0.00  0.00    +0.000 A 
ATOM     12  C   UNL     1       4.747   3.438  19.318  0.00  0.00    +0.000 A 
ATOM     13  N   UNL     1       3.591   3.388  20.018  0.00  0.00    +0.000 NA
ATOM     14  C   UNL     1       2.877   4.547  20.038  0.00  0.00    +0.000 A 
ATOM     15  C   UNL     1       3.293   5.712  19.391  0.00  0.00    +0.000 A 
ATOM     16  N   UNL     1       4.461   5.734  18.700  0.00  0.00    +0.000 NA
BRANCH  11  17
ATOM     17  O   UNL     1       6.368   4.543  17.982  0.00  0.00    +0.000 OA
BRANCH  17  19
ATOM     18  C   UNL     1       7.922   6.007  19.065  0.00  0.00    +0.000 C 
ATOM     19  C   UNL     1       6.978   5.834  17.888  0.00  0.00    +0.000 C 
ENDBRANCH  17  19
ENDBRANCH  11  17
ENDBRANCH   1  15
BRANCH   6  20
ATOM     20  C   UNL     1      -0.503  12.720  19.081  0.00  0.00    +0.000 C 
BRANCH  20  21
ATOM     21  C   UNL     1      -0.623  13.076  20.562  0.00  0.00    +0.000 A 
ATOM     22  C   UNL     1       0.191  14.056  21.117  0.00  0.00    +0.000 A 
ATOM     23  C   UNL     1       0.047  14.296  22.464  0.00  0.00    +0.000 A 
ATOM     24  N   UNL     1      -0.828  13.637  23.234  0.00  0.00    +0.000 NA
ATOM     25  C   UNL     1      -1.561  12.716  22.610  0.00  0.00    +0.000 A 
ATOM     26  N   UNL     1      -2.402  11.942  23.404  0.00  0.00    +0.000 N 
ATOM     27  N   UNL     1      -1.516  12.384  21.312  0.00  0.00    +0.000 NA
ATOM     28  H   UNL     1      -2.511  11.010  23.018  0.00  0.00    +0.000 HD
BRANCH  26  29
ATOM     29  S   UNL     1      -3.869  12.631  23.775  0.00  0.00    +0.000 S 
ATOM     30  O   UNL     1      -4.765  12.242  22.709  0.00  0.00    +0.000 OA
ATOM     31  O   UNL     1      -4.223  12.371  25.160  0.00  0.00    +0.000 OA
BRANCH  29  32
ATOM     32  C   UNL     1      -3.683  14.447  23.662  0.00  0.00    +0.000 C 
ATOM     33  C   UNL     1      -4.499  15.118  22.589  0.00  0.00    +0.000 C 
ATOM     34  C   UNL     1      -4.920  15.231  24.028  0.00  0.00    +0.000 C 
ENDBRANCH  29  32
ENDBRANCH  26  29
ENDBRANCH  20  21
BRANCH  20  35
ATOM     35  C   UNL     1      -1.884  12.330  18.507  0.00  0.00    +0.000 C 
ATOM     36  C   UNL     1      -1.818  11.561  17.193  0.00  0.00    +0.000 C 
ENDBRANCH  20  35
ENDBRANCH   6  20
TORSDOF 8
ENDMDL
