MODEL 1
REMARK VINA RESULT:      -8.0      0.000      0.000
REMARK  Name = 
REMARK  2 active torsions:
REMARK  status: ('A' for Active; 'I' for Inactive)
REMARK    1  A    between atoms: S_1  and  C_2
REMARK    2  A    between atoms: C_13  and  C_14
REMARK                            x       y       z     vdW  Elec       q    Type
REMARK                         _______ _______ _______ _____ _____    ______ ____
ROOT
ATOM      1  C   UNL     1       4.762   3.899  18.919  0.00  0.00    +0.000 C 
ATOM      2  N   UNL     1       5.808   4.179  19.597  0.00  0.00    +0.000 NA
ATOM      3  C   UNL     1       6.641   5.363  19.449  0.00  0.00    +0.000 C 
ATOM      4  C   UNL     1       6.838   6.026  18.084  0.00  0.00    +0.000 C 
ATOM      5  C   UNL     1       6.424   5.355  16.804  0.00  0.00    +0.000 A 
ATOM      6  C   UNL     1       7.298   5.439  15.699  0.00  0.00    +0.000 A 
ATOM      7  C   UNL     1       6.965   4.888  14.463  0.00  0.00    +0.000 A 
ATOM      8  C   UNL     1       5.755   4.229  14.315  0.00  0.00    +0.000 A 
ATOM      9 CL   UNL     1       5.332   3.534  12.800  0.00  0.00    +0.000 Cl
ATOM     10  C   UNL     1       4.874   4.141  15.389  0.00  0.00    +0.000 A 
ATOM     11  C   UNL     1       5.169   4.744  16.632  0.00  0.00    +0.000 A 
ATOM     12  C   UNL     1       4.136   4.653  17.751  0.00  0.00    +0.000 C 
ENDROOT
BRANCH  12  13
ATOM     13  C   UNL     1       3.383   5.947  18.111  0.00  0.00    +0.000 A 
ATOM     14  C   UNL     1       3.487   7.105  17.308  0.00  0.00    +0.000 A 
ATOM     15  C   UNL     1       2.855   8.306  17.652  0.00  0.00    +0.000 A 
ATOM     16  C   UNL     1       2.114   8.397  18.820  0.00  0.00    +0.000 A 
ATOM     17  C   UNL     1       2.015   7.287  19.650  0.00  0.00    +0.000 A 
ATOM     18  C   UNL     1       2.647   6.081  19.309  0.00  0.00    +0.000 A 
ATOM     19 CL   UNL     1       2.524   4.829  20.494  0.00  0.00    +0.000 Cl
ENDBRANCH  12  13
BRANCH   1  20
ATOM     20  S   UNL     1       3.940   2.419  19.406  0.00  0.00    +0.000 S 
ATOM     21  H   UNL     1       3.866   2.765  20.698  0.00  0.00    +0.000 HD
ENDBRANCH   1  20
TORSDOF 2
ENDMDL
MODEL 2
REMARK VINA RESULT:      -7.1      1.265      1.658
REMARK  Name = 
REMARK  2 active torsions:
REMARK  status: ('A' for Active; 'I' for Inactive)
REMARK    1  A    between atoms: S_1  and  C_2
REMARK    2  A    between atoms: C_13  and  C_14
REMARK                            x       y       z     vdW  Elec       q    Type
REMARK                         _______ _______ _______ _____ _____    ______ ____
ROOT
ATOM      1  C   UNL     1       4.986   3.978  18.988  0.00  0.00    +0.000 C 
ATOM      2  N   UNL     1       6.049   4.254  19.640  0.00  0.00    +0.000 NA
ATOM      3  C   UNL     1       6.895   5.424  19.457  0.00  0.00    +0.000 C 
ATOM      4  C   UNL     1       7.074   6.063  18.079  0.00  0.00    +0.000 C 
ATOM      5  C   UNL     1       6.625   5.378  16.817  0.00  0.00    +0.000 A 
ATOM      6  C   UNL     1       7.479   5.432  15.695  0.00  0.00    +0.000 A 
ATOM      7  C   UNL     1       7.113   4.867  14.474  0.00  0.00    +0.000 A 
ATOM      8  C   UNL     1       5.891   4.223  14.361  0.00  0.00    +0.000 A 
ATOM      9 CL   UNL     1       5.428   3.511  12.865  0.00  0.00    +0.000 Cl
ATOM     10  C   UNL     1       5.031   4.164  15.453  0.00  0.00    +0.000 A 
ATOM     11  C   UNL     1       5.359   4.782  16.680  0.00  0.00    +0.000 A 
ATOM     12  C   UNL     1       4.347   4.723  17.820  0.00  0.00    +0.000 C 
ENDROOT
BRANCH  12  13
ATOM     13  C   UNL     1       3.620   6.033  18.175  0.00  0.00    +0.000 A 
ATOM     14  C   UNL     1       2.822   6.139  19.335  0.00  0.00    +0.000 A 
ATOM     15  C   UNL     1       2.108   7.304  19.642  0.00  0.00    +0.000 A 
ATOM     16  C   UNL     1       2.152   8.396  18.789  0.00  0.00    +0.000 A 
ATOM     17  C   UNL     1       2.903   8.317  17.622  0.00  0.00    +0.000 A 
ATOM     18  C   UNL     1       3.620   7.151  17.311  0.00  0.00    +0.000 A 
ATOM     19 CL   UNL     1       4.412   7.166  15.775  0.00  0.00    +0.000 Cl
ENDBRANCH  12  13
BRANCH   1  20
ATOM     20  S   UNL     1       4.154   2.518  19.514  0.00  0.00    +0.000 S 
ATOM     21  H   UNL     1       5.071   2.206  20.439  0.00  0.00    +0.000 HD
ENDBRANCH   1  20
TORSDOF 2
ENDMDL
MODEL 3
REMARK VINA RESULT:      -7.1      8.228     10.251
REMARK  Name = 
REMARK  2 active torsions:
REMARK  status: ('A' for Active; 'I' for Inactive)
REMARK    1  A    between atoms: S_1  and  C_2
REMARK    2  A    between atoms: C_13  and  C_14
REMARK                            x       y       z     vdW  Elec       q    Type
REMARK                         _______ _______ _______ _____ _____    ______ ____
ROOT
ATOM      1  C   UNL     1      -1.075  13.617  19.877  0.00  0.00    +0.000 C 
ATOM      2  N   UNL     1      -1.967  14.303  20.481  0.00  0.00    +0.000 NA
ATOM      3  C   UNL     1      -3.200  13.795  21.065  0.00  0.00    +0.000 C 
ATOM      4  C   UNL     1      -3.938  12.607  20.445  0.00  0.00    +0.000 C 
ATOM      5  C   UNL     1      -3.598  12.083  19.076  0.00  0.00    +0.000 A 
ATOM      6  C   UNL     1      -4.663  11.731  18.219  0.00  0.00    +0.000 A 
ATOM      7  C   UNL     1      -4.432  11.190  16.955  0.00  0.00    +0.000 A 
ATOM      8  C   UNL     1      -3.129  11.007  16.521  0.00  0.00    +0.000 A 
ATOM      9 CL   UNL     1      -2.826  10.351  14.960  0.00  0.00    +0.000 Cl
ATOM     10  C   UNL     1      -2.064  11.340  17.353  0.00  0.00    +0.000 A 
ATOM     11  C   UNL     1      -2.279  11.834  18.659  0.00  0.00    +0.000 A 
ATOM     12  C   UNL     1      -1.066  12.130  19.535  0.00  0.00    +0.000 C 
ENDROOT
BRANCH  12  13
ATOM     13  C   UNL     1      -0.805  11.171  20.711  0.00  0.00    +0.000 A 
ATOM     14  C   UNL     1      -1.192  11.501  22.028  0.00  0.00    +0.000 A 
ATOM     15  C   UNL     1      -0.911  10.666  23.117  0.00  0.00    +0.000 A 
ATOM     16  C   UNL     1      -0.217   9.481  22.928  0.00  0.00    +0.000 A 
ATOM     17  C   UNL     1       0.205   9.137  21.649  0.00  0.00    +0.000 A 
ATOM     18  C   UNL     1      -0.074   9.972  20.556  0.00  0.00    +0.000 A 
ATOM     19 CL   UNL     1       0.614   9.465  19.053  0.00  0.00    +0.000 Cl
ENDBRANCH  12  13
BRANCH   1  20
ATOM     20  S   UNL     1       0.336  14.532  19.358  0.00  0.00    +0.000 S 
ATOM     21  H   UNL     1       0.287  15.387  20.388  0.00  0.00    +0.000 HD
ENDBRANCH   1  20
TORSDOF 2
ENDMDL
MODEL 4
REMARK VINA RESULT:      -6.9      2.889      4.611
REMARK  Name = 
REMARK  2 active torsions:
REMARK  status: ('A' for Active; 'I' for Inactive)
REMARK    1  A    between atoms: S_1  and  C_2
REMARK    2  A    between atoms: C_13  and  C_14
REMARK                            x       y       z     vdW  Elec       q    Type
REMARK                         _______ _______ _______ _____ _____    ______ ____
ROOT
ATOM      1  C   UNL     1       5.174   5.079  18.563  0.00  0.00    +0.000 C 
ATOM      2  N   UNL     1       5.357   4.582  17.401  0.00  0.00    +0.000 NA
ATOM      3  C   UNL     1       4.332   4.317  16.403  0.00  0.00    +0.000 C 
ATOM      4  C   UNL     1       2.917   3.905  16.813  0.00  0.00    +0.000 C 
ATOM      5  C   UNL     1       2.583   3.490  18.219  0.00  0.00    +0.000 A 
ATOM      6  C   UNL     1       1.732   2.378  18.396  0.00  0.00    +0.000 A 
ATOM      7  C   UNL     1       1.333   1.960  19.665  0.00  0.00    +0.000 A 
ATOM      8  C   UNL     1       1.794   2.640  20.781  0.00  0.00    +0.000 A 
ATOM      9 CL   UNL     1       1.322   2.133  22.355  0.00  0.00    +0.000 Cl
ATOM     10  C   UNL     1       2.628   3.744  20.629  0.00  0.00    +0.000 A 
ATOM     11  C   UNL     1       2.995   4.217  19.350  0.00  0.00    +0.000 A 
ATOM     12  C   UNL     1       3.870   5.463  19.255  0.00  0.00    +0.000 C 
ENDROOT
BRANCH  12  13
ATOM     13  C   UNL     1       3.195   6.752  18.753  0.00  0.00    +0.000 A 
ATOM     14  C   UNL     1       3.656   7.420  17.597  0.00  0.00    +0.000 A 
ATOM     15  C   UNL     1       3.090   8.624  17.160  0.00  0.00    +0.000 A 
ATOM     16  C   UNL     1       2.057   9.211  17.873  0.00  0.00    +0.000 A 
ATOM     17  C   UNL     1       1.597   8.598  19.032  0.00  0.00    +0.000 A 
ATOM     18  C   UNL     1       2.161   7.391  19.475  0.00  0.00    +0.000 A 
ATOM     19 CL   UNL     1       1.561   6.813  20.989  0.00  0.00    +0.000 Cl
ENDBRANCH  12  13
BRANCH   1  20
ATOM     20  S   UNL     1       6.644   5.344  19.495  0.00  0.00    +0.000 S 
ATOM     21  H   UNL     1       6.105   4.939  20.652  0.00  0.00    +0.000 HD
ENDBRANCH   1  20
TORSDOF 2
ENDMDL
MODEL 5
REMARK VINA RESULT:      -6.5      7.648      9.708
REMARK  Name = 
REMARK  2 active torsions:
REMARK  status: ('A' for Active; 'I' for Inactive)
REMARK    1  A    between atoms: S_1  and  C_2
REMARK    2  A    between atoms: C_13  and  C_14
REMARK                            x       y       z     vdW  Elec       q    Type
REMARK                         _______ _______ _______ _____ _____    ______ ____
ROOT
ATOM      1  C   UNL     1      -2.233  11.948  19.029  0.00  0.00    +0.000 C 
ATOM      2  N   UNL     1      -3.089  12.418  19.852  0.00  0.00    +0.000 NA
ATOM      3  C   UNL     1      -2.803  13.013  21.149  0.00  0.00    +0.000 C 
ATOM      4  C   UNL     1      -1.629  12.526  22.001  0.00  0.00    +0.000 C 
ATOM      5  C   UNL     1      -0.889  11.255  21.688  0.00  0.00    +0.000 A 
ATOM      6  C   UNL     1      -0.542  10.409  22.763  0.00  0.00    +0.000 A 
ATOM      7  C   UNL     1       0.189   9.239  22.563  0.00  0.00    +0.000 A 
ATOM      8  C   UNL     1       0.571   8.887  21.278  0.00  0.00    +0.000 A 
ATOM      9 CL   UNL     1       1.463   7.441  21.011  0.00  0.00    +0.000 Cl
ATOM     10  C   UNL     1       0.245   9.710  20.204  0.00  0.00    +0.000 A 
ATOM     11  C   UNL     1      -0.443  10.929  20.395  0.00  0.00    +0.000 A 
ATOM     12  C   UNL     1      -0.722  11.807  19.180  0.00  0.00    +0.000 C 
ENDROOT
BRANCH  12  13
ATOM     13  C   UNL     1       0.090  13.110  19.060  0.00  0.00    +0.000 A 
ATOM     14  C   UNL     1      -0.511  14.372  19.262  0.00  0.00    +0.000 A 
ATOM     15  C   UNL     1       0.199  15.567  19.101  0.00  0.00    +0.000 A 
ATOM     16  C   UNL     1       1.530  15.544  18.714  0.00  0.00    +0.000 A 
ATOM     17  C   UNL     1       2.147  14.321  18.477  0.00  0.00    +0.000 A 
ATOM     18  C   UNL     1       1.439  13.120  18.637  0.00  0.00    +0.000 A 
ATOM     19 CL   UNL     1       2.308  11.692  18.198  0.00  0.00    +0.000 Cl
ENDBRANCH  12  13
BRANCH   1  20
ATOM     20  S   UNL     1      -2.910  11.370  17.509  0.00  0.00    +0.000 S 
ATOM     21  H   UNL     1      -4.175  11.652  17.846  0.00  0.00    +0.000 HD
ENDBRANCH   1  20
TORSDOF 2
ENDMDL
MODEL 6
REMARK VINA RESULT:      -6.5      7.551      9.425
REMARK  Name = 
REMARK  2 active torsions:
REMARK  status: ('A' for Active; 'I' for Inactive)
REMARK    1  A    between atoms: S_1  and  C_2
REMARK    2  A    between atoms: C_13  and  C_14
REMARK                            x       y       z     vdW  Elec       q    Type
REMARK                         _______ _______ _______ _____ _____    ______ ____
ROOT
ATOM      1  C   UNL     1      -0.286  11.063  20.832  0.00  0.00    +0.000 C 
ATOM      2  N   UNL     1       0.371   9.979  20.674  0.00  0.00    +0.000 NA
ATOM      3  C   UNL     1       0.952   9.495  19.431  0.00  0.00    +0.000 C 
ATOM      4  C   UNL     1       0.287   9.778  18.083  0.00  0.00    +0.000 C 
ATOM      5  C   UNL     1      -1.114  10.318  17.982  0.00  0.00    +0.000 A 
ATOM      6  C   UNL     1      -1.966   9.768  17.001  0.00  0.00    +0.000 A 
ATOM      7  C   UNL     1      -3.261  10.248  16.809  0.00  0.00    +0.000 A 
ATOM      8  C   UNL     1      -3.730  11.277  17.610  0.00  0.00    +0.000 A 
ATOM      9 CL   UNL     1      -5.328  11.874  17.394  0.00  0.00    +0.000 Cl
ATOM     10  C   UNL     1      -2.904  11.838  18.578  0.00  0.00    +0.000 A 
ATOM     11  C   UNL     1      -1.570  11.406  18.747  0.00  0.00    +0.000 A 
ATOM     12  C   UNL     1      -0.704  12.100  19.794  0.00  0.00    +0.000 C 
ENDROOT
BRANCH  12  13
ATOM     13  C   UNL     1       0.414  13.020  19.273  0.00  0.00    +0.000 A 
ATOM     14  C   UNL     1       1.664  12.501  18.869  0.00  0.00    +0.000 A 
ATOM     15  C   UNL     1       2.711  13.330  18.447  0.00  0.00    +0.000 A 
ATOM     16  C   UNL     1       2.552  14.707  18.433  0.00  0.00    +0.000 A 
ATOM     17  C   UNL     1       1.345  15.255  18.852  0.00  0.00    +0.000 A 
ATOM     18  C   UNL     1       0.293  14.428  19.276  0.00  0.00    +0.000 A 
ATOM     19 CL   UNL     1      -1.099  15.261  19.872  0.00  0.00    +0.000 Cl
ENDBRANCH  12  13
BRANCH   1  20
ATOM     20  S   UNL     1      -0.786  11.391  22.488  0.00  0.00    +0.000 S 
ATOM     21  H   UNL     1      -1.848  12.124  22.131  0.00  0.00    +0.000 HD
ENDBRANCH   1  20
TORSDOF 2
ENDMDL
MODEL 7
REMARK VINA RESULT:      -6.5      1.534      1.908
REMARK  Name = 
REMARK  2 active torsions:
REMARK  status: ('A' for Active; 'I' for Inactive)
REMARK    1  A    between atoms: S_1  and  C_2
REMARK    2  A    between atoms: C_13  and  C_14
REMARK                            x       y       z     vdW  Elec       q    Type
REMARK                         _______ _______ _______ _____ _____    ______ ____
ROOT
ATOM      1  C   UNL     1       3.581   3.432  18.524  0.00  0.00    +0.000 C 
ATOM      2  N   UNL     1       4.370   3.224  19.507  0.00  0.00    +0.000 NA
ATOM      3  C   UNL     1       5.476   4.074  19.921  0.00  0.00    +0.000 C 
ATOM      4  C   UNL     1       6.286   4.872  18.898  0.00  0.00    +0.000 C 
ATOM      5  C   UNL     1       6.174   4.621  17.419  0.00  0.00    +0.000 A 
ATOM      6  C   UNL     1       7.362   4.611  16.657  0.00  0.00    +0.000 A 
ATOM      7  C   UNL     1       7.339   4.436  15.274  0.00  0.00    +0.000 A 
ATOM      8  C   UNL     1       6.125   4.250  14.632  0.00  0.00    +0.000 A 
ATOM      9 CL   UNL     1       6.078   4.022  12.928  0.00  0.00    +0.000 Cl
ATOM     10  C   UNL     1       4.941   4.263  15.363  0.00  0.00    +0.000 A 
ATOM     11  C   UNL     1       4.940   4.498  16.756  0.00  0.00    +0.000 A 
ATOM     12  C   UNL     1       3.602   4.550  17.487  0.00  0.00    +0.000 C 
ENDROOT
BRANCH  12  13
ATOM     13  C   UNL     1       3.128   5.931  17.975  0.00  0.00    +0.000 A 
ATOM     14  C   UNL     1       2.233   6.059  19.060  0.00  0.00    +0.000 A 
ATOM     15  C   UNL     1       1.747   7.303  19.480  0.00  0.00    +0.000 A 
ATOM     16  C   UNL     1       2.126   8.461  18.818  0.00  0.00    +0.000 A 
ATOM     17  C   UNL     1       2.982   8.371  17.727  0.00  0.00    +0.000 A 
ATOM     18  C   UNL     1       3.471   7.126  17.302  0.00  0.00    +0.000 A 
ATOM     19 CL   UNL     1       4.433   7.166  15.867  0.00  0.00    +0.000 Cl
ENDBRANCH  12  13
BRANCH   1  20
ATOM     20  S   UNL     1       2.295   2.243  18.345  0.00  0.00    +0.000 S 
ATOM     21  H   UNL     1       2.946   1.528  17.418  0.00  0.00    +0.000 HD
ENDBRANCH   1  20
TORSDOF 2
ENDMDL
MODEL 8
REMARK VINA RESULT:      -6.5      9.039     11.442
REMARK  Name = 
REMARK  2 active torsions:
REMARK  status: ('A' for Active; 'I' for Inactive)
REMARK    1  A    between atoms: S_1  and  C_2
REMARK    2  A    between atoms: C_13  and  C_14
REMARK                            x       y       z     vdW  Elec       q    Type
REMARK                         _______ _______ _______ _____ _____    ______ ____
ROOT
ATOM      1  C   UNL     1      -0.473  13.341  19.857  0.00  0.00    +0.000 C 
ATOM      2  N   UNL     1       0.515  12.740  20.399  0.00  0.00    +0.000 NA
ATOM      3  C   UNL     1       0.479  11.449  21.071  0.00  0.00    +0.000 C 
ATOM      4  C   UNL     1      -0.760  10.997  21.846  0.00  0.00    +0.000 C 
ATOM      5  C   UNL     1      -1.879  11.943  22.187  0.00  0.00    +0.000 A 
ATOM      6  C   UNL     1      -2.442  11.864  23.479  0.00  0.00    +0.000 A 
ATOM      7  C   UNL     1      -3.515  12.670  23.856  0.00  0.00    +0.000 A 
ATOM      8  C   UNL     1      -4.032  13.583  22.950  0.00  0.00    +0.000 A 
ATOM      9 CL   UNL     1      -5.349  14.593  23.401  0.00  0.00    +0.000 Cl
ATOM     10  C   UNL     1      -3.496  13.672  21.669  0.00  0.00    +0.000 A 
ATOM     11  C   UNL     1      -2.449  12.822  21.249  0.00  0.00    +0.000 A 
ATOM     12  C   UNL     1      -1.944  12.939  19.815  0.00  0.00    +0.000 C 
ENDROOT
BRANCH  12  13
ATOM     13  C   UNL     1      -2.300  11.789  18.855  0.00  0.00    +0.000 A 
ATOM     14  C   UNL     1      -1.296  11.023  18.222  0.00  0.00    +0.000 A 
ATOM     15  C   UNL     1      -1.602  10.012  17.303  0.00  0.00    +0.000 A 
ATOM     16  C   UNL     1      -2.921   9.745  16.970  0.00  0.00    +0.000 A 
ATOM     17  C   UNL     1      -3.934  10.499  17.551  0.00  0.00    +0.000 A 
ATOM     18  C   UNL     1      -3.632  11.514  18.472  0.00  0.00    +0.000 A 
ATOM     19 CL   UNL     1      -4.988  12.435  19.019  0.00  0.00    +0.000 Cl
ENDBRANCH  12  13
BRANCH   1  20
ATOM     20  S   UNL     1      -0.068  14.857  19.058  0.00  0.00    +0.000 S 
ATOM     21  H   UNL     1      -0.478  15.622  20.078  0.00  0.00    +0.000 HD
ENDBRANCH   1  20
TORSDOF 2
ENDMDL
MODEL 9
REMARK VINA RESULT:      -6.4      7.254      9.160
REMARK  Name = 
REMARK  2 active torsions:
REMARK  status: ('A' for Active; 'I' for Inactive)
REMARK    1  A    between atoms: S_1  and  C_2
REMARK    2  A    between atoms: C_13  and  C_14
REMARK                            x       y       z     vdW  Elec       q    Type
REMARK                         _______ _______ _______ _____ _____    ______ ____
ROOT
ATOM      1  C   UNL     1      -0.914  10.410  18.206  0.00  0.00    +0.000 C 
ATOM      2  N   UNL     1       0.052   9.809  17.626  0.00  0.00    +0.000 NA
ATOM      3  C   UNL     1       1.453   9.845  18.021  0.00  0.00    +0.000 C 
ATOM      4  C   UNL     1       2.062  11.094  18.661  0.00  0.00    +0.000 C 
ATOM      5  C   UNL     1       1.348  12.418  18.667  0.00  0.00    +0.000 A 
ATOM      6  C   UNL     1       2.102  13.578  18.393  0.00  0.00    +0.000 A 
ATOM      7  C   UNL     1       1.526  14.847  18.429  0.00  0.00    +0.000 A 
ATOM      8  C   UNL     1       0.178  14.974  18.724  0.00  0.00    +0.000 A 
ATOM      9 CL   UNL     1      -0.552  16.531  18.763  0.00  0.00    +0.000 Cl
ATOM     10  C   UNL     1      -0.583  13.843  19.004  0.00  0.00    +0.000 A 
ATOM     11  C   UNL     1      -0.004  12.555  19.030  0.00  0.00    +0.000 A 
ATOM     12  C   UNL     1      -0.885  11.365  19.395  0.00  0.00    +0.000 C 
ENDROOT
BRANCH  12  13
ATOM     13  C   UNL     1      -0.649  10.719  20.772  0.00  0.00    +0.000 A 
ATOM     14  C   UNL     1      -0.087   9.428  20.891  0.00  0.00    +0.000 A 
ATOM     15  C   UNL     1       0.081   8.803  22.132  0.00  0.00    +0.000 A 
ATOM     16  C   UNL     1      -0.323   9.438  23.296  0.00  0.00    +0.000 A 
ATOM     17  C   UNL     1      -0.907  10.697  23.215  0.00  0.00    +0.000 A 
ATOM     18  C   UNL     1      -1.079  11.327  21.973  0.00  0.00    +0.000 A 
ATOM     19 CL   UNL     1      -1.920  12.836  22.026  0.00  0.00    +0.000 Cl
ENDBRANCH  12  13
BRANCH   1  20
ATOM     20  S   UNL     1      -2.503  10.092  17.516  0.00  0.00    +0.000 S 
ATOM     21  H   UNL     1      -2.816   9.148  18.413  0.00  0.00    +0.000 HD
ENDBRANCH   1  20
TORSDOF 2
ENDMDL
