MODEL 1
REMARK VINA RESULT:      -6.2      0.000      0.000
REMARK  Name = 
REMARK  13 active torsions:
REMARK  status: ('A' for Active; 'I' for Inactive)
REMARK    1  A    between atoms: C_1  and  N_2
REMARK    2  A    between atoms: C_3  and  O_5
REMARK    3  A    between atoms: O_5  and  C_6
REMARK    4  A    between atoms: C_10  and  C_11
REMARK    5  A    between atoms: C_11  and  O_13
REMARK    6  A    between atoms: O_13  and  C_14
REMARK    7  A    between atoms: C_14  and  C_15
REMARK    8  A    between atoms: C_14  and  C_16
REMARK    9  A    between atoms: C_14  and  C_17
REMARK   10  A    between atoms: C_18  and  C_19
REMARK   11  A    between atoms: C_19  and  O_20
REMARK   12  A    between atoms: O_20  and  C_21
REMARK   13  A    between atoms: C_21  and  C_22
REMARK                            x       y       z     vdW  Elec       q    Type
REMARK                         _______ _______ _______ _____ _____    ______ ____
ROOT
ATOM      1  C   UNL     1       1.834   5.008  18.880  0.00  0.00    +0.000 C 
ATOM      2  C   UNL     1       2.593   6.186  18.209  0.00  0.00    +0.000 C 
ATOM      3  O   UNL     1       2.319   7.332  17.942  0.00  0.00    +0.000 OA
ATOM      4  N   UNL     1       3.591   5.339  17.843  0.00  0.00    +0.000 N 
ATOM      5  C   UNL     1       4.684   5.333  17.015  0.00  0.00    +0.000 C 
ATOM      6  C   UNL     1       5.263   4.156  16.643  0.00  0.00    +0.000 C 
ATOM      7  C   UNL     1       4.733   2.784  17.036  0.00  0.00    +0.000 C 
ATOM      8  S   UNL     1       3.060   2.826  17.621  0.00  0.00    +0.000 S 
ATOM      9  O   UNL     1       2.195   3.092  16.484  0.00  0.00    +0.000 OA
ATOM     10  O   UNL     1       2.851   1.633  18.420  0.00  0.00    +0.000 OA
ATOM     11  C   UNL     1       3.151   4.229  18.683  0.00  0.00    +0.000 C 
ENDROOT
BRANCH   5  12
ATOM     12  C   UNL     1       5.232   6.658  16.509  0.00  0.00    +0.000 C 
ATOM     13  O   UNL     1       5.177   7.027  15.347  0.00  0.00    +0.000 OA
BRANCH  12  14
ATOM     14  O   UNL     1       5.896   7.285  17.504  0.00  0.00    +0.000 OA
BRANCH  14  15
ATOM     15  C   UNL     1       7.341   7.319  17.553  0.00  0.00    +0.000 C 
ATOM     16  C   UNL     1       7.945   8.698  17.830  0.00  0.00    +0.000 C 
ATOM     17  C   UNL     1       7.738   6.372  18.696  0.00  0.00    +0.000 C 
ATOM     18  C   UNL     1       7.845   6.738  16.229  0.00  0.00    +0.000 C 
ENDBRANCH  14  15
ENDBRANCH  12  14
ENDBRANCH   5  12
BRANCH   1  19
ATOM     19  O   UNL     1       1.246   5.207  20.187  0.00  0.00    +0.000 OA
BRANCH  19  22
ATOM     20  C   UNL     1       1.442   2.107  21.912  0.00  0.00    +0.000 C 
ATOM     21  N   UNL     1       1.003   3.257  21.171  0.00  0.00    +0.000 N 
ATOM     22  C   UNL     1       1.671   4.441  21.213  0.00  0.00    +0.000 C 
ATOM     23  O   UNL     1       2.565   4.736  21.988  0.00  0.00    +0.000 OA
ATOM     24  H   UNL     1       0.371   3.136  20.390  0.00  0.00    +0.000 HD
ENDBRANCH  19  22
ENDBRANCH   1  19
BRANCH   6  25
ATOM     25  C   UNL     1       6.483   4.039  15.732  0.00  0.00    +0.000 C 
BRANCH  25  26
ATOM     26  O   UNL     1       6.139   3.445  14.459  0.00  0.00    +0.000 OA
BRANCH  26  27
ATOM     27  C   UNL     1       6.591   4.099  13.358  0.00  0.00    +0.000 C 
ATOM     28  C   UNL     1       6.173   3.396  12.100  0.00  0.00    +0.000 C 
ATOM     29  O   UNL     1       7.279   5.111  13.376  0.00  0.00    +0.000 OA
ENDBRANCH  26  27
ENDBRANCH  25  26
ENDBRANCH   6  25
TORSDOF 8
ENDMDL
MODEL 2
REMARK VINA RESULT:      -6.2      2.070      2.451
REMARK  Name = 
REMARK  13 active torsions:
REMARK  status: ('A' for Active; 'I' for Inactive)
REMARK    1  A    between atoms: C_1  and  N_2
REMARK    2  A    between atoms: C_3  and  O_5
REMARK    3  A    between atoms: O_5  and  C_6
REMARK    4  A    between atoms: C_10  and  C_11
REMARK    5  A    between atoms: C_11  and  O_13
REMARK    6  A    between atoms: O_13  and  C_14
REMARK    7  A    between atoms: C_14  and  C_15
REMARK    8  A    between atoms: C_14  and  C_16
REMARK    9  A    between atoms: C_14  and  C_17
REMARK   10  A    between atoms: C_18  and  C_19
REMARK   11  A    between atoms: C_19  and  O_20
REMARK   12  A    between atoms: O_20  and  C_21
REMARK   13  A    between atoms: C_21  and  C_22
REMARK                            x       y       z     vdW  Elec       q    Type
REMARK                         _______ _______ _______ _____ _____    ______ ____
ROOT
ATOM      1  C   UNL     1       1.828   6.642  19.500  0.00  0.00    +0.000 C 
ATOM      2  C   UNL     1       2.786   7.419  18.557  0.00  0.00    +0.000 C 
ATOM      3  O   UNL     1       2.826   8.548  18.126  0.00  0.00    +0.000 OA
ATOM      4  N   UNL     1       3.417   6.259  18.235  0.00  0.00    +0.000 N 
ATOM      5  C   UNL     1       4.315   5.799  17.306  0.00  0.00    +0.000 C 
ATOM      6  C   UNL     1       4.453   4.460  17.082  0.00  0.00    +0.000 C 
ATOM      7  C   UNL     1       3.609   3.391  17.763  0.00  0.00    +0.000 C 
ATOM      8  S   UNL     1       2.137   4.038  18.511  0.00  0.00    +0.000 S 
ATOM      9  O   UNL     1       1.222   4.414  17.447  0.00  0.00    +0.000 OA
ATOM     10  O   UNL     1       1.713   3.088  19.523  0.00  0.00    +0.000 OA
ATOM     11  C   UNL     1       2.807   5.466  19.298  0.00  0.00    +0.000 C 
ENDROOT
BRANCH   5  12
ATOM     12  C   UNL     1       5.143   6.803  16.521  0.00  0.00    +0.000 C 
ATOM     13  O   UNL     1       5.169   6.872  15.303  0.00  0.00    +0.000 OA
BRANCH  12  14
ATOM     14  O   UNL     1       5.933   7.500  17.366  0.00  0.00    +0.000 OA
BRANCH  14  15
ATOM     15  C   UNL     1       7.331   7.176  17.547  0.00  0.00    +0.000 C 
ATOM     16  C   UNL     1       8.234   8.369  17.871  0.00  0.00    +0.000 C 
ATOM     17  C   UNL     1       7.378   6.191  18.725  0.00  0.00    +0.000 C 
ATOM     18  C   UNL     1       7.787   6.452  16.277  0.00  0.00    +0.000 C 
ENDBRANCH  14  15
ENDBRANCH  12  14
ENDBRANCH   5  12
BRANCH   1  19
ATOM     19  O   UNL     1       1.540   7.186  20.810  0.00  0.00    +0.000 OA
BRANCH  19  22
ATOM     20  C   UNL     1      -0.035   9.765  22.680  0.00  0.00    +0.000 C 
ATOM     21  N   UNL     1       0.462   8.505  22.199  0.00  0.00    +0.000 N 
ATOM     22  C   UNL     1       0.807   8.315  20.897  0.00  0.00    +0.000 C 
ATOM     23  O   UNL     1       0.574   9.076  19.972  0.00  0.00    +0.000 OA
ATOM     24  H   UNL     1       0.836   7.832  22.855  0.00  0.00    +0.000 HD
ENDBRANCH  19  22
ENDBRANCH   1  19
BRANCH   6  25
ATOM     25  C   UNL     1       5.422   3.845  16.077  0.00  0.00    +0.000 C 
BRANCH  25  26
ATOM     26  O   UNL     1       4.893   3.890  14.733  0.00  0.00    +0.000 OA
BRANCH  26  27
ATOM     27  C   UNL     1       5.812   3.940  13.734  0.00  0.00    +0.000 C 
ATOM     28  C   UNL     1       5.253   3.391  12.454  0.00  0.00    +0.000 C 
ATOM     29  O   UNL     1       6.959   4.347  13.856  0.00  0.00    +0.000 OA
ENDBRANCH  26  27
ENDBRANCH  25  26
ENDBRANCH   6  25
TORSDOF 8
ENDMDL
MODEL 3
REMARK VINA RESULT:      -6.2      6.857     10.342
REMARK  Name = 
REMARK  13 active torsions:
REMARK  status: ('A' for Active; 'I' for Inactive)
REMARK    1  A    between atoms: C_1  and  N_2
REMARK    2  A    between atoms: C_3  and  O_5
REMARK    3  A    between atoms: O_5  and  C_6
REMARK    4  A    between atoms: C_10  and  C_11
REMARK    5  A    between atoms: C_11  and  O_13
REMARK    6  A    between atoms: O_13  and  C_14
REMARK    7  A    between atoms: C_14  and  C_15
REMARK    8  A    between atoms: C_14  and  C_16
REMARK    9  A    between atoms: C_14  and  C_17
REMARK   10  A    between atoms: C_18  and  C_19
REMARK   11  A    between atoms: C_19  and  O_20
REMARK   12  A    between atoms: O_20  and  C_21
REMARK   13  A    between atoms: C_21  and  C_22
REMARK                            x       y       z     vdW  Elec       q    Type
REMARK                         _______ _______ _______ _____ _____    ______ ____
ROOT
ATOM      1  C   UNL     1       1.131   8.931  19.993  0.00  0.00    +0.000 C 
ATOM      2  C   UNL     1       0.489   9.736  18.829  0.00  0.00    +0.000 C 
ATOM      3  O   UNL     1       0.753   9.902  17.662  0.00  0.00    +0.000 OA
ATOM      4  N   UNL     1      -0.342  10.353  19.710  0.00  0.00    +0.000 N 
ATOM      5  C   UNL     1      -1.204  11.420  19.739  0.00  0.00    +0.000 C 
ATOM      6  C   UNL     1      -1.609  11.949  20.929  0.00  0.00    +0.000 C 
ATOM      7  C   UNL     1      -1.112  11.473  22.286  0.00  0.00    +0.000 C 
ATOM      8  S   UNL     1       0.368  10.502  22.184  0.00  0.00    +0.000 S 
ATOM      9  O   UNL     1       1.463  11.390  21.834  0.00  0.00    +0.000 OA
ATOM     10  O   UNL     1       0.446   9.705  23.394  0.00  0.00    +0.000 OA
ATOM     11  C   UNL     1      -0.054   9.459  20.828  0.00  0.00    +0.000 C 
ENDROOT
BRANCH   5  12
ATOM     12  C   UNL     1      -1.688  12.011  18.425  0.00  0.00    +0.000 C 
ATOM     13  O   UNL     1      -1.029  12.758  17.721  0.00  0.00    +0.000 OA
BRANCH  12  14
ATOM     14  O   UNL     1      -2.987  11.692  18.234  0.00  0.00    +0.000 OA
BRANCH  14  15
ATOM     15  C   UNL     1      -3.403  10.777  17.195  0.00  0.00    +0.000 C 
ATOM     16  C   UNL     1      -2.391  10.581  16.064  0.00  0.00    +0.000 C 
ATOM     17  C   UNL     1      -3.622   9.427  17.896  0.00  0.00    +0.000 C 
ATOM     18  C   UNL     1      -4.748  11.285  16.667  0.00  0.00    +0.000 C 
ENDBRANCH  14  15
ENDBRANCH  12  14
ENDBRANCH   5  12
BRANCH   1  19
ATOM     19  O   UNL     1       1.376   7.517  19.814  0.00  0.00    +0.000 OA
BRANCH  19  22
ATOM     20  C   UNL     1       4.116   5.269  19.543  0.00  0.00    +0.000 C 
ATOM     21  N   UNL     1       3.061   6.120  20.021  0.00  0.00    +0.000 N 
ATOM     22  C   UNL     1       2.544   7.124  19.263  0.00  0.00    +0.000 C 
ATOM     23  O   UNL     1       3.004   7.546  18.215  0.00  0.00    +0.000 OA
ATOM     24  H   UNL     1       2.489   5.818  20.799  0.00  0.00    +0.000 HD
ENDBRANCH  19  22
ENDBRANCH   1  19
BRANCH   6  25
ATOM     25  C   UNL     1      -2.566  13.130  21.071  0.00  0.00    +0.000 C 
BRANCH  25  26
ATOM     26  O   UNL     1      -3.936  12.689  21.213  0.00  0.00    +0.000 OA
BRANCH  26  27
ATOM     27  C   UNL     1      -4.523  12.953  22.409  0.00  0.00    +0.000 C 
ATOM     28  C   UNL     1      -3.801  14.047  23.139  0.00  0.00    +0.000 C 
ATOM     29  O   UNL     1      -5.495  12.360  22.859  0.00  0.00    +0.000 OA
ENDBRANCH  26  27
ENDBRANCH  25  26
ENDBRANCH   6  25
TORSDOF 8
ENDMDL
MODEL 4
REMARK VINA RESULT:      -6.0      0.556      1.068
REMARK  Name = 
REMARK  13 active torsions:
REMARK  status: ('A' for Active; 'I' for Inactive)
REMARK    1  A    between atoms: C_1  and  N_2
REMARK    2  A    between atoms: C_3  and  O_5
REMARK    3  A    between atoms: O_5  and  C_6
REMARK    4  A    between atoms: C_10  and  C_11
REMARK    5  A    between atoms: C_11  and  O_13
REMARK    6  A    between atoms: O_13  and  C_14
REMARK    7  A    between atoms: C_14  and  C_15
REMARK    8  A    between atoms: C_14  and  C_16
REMARK    9  A    between atoms: C_14  and  C_17
REMARK   10  A    between atoms: C_18  and  C_19
REMARK   11  A    between atoms: C_19  and  O_20
REMARK   12  A    between atoms: O_20  and  C_21
REMARK   13  A    between atoms: C_21  and  C_22
REMARK                            x       y       z     vdW  Elec       q    Type
REMARK                         _______ _______ _______ _____ _____    ______ ____
ROOT
ATOM      1  C   UNL     1       1.992   5.180  18.979  0.00  0.00    +0.000 C 
ATOM      2  C   UNL     1       2.738   6.329  18.246  0.00  0.00    +0.000 C 
ATOM      3  O   UNL     1       2.488   7.487  18.003  0.00  0.00    +0.000 OA
ATOM      4  N   UNL     1       3.665   5.444  17.795  0.00  0.00    +0.000 N 
ATOM      5  C   UNL     1       4.682   5.398  16.877  0.00  0.00    +0.000 C 
ATOM      6  C   UNL     1       5.180   4.200  16.456  0.00  0.00    +0.000 C 
ATOM      7  C   UNL     1       4.631   2.849  16.893  0.00  0.00    +0.000 C 
ATOM      8  S   UNL     1       3.017   2.955  17.619  0.00  0.00    +0.000 S 
ATOM      9  O   UNL     1       2.069   3.260  16.561  0.00  0.00    +0.000 OA
ATOM     10  O   UNL     1       2.830   1.769  18.434  0.00  0.00    +0.000 OA
ATOM     11  C   UNL     1       3.255   4.350  18.670  0.00  0.00    +0.000 C 
ENDROOT
BRANCH   5  12
ATOM     12  C   UNL     1       5.238   6.702  16.325  0.00  0.00    +0.000 C 
ATOM     13  O   UNL     1       5.214   7.017  15.147  0.00  0.00    +0.000 OA
BRANCH  12  14
ATOM     14  O   UNL     1       5.869   7.379  17.309  0.00  0.00    +0.000 OA
BRANCH  14  15
ATOM     15  C   UNL     1       7.286   7.222  17.555  0.00  0.00    +0.000 C 
ATOM     16  C   UNL     1       7.640   6.255  18.687  0.00  0.00    +0.000 C 
ATOM     17  C   UNL     1       7.875   6.679  16.244  0.00  0.00    +0.000 C 
ATOM     18  C   UNL     1       7.851   8.622  17.810  0.00  0.00    +0.000 C 
ENDBRANCH  14  15
ENDBRANCH  12  14
ENDBRANCH   5  12
BRANCH   1  19
ATOM     19  O   UNL     1       1.527   5.398  20.332  0.00  0.00    +0.000 OA
BRANCH  19  22
ATOM     20  C   UNL     1       1.272   2.122  21.685  0.00  0.00    +0.000 C 
ATOM     21  N   UNL     1       1.008   3.395  21.072  0.00  0.00    +0.000 N 
ATOM     22  C   UNL     1       1.811   4.474  21.273  0.00  0.00    +0.000 C 
ATOM     23  O   UNL     1       2.700   4.565  22.103  0.00  0.00    +0.000 OA
ATOM     24  H   UNL     1       0.401   3.443  20.264  0.00  0.00    +0.000 HD
ENDBRANCH  19  22
ENDBRANCH   1  19
BRANCH   6  25
ATOM     25  C   UNL     1       6.311   4.038  15.444  0.00  0.00    +0.000 C 
BRANCH  25  26
ATOM     26  O   UNL     1       5.881   3.292  14.283  0.00  0.00    +0.000 OA
BRANCH  26  27
ATOM     27  C   UNL     1       6.305   3.765  13.082  0.00  0.00    +0.000 C 
ATOM     28  C   UNL     1       7.315   4.860  13.257  0.00  0.00    +0.000 C 
ATOM     29  O   UNL     1       5.899   3.381  11.994  0.00  0.00    +0.000 OA
ENDBRANCH  26  27
ENDBRANCH  25  26
ENDBRANCH   6  25
TORSDOF 8
ENDMDL
MODEL 5
REMARK VINA RESULT:      -6.0      7.172      9.344
REMARK  Name = 
REMARK  13 active torsions:
REMARK  status: ('A' for Active; 'I' for Inactive)
REMARK    1  A    between atoms: C_1  and  N_2
REMARK    2  A    between atoms: C_3  and  O_5
REMARK    3  A    between atoms: O_5  and  C_6
REMARK    4  A    between atoms: C_10  and  C_11
REMARK    5  A    between atoms: C_11  and  O_13
REMARK    6  A    between atoms: O_13  and  C_14
REMARK    7  A    between atoms: C_14  and  C_15
REMARK    8  A    between atoms: C_14  and  C_16
REMARK    9  A    between atoms: C_14  and  C_17
REMARK   10  A    between atoms: C_18  and  C_19
REMARK   11  A    between atoms: C_19  and  O_20
REMARK   12  A    between atoms: O_20  and  C_21
REMARK   13  A    between atoms: C_21  and  C_22
REMARK                            x       y       z     vdW  Elec       q    Type
REMARK                         _______ _______ _______ _____ _____    ______ ____
ROOT
ATOM      1  C   UNL     1      -1.904  11.740  22.747  0.00  0.00    +0.000 C 
ATOM      2  C   UNL     1      -2.163  11.966  21.232  0.00  0.00    +0.000 C 
ATOM      3  O   UNL     1      -3.100  12.360  20.578  0.00  0.00    +0.000 OA
ATOM      4  N   UNL     1      -1.002  11.325  20.935  0.00  0.00    +0.000 N 
ATOM      5  C   UNL     1      -0.368  10.799  19.838  0.00  0.00    +0.000 C 
ATOM      6  C   UNL     1       0.654   9.910  19.991  0.00  0.00    +0.000 C 
ATOM      7  C   UNL     1       1.128   9.380  21.337  0.00  0.00    +0.000 C 
ATOM      8  S   UNL     1      -0.042   9.650  22.642  0.00  0.00    +0.000 S 
ATOM      9  O   UNL     1      -1.167   8.758  22.426  0.00  0.00    +0.000 OA
ATOM     10  O   UNL     1       0.689   9.596  23.895  0.00  0.00    +0.000 OA
ATOM     11  C   UNL     1      -0.488  11.320  22.301  0.00  0.00    +0.000 C 
ENDROOT
BRANCH   5  12
ATOM     12  C   UNL     1      -0.832  11.212  18.450  0.00  0.00    +0.000 C 
ATOM     13  O   UNL     1      -0.761  12.348  18.010  0.00  0.00    +0.000 OA
BRANCH  12  14
ATOM     14  O   UNL     1      -1.448  10.172  17.847  0.00  0.00    +0.000 OA
BRANCH  14  15
ATOM     15  C   UNL     1      -2.795  10.276  17.334  0.00  0.00    +0.000 C 
ATOM     16  C   UNL     1      -3.409  11.676  17.414  0.00  0.00    +0.000 C 
ATOM     17  C   UNL     1      -2.708   9.863  15.857  0.00  0.00    +0.000 C 
ATOM     18  C   UNL     1      -3.640   9.246  18.088  0.00  0.00    +0.000 C 
ENDBRANCH  14  15
ENDBRANCH  12  14
ENDBRANCH   5  12
BRANCH   1  19
ATOM     19  O   UNL     1      -2.127  12.836  23.666  0.00  0.00    +0.000 OA
BRANCH  19  22
ATOM     20  C   UNL     1      -5.166  14.596  23.121  0.00  0.00    +0.000 C 
ATOM     21  N   UNL     1      -3.785  14.216  23.247  0.00  0.00    +0.000 N 
ATOM     22  C   UNL     1      -3.395  13.154  24.001  0.00  0.00    +0.000 C 
ATOM     23  O   UNL     1      -4.092  12.533  24.786  0.00  0.00    +0.000 OA
ATOM     24  H   UNL     1      -3.114  14.539  22.562  0.00  0.00    +0.000 HD
ENDBRANCH  19  22
ENDBRANCH   1  19
BRANCH   6  25
ATOM     25  C   UNL     1       1.426   9.270  18.840  0.00  0.00    +0.000 C 
BRANCH  25  26
ATOM     26  O   UNL     1       2.071   8.042  19.251  0.00  0.00    +0.000 OA
BRANCH  26  27
ATOM     27  C   UNL     1       2.693   7.341  18.269  0.00  0.00    +0.000 C 
ATOM     28  C   UNL     1       2.289   5.896  18.294  0.00  0.00    +0.000 C 
ATOM     29  O   UNL     1       3.505   7.807  17.480  0.00  0.00    +0.000 OA
ENDBRANCH  26  27
ENDBRANCH  25  26
ENDBRANCH   6  25
TORSDOF 8
ENDMDL
MODEL 6
REMARK VINA RESULT:      -6.0      1.985      2.468
REMARK  Name = 
REMARK  13 active torsions:
REMARK  status: ('A' for Active; 'I' for Inactive)
REMARK    1  A    between atoms: C_1  and  N_2
REMARK    2  A    between atoms: C_3  and  O_5
REMARK    3  A    between atoms: O_5  and  C_6
REMARK    4  A    between atoms: C_10  and  C_11
REMARK    5  A    between atoms: C_11  and  O_13
REMARK    6  A    between atoms: O_13  and  C_14
REMARK    7  A    between atoms: C_14  and  C_15
REMARK    8  A    between atoms: C_14  and  C_16
REMARK    9  A    between atoms: C_14  and  C_17
REMARK   10  A    between atoms: C_18  and  C_19
REMARK   11  A    between atoms: C_19  and  O_20
REMARK   12  A    between atoms: O_20  and  C_21
REMARK   13  A    between atoms: C_21  and  C_22
REMARK                            x       y       z     vdW  Elec       q    Type
REMARK                         _______ _______ _______ _____ _____    ______ ____
ROOT
ATOM      1  C   UNL     1       1.689   5.949  19.676  0.00  0.00    +0.000 C 
ATOM      2  C   UNL     1       2.747   6.779  18.897  0.00  0.00    +0.000 C 
ATOM      3  O   UNL     1       2.896   7.953  18.654  0.00  0.00    +0.000 OA
ATOM      4  N   UNL     1       3.294   5.633  18.413  0.00  0.00    +0.000 N 
ATOM      5  C   UNL     1       4.190   5.248  17.448  0.00  0.00    +0.000 C 
ATOM      6  C   UNL     1       4.228   3.955  17.017  0.00  0.00    +0.000 C 
ATOM      7  C   UNL     1       3.272   2.869  17.493  0.00  0.00    +0.000 C 
ATOM      8  S   UNL     1       1.828   3.516  18.292  0.00  0.00    +0.000 S 
ATOM      9  O   UNL     1       0.992   4.132  17.276  0.00  0.00    +0.000 OA
ATOM     10  O   UNL     1       1.286   2.460  19.127  0.00  0.00    +0.000 OA
ATOM     11  C   UNL     1       2.577   4.739  19.317  0.00  0.00    +0.000 C 
ENDROOT
BRANCH   5  12
ATOM     12  C   UNL     1       5.130   6.287  16.858  0.00  0.00    +0.000 C 
ATOM     13  O   UNL     1       4.765   7.315  16.311  0.00  0.00    +0.000 OA
BRANCH  12  14
ATOM     14  O   UNL     1       6.402   5.835  16.914  0.00  0.00    +0.000 OA
BRANCH  14  15
ATOM     15  C   UNL     1       7.146   5.802  18.154  0.00  0.00    +0.000 C 
ATOM     16  C   UNL     1       6.296   5.610  19.412  0.00  0.00    +0.000 C 
ATOM     17  C   UNL     1       8.109   4.612  18.027  0.00  0.00    +0.000 C 
ATOM     18  C   UNL     1       7.962   7.097  18.217  0.00  0.00    +0.000 C 
ENDBRANCH  14  15
ENDBRANCH  12  14
ENDBRANCH   5  12
BRANCH   1  19
ATOM     19  O   UNL     1       1.391   6.304  21.046  0.00  0.00    +0.000 OA
BRANCH  19  22
ATOM     20  C   UNL     1       1.213   9.824  21.496  0.00  0.00    +0.000 C 
ATOM     21  N   UNL     1       1.595   8.439  21.525  0.00  0.00    +0.000 N 
ATOM     22  C   UNL     1       0.704   7.439  21.288  0.00  0.00    +0.000 C 
ATOM     23  O   UNL     1      -0.508   7.557  21.217  0.00  0.00    +0.000 OA
ATOM     24  H   UNL     1       2.571   8.188  21.435  0.00  0.00    +0.000 HD
ENDBRANCH  19  22
ENDBRANCH   1  19
BRANCH   6  25
ATOM     25  C   UNL     1       5.187   3.423  15.955  0.00  0.00    +0.000 C 
BRANCH  25  26
ATOM     26  O   UNL     1       4.892   3.973  14.651  0.00  0.00    +0.000 OA
BRANCH  26  27
ATOM     27  C   UNL     1       5.948   4.090  13.804  0.00  0.00    +0.000 C 
ATOM     28  C   UNL     1       5.678   3.394  12.502  0.00  0.00    +0.000 C 
ATOM     29  O   UNL     1       7.000   4.656  14.067  0.00  0.00    +0.000 OA
ENDBRANCH  26  27
ENDBRANCH  25  26
ENDBRANCH   6  25
TORSDOF 8
ENDMDL
MODEL 7
REMARK VINA RESULT:      -5.9      9.249     11.757
REMARK  Name = 
REMARK  13 active torsions:
REMARK  status: ('A' for Active; 'I' for Inactive)
REMARK    1  A    between atoms: C_1  and  N_2
REMARK    2  A    between atoms: C_3  and  O_5
REMARK    3  A    between atoms: O_5  and  C_6
REMARK    4  A    between atoms: C_10  and  C_11
REMARK    5  A    between atoms: C_11  and  O_13
REMARK    6  A    between atoms: O_13  and  C_14
REMARK    7  A    between atoms: C_14  and  C_15
REMARK    8  A    between atoms: C_14  and  C_16
REMARK    9  A    between atoms: C_14  and  C_17
REMARK   10  A    between atoms: C_18  and  C_19
REMARK   11  A    between atoms: C_19  and  O_20
REMARK   12  A    between atoms: O_20  and  C_21
REMARK   13  A    between atoms: C_21  and  C_22
REMARK                            x       y       z     vdW  Elec       q    Type
REMARK                         _______ _______ _______ _____ _____    ______ ____
ROOT
ATOM      1  C   UNL     1      -2.824  12.668  23.829  0.00  0.00    +0.000 C 
ATOM      2  C   UNL     1      -1.775  11.806  23.075  0.00  0.00    +0.000 C 
ATOM      3  O   UNL     1      -1.335  10.688  23.212  0.00  0.00    +0.000 OA
ATOM      4  N   UNL     1      -1.394  12.893  22.354  0.00  0.00    +0.000 N 
ATOM      5  C   UNL     1      -0.374  13.267  21.516  0.00  0.00    +0.000 C 
ATOM      6  C   UNL     1      -0.145  14.584  21.251  0.00  0.00    +0.000 C 
ATOM      7  C   UNL     1      -0.922  15.729  21.887  0.00  0.00    +0.000 C 
ATOM      8  S   UNL     1      -1.824  15.239  23.333  0.00  0.00    +0.000 S 
ATOM      9  O   UNL     1      -0.866  14.990  24.396  0.00  0.00    +0.000 OA
ATOM     10  O   UNL     1      -2.883  16.210  23.532  0.00  0.00    +0.000 OA
ATOM     11  C   UNL     1      -2.523  13.730  22.750  0.00  0.00    +0.000 C 
ENDROOT
BRANCH   5  12
ATOM     12  C   UNL     1       0.505  12.190  20.899  0.00  0.00    +0.000 C 
ATOM     13  O   UNL     1       1.558  11.802  21.378  0.00  0.00    +0.000 OA
BRANCH  12  14
ATOM     14  O   UNL     1       0.012  11.837  19.692  0.00  0.00    +0.000 OA
BRANCH  14  15
ATOM     15  C   UNL     1      -0.083  10.454  19.281  0.00  0.00    +0.000 C 
ATOM     16  C   UNL     1      -0.243   9.451  20.426  0.00  0.00    +0.000 C 
ATOM     17  C   UNL     1      -1.328  10.374  18.383  0.00  0.00    +0.000 C 
ATOM     18  C   UNL     1       1.158  10.154  18.437  0.00  0.00    +0.000 C 
ENDBRANCH  14  15
ENDBRANCH  12  14
ENDBRANCH   5  12
BRANCH   1  19
ATOM     19  O   UNL     1      -4.153  12.135  24.033  0.00  0.00    +0.000 OA
BRANCH  19  22
ATOM     20  C   UNL     1      -6.507  14.779  23.723  0.00  0.00    +0.000 C 
ATOM     21  N   UNL     1      -5.635  13.748  24.215  0.00  0.00    +0.000 N 
ATOM     22  C   UNL     1      -5.195  12.736  23.420  0.00  0.00    +0.000 C 
ATOM     23  O   UNL     1      -5.606  12.465  22.304  0.00  0.00    +0.000 OA
ATOM     24  H   UNL     1      -5.105  13.905  25.062  0.00  0.00    +0.000 HD
ENDBRANCH  19  22
ENDBRANCH   1  19
BRANCH   6  25
ATOM     25  C   UNL     1       0.957  15.105  20.332  0.00  0.00    +0.000 C 
BRANCH  25  26
ATOM     26  O   UNL     1       1.995  15.780  21.079  0.00  0.00    +0.000 OA
BRANCH  26  27
ATOM     27  C   UNL     1       3.043  15.009  21.469  0.00  0.00    +0.000 C 
ATOM     28  C   UNL     1       3.834  14.531  20.288  0.00  0.00    +0.000 C 
ATOM     29  O   UNL     1       3.299  14.708  22.627  0.00  0.00    +0.000 OA
ENDBRANCH  26  27
ENDBRANCH  25  26
ENDBRANCH   6  25
TORSDOF 8
ENDMDL
MODEL 8
REMARK VINA RESULT:      -5.9      9.154     11.496
REMARK  Name = 
REMARK  13 active torsions:
REMARK  status: ('A' for Active; 'I' for Inactive)
REMARK    1  A    between atoms: C_1  and  N_2
REMARK    2  A    between atoms: C_3  and  O_5
REMARK    3  A    between atoms: O_5  and  C_6
REMARK    4  A    between atoms: C_10  and  C_11
REMARK    5  A    between atoms: C_11  and  O_13
REMARK    6  A    between atoms: O_13  and  C_14
REMARK    7  A    between atoms: C_14  and  C_15
REMARK    8  A    between atoms: C_14  and  C_16
REMARK    9  A    between atoms: C_14  and  C_17
REMARK   10  A    between atoms: C_18  and  C_19
REMARK   11  A    between atoms: C_19  and  O_20
REMARK   12  A    between atoms: O_20  and  C_21
REMARK   13  A    between atoms: C_21  and  C_22
REMARK                            x       y       z     vdW  Elec       q    Type
REMARK                         _______ _______ _______ _____ _____    ______ ____
ROOT
ATOM      1  C   UNL     1      -2.573  13.039  22.989  0.00  0.00    +0.000 C 
ATOM      2  C   UNL     1      -1.309  12.219  22.610  0.00  0.00    +0.000 C 
ATOM      3  O   UNL     1      -0.666  11.349  23.150  0.00  0.00    +0.000 OA
ATOM      4  N   UNL     1      -1.095  13.035  21.545  0.00  0.00    +0.000 N 
ATOM      5  C   UNL     1      -0.103  13.302  20.636  0.00  0.00    +0.000 C 
ATOM      6  C   UNL     1      -0.124  14.456  19.909  0.00  0.00    +0.000 C 
ATOM      7  C   UNL     1      -1.168  15.551  20.078  0.00  0.00    +0.000 C 
ATOM      8  S   UNL     1      -2.075  15.419  21.596  0.00  0.00    +0.000 S 
ATOM      9  O   UNL     1      -1.182  15.781  22.683  0.00  0.00    +0.000 OA
ATOM     10  O   UNL     1      -3.322  16.139  21.419  0.00  0.00    +0.000 OA
ATOM     11  C   UNL     1      -2.400  13.687  21.599  0.00  0.00    +0.000 C 
ENDROOT
BRANCH   5  12
ATOM     12  C   UNL     1       1.026  12.299  20.461  0.00  0.00    +0.000 C 
ATOM     13  O   UNL     1       1.971  12.185  21.225  0.00  0.00    +0.000 OA
BRANCH  12  14
ATOM     14  O   UNL     1       0.889  11.662  19.278  0.00  0.00    +0.000 OA
BRANCH  14  15
ATOM     15  C   UNL     1       0.389  10.307  19.194  0.00  0.00    +0.000 C 
ATOM     16  C   UNL     1       0.374   9.542  20.520  0.00  0.00    +0.000 C 
ATOM     17  C   UNL     1      -1.055  10.431  18.683  0.00  0.00    +0.000 C 
ATOM     18  C   UNL     1       1.230   9.588  18.136  0.00  0.00    +0.000 C 
ENDBRANCH  14  15
ENDBRANCH  12  14
ENDBRANCH   5  12
BRANCH   1  19
ATOM     19  O   UNL     1      -3.780  12.334  23.364  0.00  0.00    +0.000 OA
BRANCH  19  22
ATOM     20  C   UNL     1      -7.296  12.580  23.817  0.00  0.00    +0.000 C 
ATOM     21  N   UNL     1      -5.976  12.240  23.362  0.00  0.00    +0.000 N 
ATOM     22  C   UNL     1      -4.903  13.046  23.590  0.00  0.00    +0.000 C 
ATOM     23  O   UNL     1      -4.939  14.189  24.013  0.00  0.00    +0.000 OA
ATOM     24  H   UNL     1      -5.761  11.281  23.123  0.00  0.00    +0.000 HD
ENDBRANCH  19  22
ENDBRANCH   1  19
BRANCH   6  25
ATOM     25  C   UNL     1       0.926  14.846  18.872  0.00  0.00    +0.000 C 
BRANCH  25  26
ATOM     26  O   UNL     1       0.993  16.280  18.698  0.00  0.00    +0.000 OA
BRANCH  26  27
ATOM     27  C   UNL     1       2.196  16.776  18.308  0.00  0.00    +0.000 C 
ATOM     28  C   UNL     1       3.307  16.230  19.155  0.00  0.00    +0.000 C 
ATOM     29  O   UNL     1       2.361  17.587  17.407  0.00  0.00    +0.000 OA
ENDBRANCH  26  27
ENDBRANCH  25  26
ENDBRANCH   6  25
TORSDOF 8
ENDMDL
MODEL 9
REMARK VINA RESULT:      -5.9      8.549     11.674
REMARK  Name = 
REMARK  13 active torsions:
REMARK  status: ('A' for Active; 'I' for Inactive)
REMARK    1  A    between atoms: C_1  and  N_2
REMARK    2  A    between atoms: C_3  and  O_5
REMARK    3  A    between atoms: O_5  and  C_6
REMARK    4  A    between atoms: C_10  and  C_11
REMARK    5  A    between atoms: C_11  and  O_13
REMARK    6  A    between atoms: O_13  and  C_14
REMARK    7  A    between atoms: C_14  and  C_15
REMARK    8  A    between atoms: C_14  and  C_16
REMARK    9  A    between atoms: C_14  and  C_17
REMARK   10  A    between atoms: C_18  and  C_19
REMARK   11  A    between atoms: C_19  and  O_20
REMARK   12  A    between atoms: O_20  and  C_21
REMARK   13  A    between atoms: C_21  and  C_22
REMARK                            x       y       z     vdW  Elec       q    Type
REMARK                         _______ _______ _______ _____ _____    ______ ____
ROOT
ATOM      1  C   UNL     1      -0.909  10.350  18.673  0.00  0.00    +0.000 C 
ATOM      2  C   UNL     1      -1.413  11.100  19.936  0.00  0.00    +0.000 C 
ATOM      3  O   UNL     1      -1.113  11.093  21.107  0.00  0.00    +0.000 OA
ATOM      4  N   UNL     1      -2.470  11.583  19.231  0.00  0.00    +0.000 N 
ATOM      5  C   UNL     1      -3.663  12.218  19.470  0.00  0.00    +0.000 C 
ATOM      6  C   UNL     1      -4.638  12.236  18.517  0.00  0.00    +0.000 C 
ATOM      7  C   UNL     1      -4.534  11.523  17.177  0.00  0.00    +0.000 C 
ATOM      8  S   UNL     1      -3.253  10.297  17.139  0.00  0.00    +0.000 S 
ATOM      9  O   UNL     1      -3.679   9.180  17.964  0.00  0.00    +0.000 OA
ATOM     10  O   UNL     1      -2.909  10.074  15.747  0.00  0.00    +0.000 OA
ATOM     11  C   UNL     1      -1.956  11.198  17.920  0.00  0.00    +0.000 C 
ENDROOT
BRANCH   5  12
ATOM     12  C   UNL     1      -3.883  12.890  20.816  0.00  0.00    +0.000 C 
ATOM     13  O   UNL     1      -4.322  12.324  21.804  0.00  0.00    +0.000 OA
BRANCH  12  14
ATOM     14  O   UNL     1      -3.651  14.216  20.706  0.00  0.00    +0.000 OA
BRANCH  14  15
ATOM     15  C   UNL     1      -2.560  14.859  21.404  0.00  0.00    +0.000 C 
ATOM     16  C   UNL     1      -1.946  14.037  22.540  0.00  0.00    +0.000 C 
ATOM     17  C   UNL     1      -1.479  15.110  20.341  0.00  0.00    +0.000 C 
ATOM     18  C   UNL     1      -3.086  16.208  21.905  0.00  0.00    +0.000 C 
ENDBRANCH  14  15
ENDBRANCH  12  14
ENDBRANCH   5  12
BRANCH   1  19
ATOM     19  O   UNL     1       0.499  10.399  18.345  0.00  0.00    +0.000 OA
BRANCH  19  22
ATOM     20  C   UNL     1       3.041   7.992  17.732  0.00  0.00    +0.000 C 
ATOM     21  N   UNL     1       1.901   8.862  17.635  0.00  0.00    +0.000 N 
ATOM     22  C   UNL     1       1.293   9.381  18.736  0.00  0.00    +0.000 C 
ATOM     23  O   UNL     1       1.492   9.048  19.892  0.00  0.00    +0.000 OA
ATOM     24  H   UNL     1       1.706   9.334  16.762  0.00  0.00    +0.000 HD
ENDBRANCH  19  22
ENDBRANCH   1  19
BRANCH   6  25
ATOM     25  C   UNL     1      -5.995  12.917  18.679  0.00  0.00    +0.000 C 
BRANCH  25  26
ATOM     26  O   UNL     1      -7.045  11.955  18.930  0.00  0.00    +0.000 OA
BRANCH  26  27
ATOM     27  C   UNL     1      -7.259  11.635  20.232  0.00  0.00    +0.000 C 
ATOM     28  C   UNL     1      -7.712  12.830  21.017  0.00  0.00    +0.000 C 
ATOM     29  O   UNL     1      -7.076  10.528  20.722  0.00  0.00    +0.000 OA
ENDBRANCH  26  27
ENDBRANCH  25  26
ENDBRANCH   6  25
TORSDOF 8
ENDMDL
