MODEL 1
REMARK VINA RESULT:      -8.6      0.000      0.000
REMARK  Name = 
REMARK  7 active torsions:
REMARK  status: ('A' for Active; 'I' for Inactive)
REMARK    1  A    between atoms: C_2  and  C_3
REMARK    2  A    between atoms: C_2  and  C_27
REMARK    3  A    between atoms: C_4  and  C_5
REMARK    4  A    between atoms: C_6  and  C_7
REMARK    5  A    between atoms: C_8  and  C_9
REMARK    6  A    between atoms: C_9  and  C_11
REMARK    7  A    between atoms: N_18  and  C_19
REMARK                            x       y       z     vdW  Elec       q    Type
REMARK                         _______ _______ _______ _____ _____    ______ ____
ROOT
ATOM      1  C   UNL     1       1.554   7.964  20.098  0.00  0.00    +0.000 C 
ATOM      2  C   UNL     1       1.733   8.527  18.887  0.00  0.00    +0.000 C 
ATOM      3  C   UNL     1       2.613   7.867  17.846  0.00  0.00    +0.000 C 
ATOM      4  N   UNL     1       3.382   6.717  18.334  0.00  0.00    +0.000 N 
ATOM      5  N   UNL     1       3.048   6.060  19.484  0.00  0.00    +0.000 NA
ATOM      6  C   UNL     1       2.229   6.652  20.291  0.00  0.00    +0.000 C 
ENDROOT
BRANCH   4   7
ATOM      7  C   UNL     1       4.097   5.987  17.345  0.00  0.00    +0.000 A 
ATOM      8  C   UNL     1       4.109   4.578  17.315  0.00  0.00    +0.000 A 
ATOM      9  C   UNL     1       4.838   3.865  16.356  0.00  0.00    +0.000 A 
ATOM     10  C   UNL     1       5.569   4.547  15.392  0.00  0.00    +0.000 A 
ATOM     11  C   UNL     1       5.558   5.937  15.380  0.00  0.00    +0.000 A 
ATOM     12  C   UNL     1       4.822   6.645  16.338  0.00  0.00    +0.000 A 
ENDBRANCH   4   7
BRANCH   1  14
ATOM     13  C   UNL     1       1.037   9.562  21.891  0.00  0.00    +0.000 C 
ATOM     14  C   UNL     1       0.720   8.480  21.164  0.00  0.00    +0.000 C 
BRANCH  13  16
ATOM     15  O   UNL     1       0.136   9.485  24.087  0.00  0.00    +0.000 OA
ATOM     16  C   UNL     1       0.123  10.007  22.978  0.00  0.00    +0.000 C 
BRANCH  16  17
ATOM     17  C   UNL     1      -0.786  11.145  22.685  0.00  0.00    +0.000 A 
ATOM     18  C   UNL     1      -0.368  12.123  21.775  0.00  0.00    +0.000 A 
ATOM     19  C   UNL     1      -1.188  13.219  21.499  0.00  0.00    +0.000 A 
ATOM     20  C   UNL     1      -2.420  13.348  22.142  0.00  0.00    +0.000 A 
ATOM     21  C   UNL     1      -2.835  12.383  23.059  0.00  0.00    +0.000 A 
ATOM     22  C   UNL     1      -2.020  11.282  23.334  0.00  0.00    +0.000 A 
ENDBRANCH  16  17
ENDBRANCH  13  16
ENDBRANCH   1  14
BRANCH   2  23
ATOM     23  C   UNL     1       1.113   9.804  18.502  0.00  0.00    +0.000 C 
ATOM     24  C   UNL     1      -0.193  10.097  18.636  0.00  0.00    +0.000 C 
BRANCH  24  25
ATOM     25  C   UNL     1      -0.742  11.396  18.169  0.00  0.00    +0.000 C 
ATOM     26  O   UNL     1      -0.060  12.412  18.126  0.00  0.00    +0.000 OA
BRANCH  25  27
ATOM     27  C   UNL     1      -2.180  11.417  17.785  0.00  0.00    +0.000 A 
ATOM     28  C   UNL     1      -2.529  11.045  16.484  0.00  0.00    +0.000 A 
ATOM     29  C   UNL     1      -3.870  11.043  16.092  0.00  0.00    +0.000 A 
ATOM     30  C   UNL     1      -4.865  11.401  17.002  0.00  0.00    +0.000 A 
ATOM     31  C   UNL     1      -4.525  11.758  18.305  0.00  0.00    +0.000 A 
ATOM     32  C   UNL     1      -3.185  11.763  18.701  0.00  0.00    +0.000 A 
ENDBRANCH  25  27
ENDBRANCH  24  25
ENDBRANCH   2  23
TORSDOF 7
ENDMDL
MODEL 2
REMARK VINA RESULT:      -8.6      0.088      1.212
REMARK  Name = 
REMARK  7 active torsions:
REMARK  status: ('A' for Active; 'I' for Inactive)
REMARK    1  A    between atoms: C_2  and  C_3
REMARK    2  A    between atoms: C_2  and  C_27
REMARK    3  A    between atoms: C_4  and  C_5
REMARK    4  A    between atoms: C_6  and  C_7
REMARK    5  A    between atoms: C_8  and  C_9
REMARK    6  A    between atoms: C_9  and  C_11
REMARK    7  A    between atoms: N_18  and  C_19
REMARK                            x       y       z     vdW  Elec       q    Type
REMARK                         _______ _______ _______ _____ _____    ______ ____
ROOT
ATOM      1  C   UNL     1       1.515   8.031  20.015  0.00  0.00    +0.000 C 
ATOM      2  C   UNL     1       1.681   8.561  18.786  0.00  0.00    +0.000 C 
ATOM      3  C   UNL     1       2.569   7.883  17.763  0.00  0.00    +0.000 C 
ATOM      4  N   UNL     1       3.358   6.762  18.281  0.00  0.00    +0.000 N 
ATOM      5  N   UNL     1       3.038   6.134  19.452  0.00  0.00    +0.000 NA
ATOM      6  C   UNL     1       2.212   6.737  20.245  0.00  0.00    +0.000 C 
ENDROOT
BRANCH   4   7
ATOM      7  C   UNL     1       4.081   6.015  17.312  0.00  0.00    +0.000 A 
ATOM      8  C   UNL     1       4.066   4.605  17.287  0.00  0.00    +0.000 A 
ATOM      9  C   UNL     1       4.803   3.874  16.348  0.00  0.00    +0.000 A 
ATOM     10  C   UNL     1       5.572   4.539  15.400  0.00  0.00    +0.000 A 
ATOM     11  C   UNL     1       5.588   5.929  15.383  0.00  0.00    +0.000 A 
ATOM     12  C   UNL     1       4.844   6.654  16.321  0.00  0.00    +0.000 A 
ENDBRANCH   4   7
BRANCH   1  14
ATOM     13  C   UNL     1       1.089   9.498  21.939  0.00  0.00    +0.000 C 
ATOM     14  C   UNL     1       0.676   8.565  21.068  0.00  0.00    +0.000 C 
BRANCH  13  16
ATOM     15  O   UNL     1       0.121   9.451  24.108  0.00  0.00    +0.000 OA
ATOM     16  C   UNL     1       0.159   9.973  22.999  0.00  0.00    +0.000 C 
BRANCH  16  17
ATOM     17  C   UNL     1      -0.703  11.140  22.680  0.00  0.00    +0.000 A 
ATOM     18  C   UNL     1      -1.976  11.213  23.259  0.00  0.00    +0.000 A 
ATOM     19  C   UNL     1      -2.822  12.283  22.958  0.00  0.00    +0.000 A 
ATOM     20  C   UNL     1      -2.404  13.273  22.068  0.00  0.00    +0.000 A 
ATOM     21  C   UNL     1      -1.142  13.197  21.479  0.00  0.00    +0.000 A 
ATOM     22  C   UNL     1      -0.291  12.132  21.781  0.00  0.00    +0.000 A 
ENDBRANCH  16  17
ENDBRANCH  13  16
ENDBRANCH   1  14
BRANCH   2  23
ATOM     23  C   UNL     1       1.038   9.815  18.365  0.00  0.00    +0.000 C 
ATOM     24  C   UNL     1      -0.201  10.201  18.718  0.00  0.00    +0.000 C 
BRANCH  24  25
ATOM     25  C   UNL     1      -0.790  11.463  18.200  0.00  0.00    +0.000 C 
ATOM     26  O   UNL     1      -0.156  12.509  18.165  0.00  0.00    +0.000 OA
BRANCH  25  27
ATOM     27  C   UNL     1      -2.209  11.406  17.755  0.00  0.00    +0.000 A 
ATOM     28  C   UNL     1      -3.210  11.742  18.672  0.00  0.00    +0.000 A 
ATOM     29  C   UNL     1      -4.552  11.710  18.286  0.00  0.00    +0.000 A 
ATOM     30  C   UNL     1      -4.897  11.352  16.982  0.00  0.00    +0.000 A 
ATOM     31  C   UNL     1      -3.904  11.030  16.060  0.00  0.00    +0.000 A 
ATOM     32  C   UNL     1      -2.560  11.060  16.442  0.00  0.00    +0.000 A 
ENDBRANCH  25  27
ENDBRANCH  24  25
ENDBRANCH   2  23
TORSDOF 7
ENDMDL
MODEL 3
REMARK VINA RESULT:      -8.5      0.116      1.209
REMARK  Name = 
REMARK  7 active torsions:
REMARK  status: ('A' for Active; 'I' for Inactive)
REMARK    1  A    between atoms: C_2  and  C_3
REMARK    2  A    between atoms: C_2  and  C_27
REMARK    3  A    between atoms: C_4  and  C_5
REMARK    4  A    between atoms: C_6  and  C_7
REMARK    5  A    between atoms: C_8  and  C_9
REMARK    6  A    between atoms: C_9  and  C_11
REMARK    7  A    between atoms: N_18  and  C_19
REMARK                            x       y       z     vdW  Elec       q    Type
REMARK                         _______ _______ _______ _____ _____    ______ ____
ROOT
ATOM      1  C   UNL     1       1.618   7.973  20.164  0.00  0.00    +0.000 C 
ATOM      2  C   UNL     1       1.776   8.544  18.953  0.00  0.00    +0.000 C 
ATOM      3  C   UNL     1       2.636   7.889  17.893  0.00  0.00    +0.000 C 
ATOM      4  N   UNL     1       3.412   6.736  18.358  0.00  0.00    +0.000 N 
ATOM      5  N   UNL     1       3.098   6.071  19.510  0.00  0.00    +0.000 NA
ATOM      6  C   UNL     1       2.294   6.659  20.336  0.00  0.00    +0.000 C 
ENDROOT
BRANCH   4   7
ATOM      7  C   UNL     1       4.107   6.011  17.352  0.00  0.00    +0.000 A 
ATOM      8  C   UNL     1       4.837   6.656  16.332  0.00  0.00    +0.000 A 
ATOM      9  C   UNL     1       5.497   5.938  15.328  0.00  0.00    +0.000 A 
ATOM     10  C   UNL     1       5.449   4.549  15.322  0.00  0.00    +0.000 A 
ATOM     11  C   UNL     1       4.757   3.883  16.328  0.00  0.00    +0.000 A 
ATOM     12  C   UNL     1       4.105   4.607  17.334  0.00  0.00    +0.000 A 
ENDBRANCH   4   7
BRANCH   1  14
ATOM     13  C   UNL     1       0.958   9.708  21.773  0.00  0.00    +0.000 C 
ATOM     14  C   UNL     1       0.804   8.483  21.248  0.00  0.00    +0.000 C 
BRANCH  13  16
ATOM     15  O   UNL     1       0.128   9.592  23.996  0.00  0.00    +0.000 OA
ATOM     16  C   UNL     1       0.084  10.137  22.898  0.00  0.00    +0.000 C 
BRANCH  16  17
ATOM     17  C   UNL     1      -0.825  11.288  22.659  0.00  0.00    +0.000 A 
ATOM     18  C   UNL     1      -2.046  11.334  23.343  0.00  0.00    +0.000 A 
ATOM     19  C   UNL     1      -2.935  12.387  23.120  0.00  0.00    +0.000 A 
ATOM     20  C   UNL     1      -2.613  13.389  22.204  0.00  0.00    +0.000 A 
ATOM     21  C   UNL     1      -1.404  13.340  21.510  0.00  0.00    +0.000 A 
ATOM     22  C   UNL     1      -0.510  12.291  21.734  0.00  0.00    +0.000 A 
ENDBRANCH  16  17
ENDBRANCH  13  16
ENDBRANCH   1  14
BRANCH   2  23
ATOM     23  C   UNL     1       1.150   9.824  18.588  0.00  0.00    +0.000 C 
ATOM     24  C   UNL     1      -0.175  10.043  18.525  0.00  0.00    +0.000 C 
BRANCH  24  25
ATOM     25  C   UNL     1      -0.718  11.357  18.093  0.00  0.00    +0.000 C 
ATOM     26  O   UNL     1      -0.031  12.370  18.075  0.00  0.00    +0.000 OA
BRANCH  25  27
ATOM     27  C   UNL     1      -2.157  11.395  17.714  0.00  0.00    +0.000 A 
ATOM     28  C   UNL     1      -2.515  11.027  16.413  0.00  0.00    +0.000 A 
ATOM     29  C   UNL     1      -3.857  11.041  16.026  0.00  0.00    +0.000 A 
ATOM     30  C   UNL     1      -4.844  11.412  16.939  0.00  0.00    +0.000 A 
ATOM     31  C   UNL     1      -4.496  11.766  18.241  0.00  0.00    +0.000 A 
ATOM     32  C   UNL     1      -3.155  11.754  18.632  0.00  0.00    +0.000 A 
ENDBRANCH  25  27
ENDBRANCH  24  25
ENDBRANCH   2  23
TORSDOF 7
ENDMDL
MODEL 4
REMARK VINA RESULT:      -8.2      3.042      8.987
REMARK  Name = 
REMARK  7 active torsions:
REMARK  status: ('A' for Active; 'I' for Inactive)
REMARK    1  A    between atoms: C_2  and  C_3
REMARK    2  A    between atoms: C_2  and  C_27
REMARK    3  A    between atoms: C_4  and  C_5
REMARK    4  A    between atoms: C_6  and  C_7
REMARK    5  A    between atoms: C_8  and  C_9
REMARK    6  A    between atoms: C_9  and  C_11
REMARK    7  A    between atoms: N_18  and  C_19
REMARK                            x       y       z     vdW  Elec       q    Type
REMARK                         _______ _______ _______ _____ _____    ______ ____
ROOT
ATOM      1  C   UNL     1       1.525   7.828  20.037  0.00  0.00    +0.000 C 
ATOM      2  C   UNL     1       1.823   8.690  19.044  0.00  0.00    +0.000 C 
ATOM      3  C   UNL     1       1.199  10.069  19.001  0.00  0.00    +0.000 C 
ATOM      4  N   UNL     1       0.130  10.290  19.980  0.00  0.00    +0.000 N 
ATOM      5  N   UNL     1      -0.021   9.489  21.077  0.00  0.00    +0.000 NA
ATOM      6  C   UNL     1       0.604   8.357  21.079  0.00  0.00    +0.000 C 
ENDROOT
BRANCH   4   7
ATOM      7  C   UNL     1      -0.367  11.619  20.063  0.00  0.00    +0.000 A 
ATOM      8  C   UNL     1      -1.365  11.991  20.988  0.00  0.00    +0.000 A 
ATOM      9  C   UNL     1      -1.870  13.295  21.046  0.00  0.00    +0.000 A 
ATOM     10  C   UNL     1      -1.381  14.267  20.182  0.00  0.00    +0.000 A 
ATOM     11  C   UNL     1      -0.380  13.938  19.275  0.00  0.00    +0.000 A 
ATOM     12  C   UNL     1       0.126  12.633  19.226  0.00  0.00    +0.000 A 
ENDBRANCH   4   7
BRANCH   1  14
ATOM     13  C   UNL     1       1.471   5.537  20.923  0.00  0.00    +0.000 C 
ATOM     14  C   UNL     1       2.073   6.497  20.205  0.00  0.00    +0.000 C 
BRANCH  13  16
ATOM     15  O   UNL     1       2.179   3.614  22.125  0.00  0.00    +0.000 OA
ATOM     16  C   UNL     1       2.121   4.204  21.052  0.00  0.00    +0.000 C 
BRANCH  16  17
ATOM     17  C   UNL     1       2.667   3.586  19.816  0.00  0.00    +0.000 A 
ATOM     18  C   UNL     1       4.049   3.379  19.722  0.00  0.00    +0.000 A 
ATOM     19  C   UNL     1       4.597   2.826  18.563  0.00  0.00    +0.000 A 
ATOM     20  C   UNL     1       3.769   2.492  17.491  0.00  0.00    +0.000 A 
ATOM     21  C   UNL     1       2.394   2.709  17.574  0.00  0.00    +0.000 A 
ATOM     22  C   UNL     1       1.841   3.257  18.734  0.00  0.00    +0.000 A 
ENDBRANCH  16  17
ENDBRANCH  13  16
ENDBRANCH   1  14
BRANCH   2  23
ATOM     23  C   UNL     1       2.745   8.355  17.948  0.00  0.00    +0.000 C 
ATOM     24  C   UNL     1       3.439   7.208  17.850  0.00  0.00    +0.000 C 
BRANCH  24  25
ATOM     25  C   UNL     1       4.391   6.978  16.732  0.00  0.00    +0.000 C 
ATOM     26  O   UNL     1       4.213   7.455  15.619  0.00  0.00    +0.000 OA
BRANCH  25  27
ATOM     27  C   UNL     1       5.562   6.104  17.018  0.00  0.00    +0.000 A 
ATOM     28  C   UNL     1       5.967   5.190  16.041  0.00  0.00    +0.000 A 
ATOM     29  C   UNL     1       7.068   4.362  16.271  0.00  0.00    +0.000 A 
ATOM     30  C   UNL     1       7.772   4.452  17.472  0.00  0.00    +0.000 A 
ATOM     31  C   UNL     1       7.383   5.371  18.444  0.00  0.00    +0.000 A 
ATOM     32  C   UNL     1       6.282   6.201  18.218  0.00  0.00    +0.000 A 
ENDBRANCH  25  27
ENDBRANCH  24  25
ENDBRANCH   2  23
TORSDOF 7
ENDMDL
MODEL 5
REMARK VINA RESULT:      -8.1      3.236      9.096
REMARK  Name = 
REMARK  7 active torsions:
REMARK  status: ('A' for Active; 'I' for Inactive)
REMARK    1  A    between atoms: C_2  and  C_3
REMARK    2  A    between atoms: C_2  and  C_27
REMARK    3  A    between atoms: C_4  and  C_5
REMARK    4  A    between atoms: C_6  and  C_7
REMARK    5  A    between atoms: C_8  and  C_9
REMARK    6  A    between atoms: C_9  and  C_11
REMARK    7  A    between atoms: N_18  and  C_19
REMARK                            x       y       z     vdW  Elec       q    Type
REMARK                         _______ _______ _______ _____ _____    ______ ____
ROOT
ATOM      1  C   UNL     1       1.415   7.133  20.454  0.00  0.00    +0.000 C 
ATOM      2  C   UNL     1       1.955   7.879  19.469  0.00  0.00    +0.000 C 
ATOM      3  C   UNL     1       1.477   9.293  19.215  0.00  0.00    +0.000 C 
ATOM      4  N   UNL     1       0.282   9.682  19.971  0.00  0.00    +0.000 N 
ATOM      5  N   UNL     1      -0.125   8.996  21.081  0.00  0.00    +0.000 NA
ATOM      6  C   UNL     1       0.384   7.823  21.276  0.00  0.00    +0.000 C 
ENDROOT
BRANCH   4   7
ATOM      7  C   UNL     1      -0.097  11.048  19.868  0.00  0.00    +0.000 A 
ATOM      8  C   UNL     1      -0.271  11.687  18.623  0.00  0.00    +0.000 A 
ATOM      9  C   UNL     1      -0.617  13.040  18.529  0.00  0.00    +0.000 A 
ATOM     10  C   UNL     1      -0.807  13.790  19.683  0.00  0.00    +0.000 A 
ATOM     11  C   UNL     1      -0.667  13.183  20.926  0.00  0.00    +0.000 A 
ATOM     12  C   UNL     1      -0.326  11.827  21.014  0.00  0.00    +0.000 A 
ENDBRANCH   4   7
BRANCH   1  14
ATOM     13  C   UNL     1       0.991   4.724  20.681  0.00  0.00    +0.000 C 
ATOM     14  C   UNL     1       1.802   5.784  20.813  0.00  0.00    +0.000 C 
BRANCH  13  16
ATOM     15  O   UNL     1       1.101   2.849  22.135  0.00  0.00    +0.000 OA
ATOM     16  C   UNL     1       1.473   3.378  21.093  0.00  0.00    +0.000 C 
BRANCH  16  17
ATOM     17  C   UNL     1       2.398   2.669  20.171  0.00  0.00    +0.000 A 
ATOM     18  C   UNL     1       3.714   2.433  20.589  0.00  0.00    +0.000 A 
ATOM     19  C   UNL     1       4.616   1.795  19.736  0.00  0.00    +0.000 A 
ATOM     20  C   UNL     1       4.210   1.403  18.460  0.00  0.00    +0.000 A 
ATOM     21  C   UNL     1       2.905   1.648  18.034  0.00  0.00    +0.000 A 
ATOM     22  C   UNL     1       1.998   2.282  18.886  0.00  0.00    +0.000 A 
ENDBRANCH  16  17
ENDBRANCH  13  16
ENDBRANCH   1  14
BRANCH   2  23
ATOM     23  C   UNL     1       3.014   7.378  18.580  0.00  0.00    +0.000 C 
ATOM     24  C   UNL     1       3.163   6.094  18.207  0.00  0.00    +0.000 C 
BRANCH  24  25
ATOM     25  C   UNL     1       4.298   5.669  17.347  0.00  0.00    +0.000 C 
ATOM     26  O   UNL     1       4.133   4.984  16.346  0.00  0.00    +0.000 OA
BRANCH  25  27
ATOM     27  C   UNL     1       5.659   6.087  17.779  0.00  0.00    +0.000 A 
ATOM     28  C   UNL     1       6.277   5.379  18.814  0.00  0.00    +0.000 A 
ATOM     29  C   UNL     1       7.559   5.737  19.238  0.00  0.00    +0.000 A 
ATOM     30  C   UNL     1       8.229   6.796  18.625  0.00  0.00    +0.000 A 
ATOM     31  C   UNL     1       7.624   7.496  17.583  0.00  0.00    +0.000 A 
ATOM     32  C   UNL     1       6.342   7.142  17.155  0.00  0.00    +0.000 A 
ENDBRANCH  25  27
ENDBRANCH  24  25
ENDBRANCH   2  23
TORSDOF 7
ENDMDL
MODEL 6
REMARK VINA RESULT:      -8.1      2.905      9.424
REMARK  Name = 
REMARK  7 active torsions:
REMARK  status: ('A' for Active; 'I' for Inactive)
REMARK    1  A    between atoms: C_2  and  C_3
REMARK    2  A    between atoms: C_2  and  C_27
REMARK    3  A    between atoms: C_4  and  C_5
REMARK    4  A    between atoms: C_6  and  C_7
REMARK    5  A    between atoms: C_8  and  C_9
REMARK    6  A    between atoms: C_9  and  C_11
REMARK    7  A    between atoms: N_18  and  C_19
REMARK                            x       y       z     vdW  Elec       q    Type
REMARK                         _______ _______ _______ _____ _____    ______ ____
ROOT
ATOM      1  C   UNL     1       1.933   8.932  18.500  0.00  0.00    +0.000 C 
ATOM      2  C   UNL     1       1.641   8.359  19.685  0.00  0.00    +0.000 C 
ATOM      3  C   UNL     1       0.723   9.048  20.674  0.00  0.00    +0.000 C 
ATOM      4  N   UNL     1       0.368  10.426  20.324  0.00  0.00    +0.000 N 
ATOM      5  N   UNL     1       0.514  10.909  19.054  0.00  0.00    +0.000 NA
ATOM      6  C   UNL     1       1.251  10.227  18.238  0.00  0.00    +0.000 C 
ENDROOT
BRANCH   4   7
ATOM      7  C   UNL     1      -0.610  11.042  21.151  0.00  0.00    +0.000 A 
ATOM      8  C   UNL     1      -0.715  10.757  22.528  0.00  0.00    +0.000 A 
ATOM      9  C   UNL     1      -1.699  11.345  23.332  0.00  0.00    +0.000 A 
ATOM     10  C   UNL     1      -2.602  12.244  22.778  0.00  0.00    +0.000 A 
ATOM     11  C   UNL     1      -2.510  12.564  21.428  0.00  0.00    +0.000 A 
ATOM     12  C   UNL     1      -1.520  11.977  20.630  0.00  0.00    +0.000 A 
ENDBRANCH   4   7
BRANCH   1  14
ATOM     13  C   UNL     1       3.771   7.505  17.710  0.00  0.00    +0.000 C 
ATOM     14  C   UNL     1       2.771   8.365  17.463  0.00  0.00    +0.000 C 
BRANCH  13  16
ATOM     15  O   UNL     1       4.379   7.333  15.420  0.00  0.00    +0.000 OA
ATOM     16  C   UNL     1       4.589   6.990  16.578  0.00  0.00    +0.000 C 
BRANCH  16  17
ATOM     17  C   UNL     1       5.708   6.070  16.906  0.00  0.00    +0.000 A 
ATOM     18  C   UNL     1       6.384   6.238  18.121  0.00  0.00    +0.000 A 
ATOM     19  C   UNL     1       7.458   5.407  18.447  0.00  0.00    +0.000 A 
ATOM     20  C   UNL     1       7.868   4.416  17.555  0.00  0.00    +0.000 A 
ATOM     21  C   UNL     1       7.207   4.253  16.338  0.00  0.00    +0.000 A 
ATOM     22  C   UNL     1       6.129   5.078  16.010  0.00  0.00    +0.000 A 
ENDBRANCH  16  17
ENDBRANCH  13  16
ENDBRANCH   1  14
BRANCH   2  23
ATOM     23  C   UNL     1       2.192   7.060  20.101  0.00  0.00    +0.000 C 
ATOM     24  C   UNL     1       1.463   5.954  20.334  0.00  0.00    +0.000 C 
BRANCH  24  25
ATOM     25  C   UNL     1       2.102   4.697  20.804  0.00  0.00    +0.000 C 
ATOM     26  O   UNL     1       2.250   4.450  21.994  0.00  0.00    +0.000 OA
BRANCH  25  27
ATOM     27  C   UNL     1       2.590   3.761  19.756  0.00  0.00    +0.000 A 
ATOM     28  C   UNL     1       1.674   2.888  19.162  0.00  0.00    +0.000 A 
ATOM     29  C   UNL     1       2.095   2.003  18.167  0.00  0.00    +0.000 A 
ATOM     30  C   UNL     1       3.429   1.995  17.756  0.00  0.00    +0.000 A 
ATOM     31  C   UNL     1       4.343   2.873  18.333  0.00  0.00    +0.000 A 
ATOM     32  C   UNL     1       3.927   3.760  19.330  0.00  0.00    +0.000 A 
ENDBRANCH  25  27
ENDBRANCH  24  25
ENDBRANCH   2  23
TORSDOF 7
ENDMDL
MODEL 7
REMARK VINA RESULT:      -8.1      3.253      9.091
REMARK  Name = 
REMARK  7 active torsions:
REMARK  status: ('A' for Active; 'I' for Inactive)
REMARK    1  A    between atoms: C_2  and  C_3
REMARK    2  A    between atoms: C_2  and  C_27
REMARK    3  A    between atoms: C_4  and  C_5
REMARK    4  A    between atoms: C_6  and  C_7
REMARK    5  A    between atoms: C_8  and  C_9
REMARK    6  A    between atoms: C_9  and  C_11
REMARK    7  A    between atoms: N_18  and  C_19
REMARK                            x       y       z     vdW  Elec       q    Type
REMARK                         _______ _______ _______ _____ _____    ______ ____
ROOT
ATOM      1  C   UNL     1       1.464   7.090  20.446  0.00  0.00    +0.000 C 
ATOM      2  C   UNL     1       2.002   7.841  19.465  0.00  0.00    +0.000 C 
ATOM      3  C   UNL     1       1.519   9.255  19.216  0.00  0.00    +0.000 C 
ATOM      4  N   UNL     1       0.321   9.635  19.972  0.00  0.00    +0.000 N 
ATOM      5  N   UNL     1      -0.085   8.943  21.078  0.00  0.00    +0.000 NA
ATOM      6  C   UNL     1       0.429   7.771  21.269  0.00  0.00    +0.000 C 
ENDROOT
BRANCH   4   7
ATOM      7  C   UNL     1      -0.064  11.000  19.874  0.00  0.00    +0.000 A 
ATOM      8  C   UNL     1       0.036  11.888  20.964  0.00  0.00    +0.000 A 
ATOM      9  C   UNL     1      -0.371  13.224  20.869  0.00  0.00    +0.000 A 
ATOM     10  C   UNL     1      -0.884  13.710  19.673  0.00  0.00    +0.000 A 
ATOM     11  C   UNL     1      -0.973  12.866  18.572  0.00  0.00    +0.000 A 
ATOM     12  C   UNL     1      -0.558  11.532  18.671  0.00  0.00    +0.000 A 
ENDBRANCH   4   7
BRANCH   1  14
ATOM     13  C   UNL     1       1.034   4.684  20.704  0.00  0.00    +0.000 C 
ATOM     14  C   UNL     1       1.856   5.741  20.800  0.00  0.00    +0.000 C 
BRANCH  13  16
ATOM     15  O   UNL     1       1.131   2.789  22.132  0.00  0.00    +0.000 OA
ATOM     16  C   UNL     1       1.523   3.338  21.109  0.00  0.00    +0.000 C 
BRANCH  16  17
ATOM     17  C   UNL     1       2.481   2.656  20.200  0.00  0.00    +0.000 A 
ATOM     18  C   UNL     1       2.055   2.308  18.913  0.00  0.00    +0.000 A 
ATOM     19  C   UNL     1       2.921   1.641  18.044  0.00  0.00    +0.000 A 
ATOM     20  C   UNL     1       4.209   1.309  18.464  0.00  0.00    +0.000 A 
ATOM     21  C   UNL     1       4.634   1.642  19.750  0.00  0.00    +0.000 A 
ATOM     22  C   UNL     1       3.773   2.313  20.620  0.00  0.00    +0.000 A 
ENDBRANCH  16  17
ENDBRANCH  13  16
ENDBRANCH   1  14
BRANCH   2  23
ATOM     23  C   UNL     1       3.065   7.348  18.576  0.00  0.00    +0.000 C 
ATOM     24  C   UNL     1       3.209   6.070  18.183  0.00  0.00    +0.000 C 
BRANCH  24  25
ATOM     25  C   UNL     1       4.348   5.652  17.325  0.00  0.00    +0.000 C 
ATOM     26  O   UNL     1       4.184   5.006  16.298  0.00  0.00    +0.000 OA
BRANCH  25  27
ATOM     27  C   UNL     1       5.711   6.026  17.791  0.00  0.00    +0.000 A 
ATOM     28  C   UNL     1       6.362   7.092  17.162  0.00  0.00    +0.000 A 
ATOM     29  C   UNL     1       7.637   7.478  17.581  0.00  0.00    +0.000 A 
ATOM     30  C   UNL     1       8.261   6.807  18.634  0.00  0.00    +0.000 A 
ATOM     31  C   UNL     1       7.611   5.753  19.274  0.00  0.00    +0.000 A 
ATOM     32  C   UNL     1       6.336   5.364  18.858  0.00  0.00    +0.000 A 
ENDBRANCH  25  27
ENDBRANCH  24  25
ENDBRANCH   2  23
TORSDOF 7
ENDMDL
MODEL 8
REMARK VINA RESULT:      -8.0      3.305      9.081
REMARK  Name = 
REMARK  7 active torsions:
REMARK  status: ('A' for Active; 'I' for Inactive)
REMARK    1  A    between atoms: C_2  and  C_3
REMARK    2  A    between atoms: C_2  and  C_27
REMARK    3  A    between atoms: C_4  and  C_5
REMARK    4  A    between atoms: C_6  and  C_7
REMARK    5  A    between atoms: C_8  and  C_9
REMARK    6  A    between atoms: C_9  and  C_11
REMARK    7  A    between atoms: N_18  and  C_19
REMARK                            x       y       z     vdW  Elec       q    Type
REMARK                         _______ _______ _______ _____ _____    ______ ____
ROOT
ATOM      1  C   UNL     1       1.418   7.216  20.517  0.00  0.00    +0.000 C 
ATOM      2  C   UNL     1       1.950   7.923  19.499  0.00  0.00    +0.000 C 
ATOM      3  C   UNL     1       1.479   9.331  19.203  0.00  0.00    +0.000 C 
ATOM      4  N   UNL     1       0.299   9.756  19.962  0.00  0.00    +0.000 N 
ATOM      5  N   UNL     1      -0.098   9.112  21.100  0.00  0.00    +0.000 NA
ATOM      6  C   UNL     1       0.404   7.942  21.328  0.00  0.00    +0.000 C 
ENDROOT
BRANCH   4   7
ATOM      7  C   UNL     1      -0.072  11.121  19.817  0.00  0.00    +0.000 A 
ATOM      8  C   UNL     1      -1.388  11.570  20.048  0.00  0.00    +0.000 A 
ATOM      9  C   UNL     1      -1.752  12.911  19.877  0.00  0.00    +0.000 A 
ATOM     10  C   UNL     1      -0.803  13.842  19.475  0.00  0.00    +0.000 A 
ATOM     11  C   UNL     1       0.509  13.435  19.262  0.00  0.00    +0.000 A 
ATOM     12  C   UNL     1       0.870  12.094  19.442  0.00  0.00    +0.000 A 
ENDBRANCH   4   7
BRANCH   1  14
ATOM     13  C   UNL     1       1.093   4.782  20.598  0.00  0.00    +0.000 C 
ATOM     14  C   UNL     1       1.800   5.877  20.917  0.00  0.00    +0.000 C 
BRANCH  13  16
ATOM     15  O   UNL     1       1.130   2.945  22.103  0.00  0.00    +0.000 OA
ATOM     16  C   UNL     1       1.556   3.449  21.070  0.00  0.00    +0.000 C 
BRANCH  16  17
ATOM     17  C   UNL     1       2.532   2.722  20.217  0.00  0.00    +0.000 A 
ATOM     18  C   UNL     1       2.146   2.345  18.925  0.00  0.00    +0.000 A 
ATOM     19  C   UNL     1       3.030   1.636  18.109  0.00  0.00    +0.000 A 
ATOM     20  C   UNL     1       4.295   1.292  18.586  0.00  0.00    +0.000 A 
ATOM     21  C   UNL     1       4.680   1.654  19.876  0.00  0.00    +0.000 A 
ATOM     22  C   UNL     1       3.800   2.367  20.694  0.00  0.00    +0.000 A 
ENDBRANCH  16  17
ENDBRANCH  13  16
ENDBRANCH   1  14
BRANCH   2  23
ATOM     23  C   UNL     1       2.992   7.383  18.613  0.00  0.00    +0.000 C 
ATOM     24  C   UNL     1       3.108   6.090  18.260  0.00  0.00    +0.000 C 
BRANCH  24  25
ATOM     25  C   UNL     1       4.228   5.625  17.401  0.00  0.00    +0.000 C 
ATOM     26  O   UNL     1       4.045   4.911  16.423  0.00  0.00    +0.000 OA
BRANCH  25  27
ATOM     27  C   UNL     1       5.599   6.038  17.806  0.00  0.00    +0.000 A 
ATOM     28  C   UNL     1       6.218   5.358  18.859  0.00  0.00    +0.000 A 
ATOM     29  C   UNL     1       7.508   5.712  19.259  0.00  0.00    +0.000 A 
ATOM     30  C   UNL     1       8.187   6.739  18.603  0.00  0.00    +0.000 A 
ATOM     31  C   UNL     1       7.582   7.412  17.544  0.00  0.00    +0.000 A 
ATOM     32  C   UNL     1       6.291   7.061  17.140  0.00  0.00    +0.000 A 
ENDBRANCH  25  27
ENDBRANCH  24  25
ENDBRANCH   2  23
TORSDOF 7
ENDMDL
MODEL 9
REMARK VINA RESULT:      -8.0      2.981      9.389
REMARK  Name = 
REMARK  7 active torsions:
REMARK  status: ('A' for Active; 'I' for Inactive)
REMARK    1  A    between atoms: C_2  and  C_3
REMARK    2  A    between atoms: C_2  and  C_27
REMARK    3  A    between atoms: C_4  and  C_5
REMARK    4  A    between atoms: C_6  and  C_7
REMARK    5  A    between atoms: C_8  and  C_9
REMARK    6  A    between atoms: C_9  and  C_11
REMARK    7  A    between atoms: N_18  and  C_19
REMARK                            x       y       z     vdW  Elec       q    Type
REMARK                         _______ _______ _______ _____ _____    ______ ____
ROOT
ATOM      1  C   UNL     1       2.123   8.968  18.472  0.00  0.00    +0.000 C 
ATOM      2  C   UNL     1       1.707   8.265  19.545  0.00  0.00    +0.000 C 
ATOM      3  C   UNL     1       0.771   8.884  20.562  0.00  0.00    +0.000 C 
ATOM      4  N   UNL     1       0.540  10.321  20.388  0.00  0.00    +0.000 N 
ATOM      5  N   UNL     1       0.811  10.959  19.210  0.00  0.00    +0.000 NA
ATOM      6  C   UNL     1       1.555  10.337  18.354  0.00  0.00    +0.000 C 
ENDROOT
BRANCH   4   7
ATOM      7  C   UNL     1      -0.450  10.895  21.232  0.00  0.00    +0.000 A 
ATOM      8  C   UNL     1      -0.622  10.488  22.571  0.00  0.00    +0.000 A 
ATOM      9  C   UNL     1      -1.617  11.037  23.389  0.00  0.00    +0.000 A 
ATOM     10  C   UNL     1      -2.464  12.016  22.888  0.00  0.00    +0.000 A 
ATOM     11  C   UNL     1      -2.305  12.456  21.578  0.00  0.00    +0.000 A 
ATOM     12  C   UNL     1      -1.304  11.908  20.767  0.00  0.00    +0.000 A 
ENDBRANCH   4   7
BRANCH   1  14
ATOM     13  C   UNL     1       3.773   7.399  17.547  0.00  0.00    +0.000 C 
ATOM     14  C   UNL     1       2.992   8.483  17.419  0.00  0.00    +0.000 C 
BRANCH  13  16
ATOM     15  O   UNL     1       4.459   7.395  15.273  0.00  0.00    +0.000 OA
ATOM     16  C   UNL     1       4.646   6.988  16.415  0.00  0.00    +0.000 C 
BRANCH  16  17
ATOM     17  C   UNL     1       5.789   6.091  16.722  0.00  0.00    +0.000 A 
ATOM     18  C   UNL     1       6.119   5.083  15.807  0.00  0.00    +0.000 A 
ATOM     19  C   UNL     1       7.170   4.206  16.080  0.00  0.00    +0.000 A 
ATOM     20  C   UNL     1       7.886   4.324  17.271  0.00  0.00    +0.000 A 
ATOM     21  C   UNL     1       7.553   5.317  18.192  0.00  0.00    +0.000 A 
ATOM     22  C   UNL     1       6.505   6.200  17.922  0.00  0.00    +0.000 A 
ENDBRANCH  16  17
ENDBRANCH  13  16
ENDBRANCH   1  14
BRANCH   2  23
ATOM     23  C   UNL     1       2.134   6.882  19.806  0.00  0.00    +0.000 C 
ATOM     24  C   UNL     1       1.538   6.044  20.673  0.00  0.00    +0.000 C 
BRANCH  24  25
ATOM     25  C   UNL     1       2.073   4.678  20.913  0.00  0.00    +0.000 C 
ATOM     26  O   UNL     1       2.104   4.180  22.031  0.00  0.00    +0.000 OA
BRANCH  25  27
ATOM     27  C   UNL     1       2.608   3.951  19.730  0.00  0.00    +0.000 A 
ATOM     28  C   UNL     1       3.991   3.775  19.624  0.00  0.00    +0.000 A 
ATOM     29  C   UNL     1       4.528   3.088  18.532  0.00  0.00    +0.000 A 
ATOM     30  C   UNL     1       3.684   2.567  17.550  0.00  0.00    +0.000 A 
ATOM     31  C   UNL     1       2.304   2.726  17.658  0.00  0.00    +0.000 A 
ATOM     32  C   UNL     1       1.763   3.413  18.748  0.00  0.00    +0.000 A 
ENDBRANCH  25  27
ENDBRANCH  24  25
ENDBRANCH   2  23
TORSDOF 7
ENDMDL
