MODEL 1
REMARK VINA RESULT:      -9.4      0.000      0.000
REMARK  Name = 
REMARK  6 active torsions:
REMARK  status: ('A' for Active; 'I' for Inactive)
REMARK    1  A    between atoms: C_2  and  C_3
REMARK    2  A    between atoms: C_3  and  C_4
REMARK    3  A    between atoms: C_3  and  N_20
REMARK    4  A    between atoms: C_4  and  C_5
REMARK    5  A    between atoms: C_8  and  C_9
REMARK    6  A    between atoms: C_21  and  C_23
REMARK                            x       y       z     vdW  Elec       q    Type
REMARK                         _______ _______ _______ _____ _____    ______ ____
ROOT
ATOM      1  C   UNL     1       5.616   5.099  16.264  0.00  0.00    +0.000 C 
ENDROOT
BRANCH   1   2
ATOM      2  N   UNL     1       4.376   4.502  16.759  0.00  0.00    +0.000 N 
ATOM      3  C   UNL     1       3.558   5.253  17.564  0.00  0.00    +0.000 C 
ATOM      4  O   UNL     1       3.870   6.399  17.901  0.00  0.00    +0.000 OA
ATOM      5  H   UNL     1       4.210   3.510  16.631  0.00  0.00    +0.000 HD
BRANCH   3   6
ATOM      6  C   UNL     1       2.237   4.608  18.040  0.00  0.00    +0.000 C 
ATOM      7  N   UNL     1       2.051   3.346  17.267  0.00  0.00    +0.000 NA
ATOM      8  C   UNL     1       1.975   2.178  18.156  0.00  0.00    +0.000 C 
ATOM      9  C   UNL     1       3.224   2.104  19.053  0.00  0.00    +0.000 C 
ATOM     10  C   UNL     1       3.306   3.348  19.947  0.00  0.00    +0.000 C 
ATOM     11  C   UNL     1       2.184   4.326  19.559  0.00  0.00    +0.000 C 
ATOM     12  C   UNL     1       0.837   3.631  19.864  0.00  0.00    +0.000 C 
ATOM     13  C   UNL     1       0.719   2.351  19.022  0.00  0.00    +0.000 C 
ATOM     14  H   UNL     1       2.874   3.244  16.657  0.00  0.00    +0.000 HD
ENDBRANCH   3   6
ENDBRANCH   1   2
BRANCH   1  16
ATOM     15  N   UNL     1       6.352   4.018  13.972  0.00  0.00    +0.000 NA
ATOM     16  C   UNL     1       6.030   4.485  14.990  0.00  0.00    +0.000 C 
ENDBRANCH   1  16
BRANCH   1  17
ATOM     17  C   UNL     1       6.748   5.019  17.311  0.00  0.00    +0.000 C 
BRANCH  17  18
ATOM     18  C   UNL     1       7.325   6.354  17.735  0.00  0.00    +0.000 A 
ATOM     19  C   UNL     1       7.096   7.518  16.999  0.00  0.00    +0.000 A 
ATOM     20  C   UNL     1       7.696   8.718  17.363  0.00  0.00    +0.000 A 
ATOM     21  C   UNL     1       8.496   8.833  18.511  0.00  0.00    +0.000 A 
ATOM     22  C   UNL     1       8.688   7.671  19.275  0.00  0.00    +0.000 A 
ATOM     23  C   UNL     1       8.111   6.449  18.892  0.00  0.00    +0.000 A 
BRANCH  21  24
ATOM     24  C   UNL     1       9.103  10.138  18.841  0.00  0.00    +0.000 A 
ATOM     25  C   UNL     1       9.590  10.972  17.812  0.00  0.00    +0.000 A 
ATOM     26  C   UNL     1      10.292  12.137  18.096  0.00  0.00    +0.000 A 
ATOM     27  F   UNL     1      10.788  12.859  17.082  0.00  0.00    +0.000 F 
ATOM     28  C   UNL     1      10.499  12.527  19.405  0.00  0.00    +0.000 A 
ATOM     29  F   UNL     1      11.196  13.638  19.677  0.00  0.00    +0.000 F 
ATOM     30  C   UNL     1       9.988  11.748  20.435  0.00  0.00    +0.000 A 
ATOM     31  F   UNL     1      10.182  12.113  21.709  0.00  0.00    +0.000 F 
ATOM     32  C   UNL     1       9.296  10.564  20.166  0.00  0.00    +0.000 A 
ENDBRANCH  21  24
ENDBRANCH  17  18
ENDBRANCH   1  17
TORSDOF 6
ENDMDL
MODEL 2
REMARK VINA RESULT:      -9.1      0.470      1.504
REMARK  Name = 
REMARK  6 active torsions:
REMARK  status: ('A' for Active; 'I' for Inactive)
REMARK    1  A    between atoms: C_2  and  C_3
REMARK    2  A    between atoms: C_3  and  C_4
REMARK    3  A    between atoms: C_3  and  N_20
REMARK    4  A    between atoms: C_4  and  C_5
REMARK    5  A    between atoms: C_8  and  C_9
REMARK    6  A    between atoms: C_21  and  C_23
REMARK                            x       y       z     vdW  Elec       q    Type
REMARK                         _______ _______ _______ _____ _____    ______ ____
ROOT
ATOM      1  C   UNL     1       5.535   5.150  16.184  0.00  0.00    +0.000 C 
ENDROOT
BRANCH   1   2
ATOM      2  N   UNL     1       4.317   4.542  16.719  0.00  0.00    +0.000 N 
ATOM      3  C   UNL     1       3.491   5.302  17.506  0.00  0.00    +0.000 C 
ATOM      4  O   UNL     1       3.778   6.468  17.795  0.00  0.00    +0.000 OA
ATOM      5  H   UNL     1       4.175   3.542  16.631  0.00  0.00    +0.000 HD
BRANCH   3   6
ATOM      6  C   UNL     1       2.193   4.644  18.025  0.00  0.00    +0.000 C 
ATOM      7  N   UNL     1       2.005   3.370  17.272  0.00  0.00    +0.000 NA
ATOM      8  C   UNL     1       1.971   2.211  18.175  0.00  0.00    +0.000 C 
ATOM      9  C   UNL     1       3.245   2.167  19.039  0.00  0.00    +0.000 C 
ATOM     10  C   UNL     1       3.332   3.422  19.916  0.00  0.00    +0.000 C 
ATOM     11  C   UNL     1       2.185   4.378  19.548  0.00  0.00    +0.000 C 
ATOM     12  C   UNL     1       0.858   3.667  19.897  0.00  0.00    +0.000 C 
ATOM     13  C   UNL     1       0.737   2.375  19.072  0.00  0.00    +0.000 C 
ATOM     14  H   UNL     1       2.814   3.274  16.641  0.00  0.00    +0.000 HD
ENDBRANCH   3   6
ENDBRANCH   1   2
BRANCH   1  16
ATOM     15  N   UNL     1       6.233   4.066  13.882  0.00  0.00    +0.000 NA
ATOM     16  C   UNL     1       5.913   4.540  14.897  0.00  0.00    +0.000 C 
ENDBRANCH   1  16
BRANCH   1  17
ATOM     17  C   UNL     1       6.701   5.082  17.194  0.00  0.00    +0.000 C 
BRANCH  17  18
ATOM     18  C   UNL     1       7.260   6.424  17.621  0.00  0.00    +0.000 A 
ATOM     19  C   UNL     1       6.961   7.597  16.924  0.00  0.00    +0.000 A 
ATOM     20  C   UNL     1       7.544   8.805  17.287  0.00  0.00    +0.000 A 
ATOM     21  C   UNL     1       8.395   8.919  18.398  0.00  0.00    +0.000 A 
ATOM     22  C   UNL     1       8.658   7.746  19.123  0.00  0.00    +0.000 A 
ATOM     23  C   UNL     1       8.098   6.516  18.740  0.00  0.00    +0.000 A 
BRANCH  21  24
ATOM     24  C   UNL     1       8.980  10.233  18.728  0.00  0.00    +0.000 A 
ATOM     25  C   UNL     1       9.548  10.455  20.001  0.00  0.00    +0.000 A 
ATOM     26  C   UNL     1       9.977  11.718  20.394  0.00  0.00    +0.000 A 
ATOM     27  F   UNL     1      10.449  11.885  21.636  0.00  0.00    +0.000 F 
ATOM     28  C   UNL     1       9.889  12.786  19.523  0.00  0.00    +0.000 A 
ATOM     29  F   UNL     1      10.281  14.007  19.911  0.00  0.00    +0.000 F 
ATOM     30  C   UNL     1       9.379  12.584  18.248  0.00  0.00    +0.000 A 
ATOM     31  F   UNL     1       9.287  13.612  17.393  0.00  0.00    +0.000 F 
ATOM     32  C   UNL     1       8.926  11.325  17.845  0.00  0.00    +0.000 A 
ENDBRANCH  21  24
ENDBRANCH  17  18
ENDBRANCH   1  17
TORSDOF 6
ENDMDL
MODEL 3
REMARK VINA RESULT:      -8.3      1.163      1.770
REMARK  Name = 
REMARK  6 active torsions:
REMARK  status: ('A' for Active; 'I' for Inactive)
REMARK    1  A    between atoms: C_2  and  C_3
REMARK    2  A    between atoms: C_3  and  C_4
REMARK    3  A    between atoms: C_3  and  N_20
REMARK    4  A    between atoms: C_4  and  C_5
REMARK    5  A    between atoms: C_8  and  C_9
REMARK    6  A    between atoms: C_21  and  C_23
REMARK                            x       y       z     vdW  Elec       q    Type
REMARK                         _______ _______ _______ _____ _____    ______ ____
ROOT
ATOM      1  C   UNL     1       5.568   4.718  16.610  0.00  0.00    +0.000 C 
ENDROOT
BRANCH   1   2
ATOM      2  N   UNL     1       4.424   4.001  17.170  0.00  0.00    +0.000 N 
ATOM      3  C   UNL     1       4.462   3.624  18.488  0.00  0.00    +0.000 C 
ATOM      4  O   UNL     1       5.454   3.847  19.188  0.00  0.00    +0.000 OA
ATOM      5  H   UNL     1       3.693   3.662  16.554  0.00  0.00    +0.000 HD
BRANCH   3   6
ATOM      6  C   UNL     1       3.222   2.902  19.061  0.00  0.00    +0.000 C 
ATOM      7  N   UNL     1       3.439   2.736  20.527  0.00  0.00    +0.000 NA
ATOM      8  C   UNL     1       2.382   3.399  21.305  0.00  0.00    +0.000 C 
ATOM      9  C   UNL     1       2.286   4.887  20.920  0.00  0.00    +0.000 C 
ATOM     10  C   UNL     1       1.912   5.025  19.439  0.00  0.00    +0.000 C 
ATOM     11  C   UNL     1       1.885   3.630  18.790  0.00  0.00    +0.000 C 
ATOM     12  C   UNL     1       0.760   2.822  19.474  0.00  0.00    +0.000 C 
ATOM     13  C   UNL     1       1.064   2.687  20.974  0.00  0.00    +0.000 C 
ATOM     14  H   UNL     1       4.341   3.180  20.748  0.00  0.00    +0.000 HD
ENDBRANCH   3   6
ENDBRANCH   1   2
BRANCH   1  16
ATOM     15  N   UNL     1       6.239   3.729  14.257  0.00  0.00    +0.000 NA
ATOM     16  C   UNL     1       5.955   4.164  15.300  0.00  0.00    +0.000 C 
ENDBRANCH   1  16
BRANCH   1  17
ATOM     17  C   UNL     1       6.769   4.730  17.582  0.00  0.00    +0.000 C 
BRANCH  17  18
ATOM     18  C   UNL     1       7.355   6.100  17.861  0.00  0.00    +0.000 A 
ATOM     19  C   UNL     1       8.176   6.334  18.965  0.00  0.00    +0.000 A 
ATOM     20  C   UNL     1       8.641   7.614  19.244  0.00  0.00    +0.000 A 
ATOM     21  C   UNL     1       8.370   8.705  18.404  0.00  0.00    +0.000 A 
ATOM     22  C   UNL     1       7.582   8.457  17.269  0.00  0.00    +0.000 A 
ATOM     23  C   UNL     1       7.081   7.172  17.002  0.00  0.00    +0.000 A 
BRANCH  21  24
ATOM     24  C   UNL     1       8.896  10.038  18.759  0.00  0.00    +0.000 A 
ATOM     25  C   UNL     1       9.090  11.012  17.755  0.00  0.00    +0.000 A 
ATOM     26  C   UNL     1       9.715  12.223  18.032  0.00  0.00    +0.000 A 
ATOM     27  F   UNL     1       9.931  13.085  17.030  0.00  0.00    +0.000 F 
ATOM     28  C   UNL     1      10.131  12.516  19.316  0.00  0.00    +0.000 A 
ATOM     29  F   UNL     1      10.754  13.673  19.575  0.00  0.00    +0.000 F 
ATOM     30  C   UNL     1       9.908  11.594  20.330  0.00  0.00    +0.000 A 
ATOM     31  F   UNL     1      10.308  11.866  21.580  0.00  0.00    +0.000 F 
ATOM     32  C   UNL     1       9.299  10.366  20.064  0.00  0.00    +0.000 A 
ENDBRANCH  21  24
ENDBRANCH  17  18
ENDBRANCH   1  17
TORSDOF 6
ENDMDL
MODEL 4
REMARK VINA RESULT:      -8.1      5.460      8.013
REMARK  Name = 
REMARK  6 active torsions:
REMARK  status: ('A' for Active; 'I' for Inactive)
REMARK    1  A    between atoms: C_2  and  C_3
REMARK    2  A    between atoms: C_3  and  C_4
REMARK    3  A    between atoms: C_3  and  N_20
REMARK    4  A    between atoms: C_4  and  C_5
REMARK    5  A    between atoms: C_8  and  C_9
REMARK    6  A    between atoms: C_21  and  C_23
REMARK                            x       y       z     vdW  Elec       q    Type
REMARK                         _______ _______ _______ _____ _____    ______ ____
ROOT
ATOM      1  C   UNL     1       2.059   5.558  20.067  0.00  0.00    +0.000 C 
ENDROOT
BRANCH   1   2
ATOM      2  N   UNL     1       1.643   6.559  21.049  0.00  0.00    +0.000 N 
ATOM      3  C   UNL     1       1.589   7.875  20.668  0.00  0.00    +0.000 C 
ATOM      4  O   UNL     1       1.918   8.224  19.531  0.00  0.00    +0.000 OA
ATOM      5  H   UNL     1       1.549   6.297  22.024  0.00  0.00    +0.000 HD
BRANCH   3   6
ATOM      6  C   UNL     1       1.111   8.904  21.716  0.00  0.00    +0.000 C 
ATOM      7  N   UNL     1       1.572  10.249  21.266  0.00  0.00    +0.000 NA
ATOM      8  C   UNL     1       0.441  11.167  21.066  0.00  0.00    +0.000 C 
ATOM      9  C   UNL     1      -0.570  10.563  20.076  0.00  0.00    +0.000 C 
ATOM     10  C   UNL     1      -1.142   9.255  20.636  0.00  0.00    +0.000 C 
ATOM     11  C   UNL     1      -0.418   8.906  21.947  0.00  0.00    +0.000 C 
ATOM     12  C   UNL     1      -0.740  10.021  22.967  0.00  0.00    +0.000 C 
ATOM     13  C   UNL     1      -0.223  11.367  22.435  0.00  0.00    +0.000 C 
ATOM     14  H   UNL     1       2.052  10.114  20.364  0.00  0.00    +0.000 HD
ENDBRANCH   3   6
ENDBRANCH   1   2
BRANCH   1  16
ATOM     15  N   UNL     1       0.949   3.221  20.590  0.00  0.00    +0.000 NA
ATOM     16  C   UNL     1       1.447   4.247  20.352  0.00  0.00    +0.000 C 
ENDBRANCH   1  16
BRANCH   1  17
ATOM     17  C   UNL     1       3.596   5.444  19.980  0.00  0.00    +0.000 C 
BRANCH  17  18
ATOM     18  C   UNL     1       4.147   5.261  18.580  0.00  0.00    +0.000 A 
ATOM     19  C   UNL     1       4.270   3.997  18.001  0.00  0.00    +0.000 A 
ATOM     20  C   UNL     1       4.847   3.845  16.746  0.00  0.00    +0.000 A 
ATOM     21  C   UNL     1       5.268   4.944  15.980  0.00  0.00    +0.000 A 
ATOM     22  C   UNL     1       5.102   6.217  16.547  0.00  0.00    +0.000 A 
ATOM     23  C   UNL     1       4.549   6.374  17.829  0.00  0.00    +0.000 A 
BRANCH  21  24
ATOM     24  C   UNL     1       5.873   4.712  14.654  0.00  0.00    +0.000 A 
ATOM     25  C   UNL     1       5.333   3.733  13.792  0.00  0.00    +0.000 A 
ATOM     26  C   UNL     1       5.961   3.391  12.600  0.00  0.00    +0.000 A 
ATOM     27  F   UNL     1       5.441   2.411  11.850  0.00  0.00    +0.000 F 
ATOM     28  C   UNL     1       7.120   4.036  12.212  0.00  0.00    +0.000 A 
ATOM     29  F   UNL     1       7.737   3.688  11.075  0.00  0.00    +0.000 F 
ATOM     30  C   UNL     1       7.645   5.036  13.020  0.00  0.00    +0.000 A 
ATOM     31  F   UNL     1       8.769   5.668  12.656  0.00  0.00    +0.000 F 
ATOM     32  C   UNL     1       7.035   5.377  14.229  0.00  0.00    +0.000 A 
ENDBRANCH  21  24
ENDBRANCH  17  18
ENDBRANCH   1  17
TORSDOF 6
ENDMDL
MODEL 5
REMARK VINA RESULT:      -8.0      7.314      9.691
REMARK  Name = 
REMARK  6 active torsions:
REMARK  status: ('A' for Active; 'I' for Inactive)
REMARK    1  A    between atoms: C_2  and  C_3
REMARK    2  A    between atoms: C_3  and  C_4
REMARK    3  A    between atoms: C_3  and  N_20
REMARK    4  A    between atoms: C_4  and  C_5
REMARK    5  A    between atoms: C_8  and  C_9
REMARK    6  A    between atoms: C_21  and  C_23
REMARK                            x       y       z     vdW  Elec       q    Type
REMARK                         _______ _______ _______ _____ _____    ______ ____
ROOT
ATOM      1  C   UNL     1       1.275  11.444  18.967  0.00  0.00    +0.000 C 
ENDROOT
BRANCH   1   2
ATOM      2  N   UNL     1       0.041  11.749  18.245  0.00  0.00    +0.000 N 
ATOM      3  C   UNL     1      -1.160  11.478  18.848  0.00  0.00    +0.000 C 
ATOM      4  O   UNL     1      -1.211  10.951  19.963  0.00  0.00    +0.000 OA
ATOM      5  H   UNL     1       0.083  12.011  17.266  0.00  0.00    +0.000 HD
BRANCH   3   6
ATOM      6  C   UNL     1      -2.447  11.846  18.076  0.00  0.00    +0.000 C 
ATOM      7  N   UNL     1      -2.085  11.965  16.634  0.00  0.00    +0.000 NA
ATOM      8  C   UNL     1      -2.851  11.022  15.807  0.00  0.00    +0.000 C 
ATOM      9  C   UNL     1      -2.655   9.582  16.315  0.00  0.00    +0.000 C 
ATOM     10  C   UNL     1      -3.177   9.453  17.751  0.00  0.00    +0.000 C 
ATOM     11  C   UNL     1      -3.605  10.839  18.261  0.00  0.00    +0.000 C 
ATOM     12  C   UNL     1      -4.787  11.311  17.385  0.00  0.00    +0.000 C 
ATOM     13  C   UNL     1      -4.329  11.419  15.922  0.00  0.00    +0.000 C 
ATOM     14  H   UNL     1      -1.084  11.735  16.556  0.00  0.00    +0.000 HD
ENDBRANCH   3   6
ENDBRANCH   1   2
BRANCH   1  16
ATOM     15  N   UNL     1       2.350  13.644  19.950  0.00  0.00    +0.000 NA
ATOM     16  C   UNL     1       1.882  12.666  19.525  0.00  0.00    +0.000 C 
ENDBRANCH   1  16
BRANCH   1  17
ATOM     17  C   UNL     1       2.283  10.680  18.081  0.00  0.00    +0.000 C 
BRANCH  17  18
ATOM     18  C   UNL     1       2.376   9.191  18.352  0.00  0.00    +0.000 A 
ATOM     19  C   UNL     1       3.094   8.337  17.512  0.00  0.00    +0.000 A 
ATOM     20  C   UNL     1       3.104   6.966  17.737  0.00  0.00    +0.000 A 
ATOM     21  C   UNL     1       2.459   6.386  18.841  0.00  0.00    +0.000 A 
ATOM     22  C   UNL     1       1.776   7.253  19.708  0.00  0.00    +0.000 A 
ATOM     23  C   UNL     1       1.735   8.636  19.467  0.00  0.00    +0.000 A 
BRANCH  21  24
ATOM     24  C   UNL     1       2.510   4.921  19.020  0.00  0.00    +0.000 A 
ATOM     25  C   UNL     1       3.712   4.299  19.417  0.00  0.00    +0.000 A 
ATOM     26  C   UNL     1       3.833   2.914  19.457  0.00  0.00    +0.000 A 
ATOM     27  F   UNL     1       5.016   2.375  19.779  0.00  0.00    +0.000 F 
ATOM     28  C   UNL     1       2.754   2.111  19.141  0.00  0.00    +0.000 A 
ATOM     29  F   UNL     1       2.879   0.777  19.158  0.00  0.00    +0.000 F 
ATOM     30  C   UNL     1       1.546   2.700  18.795  0.00  0.00    +0.000 A 
ATOM     31  F   UNL     1       0.492   1.932  18.485  0.00  0.00    +0.000 F 
ATOM     32  C   UNL     1       1.415   4.089  18.732  0.00  0.00    +0.000 A 
ENDBRANCH  21  24
ENDBRANCH  17  18
ENDBRANCH   1  17
TORSDOF 6
ENDMDL
MODEL 6
REMARK VINA RESULT:      -8.0      8.530     10.610
REMARK  Name = 
REMARK  6 active torsions:
REMARK  status: ('A' for Active; 'I' for Inactive)
REMARK    1  A    between atoms: C_2  and  C_3
REMARK    2  A    between atoms: C_3  and  C_4
REMARK    3  A    between atoms: C_3  and  N_20
REMARK    4  A    between atoms: C_4  and  C_5
REMARK    5  A    between atoms: C_8  and  C_9
REMARK    6  A    between atoms: C_21  and  C_23
REMARK                            x       y       z     vdW  Elec       q    Type
REMARK                         _______ _______ _______ _____ _____    ______ ____
ROOT
ATOM      1  C   UNL     1       0.263  11.782  20.697  0.00  0.00    +0.000 C 
ENDROOT
BRANCH   1   2
ATOM      2  N   UNL     1      -1.147  12.101  20.915  0.00  0.00    +0.000 N 
ATOM      3  C   UNL     1      -1.658  11.998  22.183  0.00  0.00    +0.000 C 
ATOM      4  O   UNL     1      -0.960  11.608  23.124  0.00  0.00    +0.000 OA
ATOM      5  H   UNL     1      -1.759  12.245  20.119  0.00  0.00    +0.000 HD
BRANCH   3   6
ATOM      6  C   UNL     1      -3.141  12.378  22.389  0.00  0.00    +0.000 C 
ATOM      7  N   UNL     1      -3.503  12.026  23.793  0.00  0.00    +0.000 NA
ATOM      8  C   UNL     1      -3.957  13.206  24.544  0.00  0.00    +0.000 C 
ATOM      9  C   UNL     1      -2.886  14.311  24.503  0.00  0.00    +0.000 C 
ATOM     10  C   UNL     1      -2.645  14.760  23.057  0.00  0.00    +0.000 C 
ATOM     11  C   UNL     1      -3.458  13.865  22.106  0.00  0.00    +0.000 C 
ATOM     12  C   UNL     1      -4.954  14.098  22.415  0.00  0.00    +0.000 C 
ATOM     13  C   UNL     1      -5.244  13.700  23.871  0.00  0.00    +0.000 C 
ATOM     14  H   UNL     1      -2.650  11.658  24.238  0.00  0.00    +0.000 HD
ENDBRANCH   3   6
ENDBRANCH   1   2
BRANCH   1  16
ATOM     15  N   UNL     1       1.760  13.952  20.817  0.00  0.00    +0.000 NA
ATOM     16  C   UNL     1       1.098  12.995  20.752  0.00  0.00    +0.000 C 
ENDBRANCH   1  16
BRANCH   1  17
ATOM     17  C   UNL     1       0.479  11.020  19.371  0.00  0.00    +0.000 C 
BRANCH  17  18
ATOM     18  C   UNL     1       1.105   9.647  19.515  0.00  0.00    +0.000 A 
ATOM     19  C   UNL     1       1.792   9.042  18.461  0.00  0.00    +0.000 A 
ATOM     20  C   UNL     1       2.293   7.751  18.589  0.00  0.00    +0.000 A 
ATOM     21  C   UNL     1       2.195   7.030  19.790  0.00  0.00    +0.000 A 
ATOM     22  C   UNL     1       1.544   7.659  20.862  0.00  0.00    +0.000 A 
ATOM     23  C   UNL     1       1.006   8.950  20.726  0.00  0.00    +0.000 A 
BRANCH  21  24
ATOM     24  C   UNL     1       2.750   5.663  19.858  0.00  0.00    +0.000 A 
ATOM     25  C   UNL     1       4.038   5.396  19.345  0.00  0.00    +0.000 A 
ATOM     26  C   UNL     1       4.531   4.099  19.265  0.00  0.00    +0.000 A 
ATOM     27  F   UNL     1       5.733   3.895  18.711  0.00  0.00    +0.000 F 
ATOM     28  C   UNL     1       3.778   3.036  19.726  0.00  0.00    +0.000 A 
ATOM     29  F   UNL     1       4.245   1.785  19.626  0.00  0.00    +0.000 F 
ATOM     30  C   UNL     1       2.528   3.278  20.279  0.00  0.00    +0.000 A 
ATOM     31  F   UNL     1       1.786   2.257  20.728  0.00  0.00    +0.000 F 
ATOM     32  C   UNL     1       2.011   4.574  20.349  0.00  0.00    +0.000 A 
ENDBRANCH  21  24
ENDBRANCH  17  18
ENDBRANCH   1  17
TORSDOF 6
ENDMDL
MODEL 7
REMARK VINA RESULT:      -7.9      8.603     10.777
REMARK  Name = 
REMARK  6 active torsions:
REMARK  status: ('A' for Active; 'I' for Inactive)
REMARK    1  A    between atoms: C_2  and  C_3
REMARK    2  A    between atoms: C_3  and  C_4
REMARK    3  A    between atoms: C_3  and  N_20
REMARK    4  A    between atoms: C_4  and  C_5
REMARK    5  A    between atoms: C_8  and  C_9
REMARK    6  A    between atoms: C_21  and  C_23
REMARK                            x       y       z     vdW  Elec       q    Type
REMARK                         _______ _______ _______ _____ _____    ______ ____
ROOT
ATOM      1  C   UNL     1       0.387  12.222  20.803  0.00  0.00    +0.000 C 
ENDROOT
BRANCH   1   2
ATOM      2  N   UNL     1      -1.052  12.407  20.986  0.00  0.00    +0.000 N 
ATOM      3  C   UNL     1      -1.603  12.121  22.208  0.00  0.00    +0.000 C 
ATOM      4  O   UNL     1      -0.915  11.679  23.133  0.00  0.00    +0.000 OA
ATOM      5  H   UNL     1      -1.640  12.595  20.182  0.00  0.00    +0.000 HD
BRANCH   3   6
ATOM      6  C   UNL     1      -3.119  12.362  22.382  0.00  0.00    +0.000 C 
ATOM      7  N   UNL     1      -3.481  11.954  23.771  0.00  0.00    +0.000 NA
ATOM      8  C   UNL     1      -4.058  13.075  24.527  0.00  0.00    +0.000 C 
ATOM      9  C   UNL     1      -3.091  14.273  24.531  0.00  0.00    +0.000 C 
ATOM     10  C   UNL     1      -2.857  14.767  23.098  0.00  0.00    +0.000 C 
ATOM     11  C   UNL     1      -3.562  13.819  22.113  0.00  0.00    +0.000 C 
ATOM     12  C   UNL     1      -5.080  13.910  22.387  0.00  0.00    +0.000 C 
ATOM     13  C   UNL     1      -5.369  13.463  23.829  0.00  0.00    +0.000 C 
ATOM     14  H   UNL     1      -2.609  11.658  24.232  0.00  0.00    +0.000 HD
ENDBRANCH   3   6
ENDBRANCH   1   2
BRANCH   1  16
ATOM     15  N   UNL     1       1.675  14.504  21.116  0.00  0.00    +0.000 NA
ATOM     16  C   UNL     1       1.112  13.495  20.967  0.00  0.00    +0.000 C 
ENDBRANCH   1  16
BRANCH   1  17
ATOM     17  C   UNL     1       0.713  11.570  19.441  0.00  0.00    +0.000 C 
BRANCH  17  18
ATOM     18  C   UNL     1       1.122  10.113  19.509  0.00  0.00    +0.000 A 
ATOM     19  C   UNL     1       0.940   9.354  20.667  0.00  0.00    +0.000 A 
ATOM     20  C   UNL     1       1.391   8.041  20.733  0.00  0.00    +0.000 A 
ATOM     21  C   UNL     1       1.981   7.399  19.632  0.00  0.00    +0.000 A 
ATOM     22  C   UNL     1       2.120   8.151  18.455  0.00  0.00    +0.000 A 
ATOM     23  C   UNL     1       1.697   9.488  18.394  0.00  0.00    +0.000 A 
BRANCH  21  24
ATOM     24  C   UNL     1       2.436   6.002  19.769  0.00  0.00    +0.000 A 
ATOM     25  C   UNL     1       1.744   5.112  20.619  0.00  0.00    +0.000 A 
ATOM     26  C   UNL     1       2.228   3.835  20.880  0.00  0.00    +0.000 A 
ATOM     27  F   UNL     1       1.565   3.055  21.743  0.00  0.00    +0.000 F 
ATOM     28  C   UNL     1       3.390   3.393  20.278  0.00  0.00    +0.000 A 
ATOM     29  F   UNL     1       3.867   2.171  20.549  0.00  0.00    +0.000 F 
ATOM     30  C   UNL     1       4.064   4.232  19.401  0.00  0.00    +0.000 A 
ATOM     31  F   UNL     1       5.192   3.816  18.812  0.00  0.00    +0.000 F 
ATOM     32  C   UNL     1       3.600   5.524  19.143  0.00  0.00    +0.000 A 
ENDBRANCH  21  24
ENDBRANCH  17  18
ENDBRANCH   1  17
TORSDOF 6
ENDMDL
MODEL 8
REMARK VINA RESULT:      -7.9      8.419     10.231
REMARK  Name = 
REMARK  6 active torsions:
REMARK  status: ('A' for Active; 'I' for Inactive)
REMARK    1  A    between atoms: C_2  and  C_3
REMARK    2  A    between atoms: C_3  and  C_4
REMARK    3  A    between atoms: C_3  and  N_20
REMARK    4  A    between atoms: C_4  and  C_5
REMARK    5  A    between atoms: C_8  and  C_9
REMARK    6  A    between atoms: C_21  and  C_23
REMARK                            x       y       z     vdW  Elec       q    Type
REMARK                         _______ _______ _______ _____ _____    ______ ____
ROOT
ATOM      1  C   UNL     1       0.702  12.055  20.881  0.00  0.00    +0.000 C 
ENDROOT
BRANCH   1   2
ATOM      2  N   UNL     1      -0.274  12.932  21.526  0.00  0.00    +0.000 N 
ATOM      3  C   UNL     1      -0.849  12.527  22.703  0.00  0.00    +0.000 C 
ATOM      4  O   UNL     1      -0.583  11.429  23.200  0.00  0.00    +0.000 OA
ATOM      5  H   UNL     1      -0.624  13.744  21.030  0.00  0.00    +0.000 HD
BRANCH   3   6
ATOM      6  C   UNL     1      -1.848  13.492  23.380  0.00  0.00    +0.000 C 
ATOM      7  N   UNL     1      -1.846  14.760  22.595  0.00  0.00    +0.000 NA
ATOM      8  C   UNL     1      -3.183  15.069  22.068  0.00  0.00    +0.000 C 
ATOM      9  C   UNL     1      -3.711  13.893  21.226  0.00  0.00    +0.000 C 
ATOM     10  C   UNL     1      -3.847  12.639  22.098  0.00  0.00    +0.000 C 
ATOM     11  C   UNL     1      -3.284  12.932  23.499  0.00  0.00    +0.000 C 
ATOM     12  C   UNL     1      -4.168  14.029  24.134  0.00  0.00    +0.000 C 
ATOM     13  C   UNL     1      -4.102  15.302  23.275  0.00  0.00    +0.000 C 
ATOM     14  H   UNL     1      -1.202  14.622  21.804  0.00  0.00    +0.000 HD
ENDBRANCH   3   6
ENDBRANCH   1   2
BRANCH   1  16
ATOM     15  N   UNL     1       2.648  13.460  19.784  0.00  0.00    +0.000 NA
ATOM     16  C   UNL     1       1.798  12.833  20.275  0.00  0.00    +0.000 C 
ENDBRANCH   1  16
BRANCH   1  17
ATOM     17  C   UNL     1       0.039  11.126  19.840  0.00  0.00    +0.000 C 
BRANCH  17  18
ATOM     18  C   UNL     1       0.893   9.959  19.386  0.00  0.00    +0.000 A 
ATOM     19  C   UNL     1       1.456   9.917  18.109  0.00  0.00    +0.000 A 
ATOM     20  C   UNL     1       2.173   8.803  17.687  0.00  0.00    +0.000 A 
ATOM     21  C   UNL     1       2.421   7.711  18.533  0.00  0.00    +0.000 A 
ATOM     22  C   UNL     1       1.892   7.777  19.832  0.00  0.00    +0.000 A 
ATOM     23  C   UNL     1       1.138   8.885  20.252  0.00  0.00    +0.000 A 
BRANCH  21  24
ATOM     24  C   UNL     1       3.191   6.560  18.021  0.00  0.00    +0.000 A 
ATOM     25  C   UNL     1       4.357   6.774  17.255  0.00  0.00    +0.000 A 
ATOM     26  C   UNL     1       5.023   5.720  16.640  0.00  0.00    +0.000 A 
ATOM     27  F   UNL     1       6.088   5.985  15.872  0.00  0.00    +0.000 F 
ATOM     28  C   UNL     1       4.573   4.423  16.798  0.00  0.00    +0.000 A 
ATOM     29  F   UNL     1       5.203   3.412  16.185  0.00  0.00    +0.000 F 
ATOM     30  C   UNL     1       3.456   4.182  17.586  0.00  0.00    +0.000 A 
ATOM     31  F   UNL     1       3.009   2.929  17.746  0.00  0.00    +0.000 F 
ATOM     32  C   UNL     1       2.765   5.233  18.195  0.00  0.00    +0.000 A 
ENDBRANCH  21  24
ENDBRANCH  17  18
ENDBRANCH   1  17
TORSDOF 6
ENDMDL
MODEL 9
REMARK VINA RESULT:      -7.9      1.110      2.079
REMARK  Name = 
REMARK  6 active torsions:
REMARK  status: ('A' for Active; 'I' for Inactive)
REMARK    1  A    between atoms: C_2  and  C_3
REMARK    2  A    between atoms: C_3  and  C_4
REMARK    3  A    between atoms: C_3  and  N_20
REMARK    4  A    between atoms: C_4  and  C_5
REMARK    5  A    between atoms: C_8  and  C_9
REMARK    6  A    between atoms: C_21  and  C_23
REMARK                            x       y       z     vdW  Elec       q    Type
REMARK                         _______ _______ _______ _____ _____    ______ ____
ROOT
ATOM      1  C   UNL     1       5.650   5.157  16.399  0.00  0.00    +0.000 C 
ENDROOT
BRANCH   1   2
ATOM      2  N   UNL     1       4.524   4.367  16.893  0.00  0.00    +0.000 N 
ATOM      3  C   UNL     1       4.599   3.824  18.149  0.00  0.00    +0.000 C 
ATOM      4  O   UNL     1       5.609   3.962  18.846  0.00  0.00    +0.000 OA
ATOM      5  H   UNL     1       3.777   4.106  16.258  0.00  0.00    +0.000 HD
BRANCH   3   6
ATOM      6  C   UNL     1       3.377   3.027  18.658  0.00  0.00    +0.000 C 
ATOM      7  N   UNL     1       3.545   2.840  20.128  0.00  0.00    +0.000 NA
ATOM      8  C   UNL     1       2.426   3.431  20.877  0.00  0.00    +0.000 C 
ATOM      9  C   UNL     1       2.267   4.919  20.517  0.00  0.00    +0.000 C 
ATOM     10  C   UNL     1       1.944   5.071  19.026  0.00  0.00    +0.000 C 
ATOM     11  C   UNL     1       2.016   3.691  18.349  0.00  0.00    +0.000 C 
ATOM     12  C   UNL     1       0.908   2.811  18.971  0.00  0.00    +0.000 C 
ATOM     13  C   UNL     1       1.160   2.659  20.479  0.00  0.00    +0.000 C 
ATOM     14  H   UNL     1       4.414   3.326  20.394  0.00  0.00    +0.000 HD
ENDBRANCH   3   6
ENDBRANCH   1   2
BRANCH   1  16
ATOM     15  N   UNL     1       6.361   4.396  13.974  0.00  0.00    +0.000 NA
ATOM     16  C   UNL     1       6.054   4.723  15.049  0.00  0.00    +0.000 C 
ENDBRANCH   1  16
BRANCH   1  17
ATOM     17  C   UNL     1       6.848   5.120  17.374  0.00  0.00    +0.000 C 
BRANCH  17  18
ATOM     18  C   UNL     1       7.389   6.477  17.778  0.00  0.00    +0.000 A 
ATOM     19  C   UNL     1       7.092   7.630  17.048  0.00  0.00    +0.000 A 
ATOM     20  C   UNL     1       7.660   8.852  17.392  0.00  0.00    +0.000 A 
ATOM     21  C   UNL     1       8.492   8.998  18.513  0.00  0.00    +0.000 A 
ATOM     22  C   UNL     1       8.752   7.845  19.270  0.00  0.00    +0.000 A 
ATOM     23  C   UNL     1       8.208   6.602  18.908  0.00  0.00    +0.000 A 
BRANCH  21  24
ATOM     24  C   UNL     1       9.061  10.325  18.821  0.00  0.00    +0.000 A 
ATOM     25  C   UNL     1       9.490  10.623  20.133  0.00  0.00    +0.000 A 
ATOM     26  C   UNL     1       9.897  11.904  20.488  0.00  0.00    +0.000 A 
ATOM     27  F   UNL     1      10.233  12.147  21.762  0.00  0.00    +0.000 F 
ATOM     28  C   UNL     1       9.924  12.914  19.547  0.00  0.00    +0.000 A 
ATOM     29  F   UNL     1      10.294  14.153  19.897  0.00  0.00    +0.000 F 
ATOM     30  C   UNL     1       9.553  12.635  18.238  0.00  0.00    +0.000 A 
ATOM     31  F   UNL     1       9.574  13.606  17.316  0.00  0.00    +0.000 F 
ATOM     32  C   UNL     1       9.124  11.357  17.870  0.00  0.00    +0.000 A 
ENDBRANCH  21  24
ENDBRANCH  17  18
ENDBRANCH   1  17
TORSDOF 6
ENDMDL
