MODEL 1
REMARK VINA RESULT:      -6.8      0.000      0.000
REMARK  Name = 
REMARK  10 active torsions:
REMARK  status: ('A' for Active; 'I' for Inactive)
REMARK    1  A    between atoms: C_1  and  N_2
REMARK    2  A    between atoms: C_3  and  C_5
REMARK    3  A    between atoms: C_10  and  N_11
REMARK    4  A    between atoms: N_11  and  C_12
REMARK    5  A    between atoms: N_11  and  C_13
REMARK    6  A    between atoms: N_16  and  S_17
REMARK    7  A    between atoms: S_17  and  C_20
REMARK    8  A    between atoms: C_20  and  C_21
REMARK    9  A    between atoms: C_21  and  C_22
REMARK   10  A    between atoms: C_21  and  C_23
REMARK                            x       y       z     vdW  Elec       q    Type
REMARK                         _______ _______ _______ _____ _____    ______ ____
ROOT
ATOM      1  C   UNL     1       2.110   5.747  20.045  0.00  0.00    +0.000 A 
ATOM      2  C   UNL     1       1.596   6.834  20.764  0.00  0.00    +0.000 A 
ATOM      3  C   UNL     1       1.596   8.089  20.179  0.00  0.00    +0.000 A 
ATOM      4  C   UNL     1       2.127   8.167  18.891  0.00  0.00    +0.000 A 
ATOM      5  N   UNL     1       2.547   7.069  18.149  0.00  0.00    +0.000 NA
ATOM      6  C   UNL     1       2.467   5.833  18.700  0.00  0.00    +0.000 A 
ATOM      7  C   UNL     1       2.169   9.521  18.227  0.00  0.00    +0.000 C 
ATOM      8  C   UNL     1       0.766  10.013  17.871  0.00  0.00    +0.000 C 
ATOM      9  N   UNL     1       0.045  10.700  19.018  0.00  0.00    +0.000 NA
ATOM     10  C   UNL     1      -0.263   9.781  20.166  0.00  0.00    +0.000 C 
ATOM     11  C   UNL     1       0.982   9.272  20.889  0.00  0.00    +0.000 C 
ENDROOT
BRANCH   1  14
ATOM     12  C   UNL     1       3.354   2.292  21.241  0.00  0.00    +0.000 C 
ATOM     13  N   UNL     1       3.192   3.691  20.825  0.00  0.00    +0.000 N 
ATOM     14  C   UNL     1       2.036   4.432  20.663  0.00  0.00    +0.000 C 
ATOM     15  O   UNL     1       0.895   4.049  20.828  0.00  0.00    +0.000 OA
ATOM     16  H   UNL     1       4.020   4.101  20.420  0.00  0.00    +0.000 HD
ENDBRANCH   1  14
BRANCH   6  17
ATOM     17  N   UNL     1       2.701   4.644  17.977  0.00  0.00    +0.000 N 
ATOM     18  C   UNL     1       3.914   4.484  17.201  0.00  0.00    +0.000 C 
ATOM     19  C   UNL     1       1.547   3.991  17.321  0.00  0.00    +0.000 C 
ENDBRANCH   6  17
BRANCH   9  20
ATOM     20  S   UNL     1      -1.429  11.460  18.452  0.00  0.00    +0.000 S 
ATOM     21  O   UNL     1      -2.349  11.515  19.554  0.00  0.00    +0.000 OA
ATOM     22  O   UNL     1      -0.992  12.668  17.777  0.00  0.00    +0.000 OA
BRANCH  20  23
ATOM     23  C   UNL     1      -2.061  10.277  17.248  0.00  0.00    +0.000 C 
BRANCH  23  24
ATOM     24  C   UNL     1      -2.855  10.998  16.084  0.00  0.00    +0.000 C 
ATOM     25  C   UNL     1      -2.969  10.137  14.842  0.00  0.00    +0.000 C 
ATOM     26  C   UNL     1      -4.259  11.381  16.565  0.00  0.00    +0.000 C 
ENDBRANCH  23  24
ENDBRANCH  20  23
ENDBRANCH   9  20
TORSDOF 5
ENDMDL
MODEL 2
REMARK VINA RESULT:      -6.5      3.280      4.791
REMARK  Name = 
REMARK  10 active torsions:
REMARK  status: ('A' for Active; 'I' for Inactive)
REMARK    1  A    between atoms: C_1  and  N_2
REMARK    2  A    between atoms: C_3  and  C_5
REMARK    3  A    between atoms: C_10  and  N_11
REMARK    4  A    between atoms: N_11  and  C_12
REMARK    5  A    between atoms: N_11  and  C_13
REMARK    6  A    between atoms: N_16  and  S_17
REMARK    7  A    between atoms: S_17  and  C_20
REMARK    8  A    between atoms: C_20  and  C_21
REMARK    9  A    between atoms: C_21  and  C_22
REMARK   10  A    between atoms: C_21  and  C_23
REMARK                            x       y       z     vdW  Elec       q    Type
REMARK                         _______ _______ _______ _____ _____    ______ ____
ROOT
ATOM      1  C   UNL     1       4.245   6.560  17.464  0.00  0.00    +0.000 A 
ATOM      2  C   UNL     1       3.316   7.600  17.324  0.00  0.00    +0.000 A 
ATOM      3  C   UNL     1       2.289   7.714  18.247  0.00  0.00    +0.000 A 
ATOM      4  C   UNL     1       2.265   6.756  19.260  0.00  0.00    +0.000 A 
ATOM      5  N   UNL     1       3.243   5.787  19.447  0.00  0.00    +0.000 NA
ATOM      6  C   UNL     1       4.290   5.733  18.585  0.00  0.00    +0.000 A 
ATOM      7  C   UNL     1       1.148   6.829  20.272  0.00  0.00    +0.000 C 
ATOM      8  C   UNL     1       1.298   8.048  21.182  0.00  0.00    +0.000 C 
ATOM      9  N   UNL     1       0.728   9.329  20.597  0.00  0.00    +0.000 NA
ATOM     10  C   UNL     1       1.457   9.802  19.372  0.00  0.00    +0.000 C 
ATOM     11  C   UNL     1       1.312   8.863  18.176  0.00  0.00    +0.000 C 
ENDROOT
BRANCH   1  14
ATOM     12  C   UNL     1       6.563   5.049  14.770  0.00  0.00    +0.000 C 
ATOM     13  N   UNL     1       5.463   5.420  15.668  0.00  0.00    +0.000 N 
ATOM     14  C   UNL     1       5.347   6.507  16.515  0.00  0.00    +0.000 C 
ATOM     15  O   UNL     1       6.169   7.384  16.693  0.00  0.00    +0.000 OA
ATOM     16  H   UNL     1       4.792   4.683  15.828  0.00  0.00    +0.000 HD
ENDBRANCH   1  14
BRANCH   6  17
ATOM     17  N   UNL     1       5.416   4.909  18.783  0.00  0.00    +0.000 N 
ATOM     18  C   UNL     1       5.253   3.517  19.151  0.00  0.00    +0.000 C 
ATOM     19  C   UNL     1       6.608   5.503  19.427  0.00  0.00    +0.000 C 
ENDBRANCH   6  17
BRANCH   9  20
ATOM     20  S   UNL     1       0.702  10.599  21.803  0.00  0.00    +0.000 S 
ATOM     21  O   UNL     1       0.861   9.986  23.093  0.00  0.00    +0.000 OA
ATOM     22  O   UNL     1       1.646  11.591  21.322  0.00  0.00    +0.000 OA
BRANCH  20  23
ATOM     23  C   UNL     1      -0.978  11.240  21.685  0.00  0.00    +0.000 C 
BRANCH  23  24
ATOM     24  C   UNL     1      -1.341  12.156  22.924  0.00  0.00    +0.000 C 
ATOM     25  C   UNL     1      -0.865  13.584  22.747  0.00  0.00    +0.000 C 
ATOM     26  C   UNL     1      -2.856  12.152  23.153  0.00  0.00    +0.000 C 
ENDBRANCH  23  24
ENDBRANCH  20  23
ENDBRANCH   9  20
TORSDOF 5
ENDMDL
MODEL 3
REMARK VINA RESULT:      -6.3      3.076      4.308
REMARK  Name = 
REMARK  10 active torsions:
REMARK  status: ('A' for Active; 'I' for Inactive)
REMARK    1  A    between atoms: C_1  and  N_2
REMARK    2  A    between atoms: C_3  and  C_5
REMARK    3  A    between atoms: C_10  and  N_11
REMARK    4  A    between atoms: N_11  and  C_12
REMARK    5  A    between atoms: N_11  and  C_13
REMARK    6  A    between atoms: N_16  and  S_17
REMARK    7  A    between atoms: S_17  and  C_20
REMARK    8  A    between atoms: C_20  and  C_21
REMARK    9  A    between atoms: C_21  and  C_22
REMARK   10  A    between atoms: C_21  and  C_23
REMARK                            x       y       z     vdW  Elec       q    Type
REMARK                         _______ _______ _______ _____ _____    ______ ____
ROOT
ATOM      1  C   UNL     1       4.304   6.508  17.454  0.00  0.00    +0.000 A 
ATOM      2  C   UNL     1       3.361   7.529  17.273  0.00  0.00    +0.000 A 
ATOM      3  C   UNL     1       2.327   7.660  18.184  0.00  0.00    +0.000 A 
ATOM      4  C   UNL     1       2.309   6.738  19.230  0.00  0.00    +0.000 A 
ATOM      5  N   UNL     1       3.299   5.790  19.456  0.00  0.00    +0.000 NA
ATOM      6  C   UNL     1       4.352   5.721  18.604  0.00  0.00    +0.000 A 
ATOM      7  C   UNL     1       1.183   6.830  20.231  0.00  0.00    +0.000 C 
ATOM      8  C   UNL     1       1.310   8.082  21.099  0.00  0.00    +0.000 C 
ATOM      9  N   UNL     1       0.726   9.333  20.466  0.00  0.00    +0.000 NA
ATOM     10  C   UNL     1       1.457   9.774  19.230  0.00  0.00    +0.000 C 
ATOM     11  C   UNL     1       1.334   8.792  18.067  0.00  0.00    +0.000 C 
ENDROOT
BRANCH   1  14
ATOM     12  C   UNL     1       6.657   4.941  14.823  0.00  0.00    +0.000 C 
ATOM     13  N   UNL     1       5.546   5.328  15.702  0.00  0.00    +0.000 N 
ATOM     14  C   UNL     1       5.414   6.438  16.516  0.00  0.00    +0.000 C 
ATOM     15  O   UNL     1       6.226   7.327  16.673  0.00  0.00    +0.000 OA
ATOM     16  H   UNL     1       4.881   4.589  15.878  0.00  0.00    +0.000 HD
ENDBRANCH   1  14
BRANCH   6  17
ATOM     17  N   UNL     1       5.489   4.920  18.839  0.00  0.00    +0.000 N 
ATOM     18  C   UNL     1       5.343   3.532  19.226  0.00  0.00    +0.000 C 
ATOM     19  C   UNL     1       6.657   5.546  19.497  0.00  0.00    +0.000 C 
ENDBRANCH   6  17
BRANCH   9  20
ATOM     20  S   UNL     1       0.673  10.644  21.626  0.00  0.00    +0.000 S 
ATOM     21  O   UNL     1       0.867  10.083  22.935  0.00  0.00    +0.000 OA
ATOM     22  O   UNL     1       1.579  11.648  21.099  0.00  0.00    +0.000 OA
BRANCH  20  23
ATOM     23  C   UNL     1      -1.028  11.226  21.509  0.00  0.00    +0.000 C 
BRANCH  23  24
ATOM     24  C   UNL     1      -1.222  12.218  20.291  0.00  0.00    +0.000 C 
ATOM     25  C   UNL     1      -1.852  11.542  19.089  0.00  0.00    +0.000 C 
ATOM     26  C   UNL     1      -2.090  13.407  20.716  0.00  0.00    +0.000 C 
ENDBRANCH  23  24
ENDBRANCH  20  23
ENDBRANCH   9  20
TORSDOF 5
ENDMDL
MODEL 4
REMARK VINA RESULT:      -6.2      3.759      7.484
REMARK  Name = 
REMARK  10 active torsions:
REMARK  status: ('A' for Active; 'I' for Inactive)
REMARK    1  A    between atoms: C_1  and  N_2
REMARK    2  A    between atoms: C_3  and  C_5
REMARK    3  A    between atoms: C_10  and  N_11
REMARK    4  A    between atoms: N_11  and  C_12
REMARK    5  A    between atoms: N_11  and  C_13
REMARK    6  A    between atoms: N_16  and  S_17
REMARK    7  A    between atoms: S_17  and  C_20
REMARK    8  A    between atoms: C_20  and  C_21
REMARK    9  A    between atoms: C_21  and  C_22
REMARK   10  A    between atoms: C_21  and  C_23
REMARK                            x       y       z     vdW  Elec       q    Type
REMARK                         _______ _______ _______ _____ _____    ______ ____
ROOT
ATOM      1  C   UNL     1       0.971   8.178  20.398  0.00  0.00    +0.000 A 
ATOM      2  C   UNL     1       1.648   6.953  20.456  0.00  0.00    +0.000 A 
ATOM      3  C   UNL     1       2.439   6.569  19.387  0.00  0.00    +0.000 A 
ATOM      4  C   UNL     1       2.492   7.456  18.312  0.00  0.00    +0.000 A 
ATOM      5  N   UNL     1       1.894   8.711  18.301  0.00  0.00    +0.000 NA
ATOM      6  C   UNL     1       1.188   9.113  19.387  0.00  0.00    +0.000 A 
ATOM      7  C   UNL     1       3.323   7.064  17.115  0.00  0.00    +0.000 C 
ATOM      8  C   UNL     1       4.816   7.089  17.440  0.00  0.00    +0.000 C 
ATOM      9  N   UNL     1       5.326   5.817  18.094  0.00  0.00    +0.000 NA
ATOM     10  C   UNL     1       4.746   5.573  19.459  0.00  0.00    +0.000 C 
ATOM     11  C   UNL     1       3.245   5.293  19.441  0.00  0.00    +0.000 C 
ENDROOT
BRANCH   1  14
ATOM     12  C   UNL     1       0.325   9.574  23.941  0.00  0.00    +0.000 C 
ATOM     13  N   UNL     1       0.832   9.236  22.604  0.00  0.00    +0.000 N 
ATOM     14  C   UNL     1       0.199   8.581  21.564  0.00  0.00    +0.000 C 
ATOM     15  O   UNL     1      -0.930   8.133  21.564  0.00  0.00    +0.000 OA
ATOM     16  H   UNL     1       1.832   9.324  22.507  0.00  0.00    +0.000 HD
ENDBRANCH   1  14
BRANCH   6  17
ATOM     17  N   UNL     1       0.692  10.424  19.549  0.00  0.00    +0.000 N 
ATOM     18  C   UNL     1      -0.556  10.819  18.928  0.00  0.00    +0.000 C 
ATOM     19  C   UNL     1       1.665  11.538  19.566  0.00  0.00    +0.000 C 
ENDBRANCH   6  17
BRANCH   9  20
ATOM     20  S   UNL     1       7.075   5.828  18.184  0.00  0.00    +0.000 S 
ATOM     21  O   UNL     1       7.529   7.134  17.791  0.00  0.00    +0.000 OA
ATOM     22  O   UNL     1       7.387   5.288  19.494  0.00  0.00    +0.000 OA
BRANCH  20  23
ATOM     23  C   UNL     1       7.557   4.655  16.904  0.00  0.00    +0.000 C 
BRANCH  23  24
ATOM     24  C   UNL     1       6.625   4.766  15.630  0.00  0.00    +0.000 C 
ATOM     25  C   UNL     1       7.411   5.012  14.357  0.00  0.00    +0.000 C 
ATOM     26  C   UNL     1       5.797   3.486  15.473  0.00  0.00    +0.000 C 
ENDBRANCH  23  24
ENDBRANCH  20  23
ENDBRANCH   9  20
TORSDOF 5
ENDMDL
MODEL 5
REMARK VINA RESULT:      -6.2      3.721      7.567
REMARK  Name = 
REMARK  10 active torsions:
REMARK  status: ('A' for Active; 'I' for Inactive)
REMARK    1  A    between atoms: C_1  and  N_2
REMARK    2  A    between atoms: C_3  and  C_5
REMARK    3  A    between atoms: C_10  and  N_11
REMARK    4  A    between atoms: N_11  and  C_12
REMARK    5  A    between atoms: N_11  and  C_13
REMARK    6  A    between atoms: N_16  and  S_17
REMARK    7  A    between atoms: S_17  and  C_20
REMARK    8  A    between atoms: C_20  and  C_21
REMARK    9  A    between atoms: C_21  and  C_22
REMARK   10  A    between atoms: C_21  and  C_23
REMARK                            x       y       z     vdW  Elec       q    Type
REMARK                         _______ _______ _______ _____ _____    ______ ____
ROOT
ATOM      1  C   UNL     1       1.180   8.769  20.804  0.00  0.00    +0.000 A 
ATOM      2  C   UNL     1       1.772   7.504  20.913  0.00  0.00    +0.000 A 
ATOM      3  C   UNL     1       2.291   6.903  19.779  0.00  0.00    +0.000 A 
ATOM      4  C   UNL     1       2.175   7.627  18.592  0.00  0.00    +0.000 A 
ATOM      5  N   UNL     1       1.673   8.920  18.509  0.00  0.00    +0.000 NA
ATOM      6  C   UNL     1       1.241   9.533  19.639  0.00  0.00    +0.000 A 
ATOM      7  C   UNL     1       2.706   6.997  17.328  0.00  0.00    +0.000 C 
ATOM      8  C   UNL     1       4.232   6.921  17.341  0.00  0.00    +0.000 C 
ATOM      9  N   UNL     1       4.783   5.706  18.067  0.00  0.00    +0.000 NA
ATOM     10  C   UNL     1       4.490   5.708  19.541  0.00  0.00    +0.000 C 
ATOM     11  C   UNL     1       3.004   5.575  19.866  0.00  0.00    +0.000 C 
ENDROOT
BRANCH   1  14
ATOM     12  C   UNL     1      -1.261  10.664  23.120  0.00  0.00    +0.000 C 
ATOM     13  N   UNL     1      -0.605   9.847  22.092  0.00  0.00    +0.000 N 
ATOM     14  C   UNL     1       0.702   9.400  22.025  0.00  0.00    +0.000 C 
ATOM     15  O   UNL     1       1.589   9.617  22.826  0.00  0.00    +0.000 OA
ATOM     16  H   UNL     1      -1.127   9.768  21.231  0.00  0.00    +0.000 HD
ENDBRANCH   1  14
BRANCH   6  17
ATOM     17  N   UNL     1       0.879  10.895  19.693  0.00  0.00    +0.000 N 
ATOM     18  C   UNL     1      -0.307  11.368  19.008  0.00  0.00    +0.000 C 
ATOM     19  C   UNL     1       1.961  11.903  19.663  0.00  0.00    +0.000 C 
ENDBRANCH   6  17
BRANCH   9  20
ATOM     20  S   UNL     1       6.508   5.560  17.804  0.00  0.00    +0.000 S 
ATOM     21  O   UNL     1       7.160   6.589  18.566  0.00  0.00    +0.000 OA
ATOM     22  O   UNL     1       6.805   4.157  18.029  0.00  0.00    +0.000 OA
BRANCH  20  23
ATOM     23  C   UNL     1       6.689   5.953  16.055  0.00  0.00    +0.000 C 
BRANCH  23  24
ATOM     24  C   UNL     1       6.707   4.647  15.162  0.00  0.00    +0.000 C 
ATOM     25  C   UNL     1       5.314   4.123  14.875  0.00  0.00    +0.000 C 
ATOM     26  C   UNL     1       7.425   4.927  13.837  0.00  0.00    +0.000 C 
ENDBRANCH  23  24
ENDBRANCH  20  23
ENDBRANCH   9  20
TORSDOF 5
ENDMDL
MODEL 6
REMARK VINA RESULT:      -6.2      0.909      1.147
REMARK  Name = 
REMARK  10 active torsions:
REMARK  status: ('A' for Active; 'I' for Inactive)
REMARK    1  A    between atoms: C_1  and  N_2
REMARK    2  A    between atoms: C_3  and  C_5
REMARK    3  A    between atoms: C_10  and  N_11
REMARK    4  A    between atoms: N_11  and  C_12
REMARK    5  A    between atoms: N_11  and  C_13
REMARK    6  A    between atoms: N_16  and  S_17
REMARK    7  A    between atoms: S_17  and  C_20
REMARK    8  A    between atoms: C_20  and  C_21
REMARK    9  A    between atoms: C_21  and  C_22
REMARK   10  A    between atoms: C_21  and  C_23
REMARK                            x       y       z     vdW  Elec       q    Type
REMARK                         _______ _______ _______ _____ _____    ______ ____
ROOT
ATOM      1  C   UNL     1       2.443   5.859  19.919  0.00  0.00    +0.000 A 
ATOM      2  C   UNL     1       1.873   6.901  20.663  0.00  0.00    +0.000 A 
ATOM      3  C   UNL     1       1.722   8.145  20.075  0.00  0.00    +0.000 A 
ATOM      4  C   UNL     1       2.166   8.259  18.758  0.00  0.00    +0.000 A 
ATOM      5  N   UNL     1       2.642   7.199  17.996  0.00  0.00    +0.000 NA
ATOM      6  C   UNL     1       2.710   5.965  18.555  0.00  0.00    +0.000 A 
ATOM      7  C   UNL     1       2.043   9.605  18.087  0.00  0.00    +0.000 C 
ATOM      8  C   UNL     1       0.582   9.962  17.814  0.00  0.00    +0.000 C 
ATOM      9  N   UNL     1      -0.131  10.590  18.999  0.00  0.00    +0.000 NA
ATOM     10  C   UNL     1      -0.283   9.658  20.167  0.00  0.00    +0.000 C 
ATOM     11  C   UNL     1       1.045   9.273  20.816  0.00  0.00    +0.000 C 
ENDROOT
BRANCH   1  14
ATOM     12  C   UNL     1       1.205   2.694  21.755  0.00  0.00    +0.000 C 
ATOM     13  N   UNL     1       1.369   3.911  20.950  0.00  0.00    +0.000 N 
ATOM     14  C   UNL     1       2.528   4.549  20.546  0.00  0.00    +0.000 C 
ATOM     15  O   UNL     1       3.669   4.218  20.800  0.00  0.00    +0.000 OA
ATOM     16  H   UNL     1       0.526   4.455  20.844  0.00  0.00    +0.000 HD
ENDBRANCH   1  14
BRANCH   6  17
ATOM     17  N   UNL     1       3.010   4.797  17.823  0.00  0.00    +0.000 N 
ATOM     18  C   UNL     1       4.160   4.757  16.943  0.00  0.00    +0.000 C 
ATOM     19  C   UNL     1       1.883   4.009  17.279  0.00  0.00    +0.000 C 
ENDBRANCH   6  17
BRANCH   9  20
ATOM     20  S   UNL     1      -1.699  11.205  18.519  0.00  0.00    +0.000 S 
ATOM     21  O   UNL     1      -2.458  11.458  19.713  0.00  0.00    +0.000 OA
ATOM     22  O   UNL     1      -1.412  12.267  17.574  0.00  0.00    +0.000 OA
BRANCH  20  23
ATOM     23  C   UNL     1      -2.443   9.804  17.665  0.00  0.00    +0.000 C 
BRANCH  23  24
ATOM     24  C   UNL     1      -3.560  10.269  16.644  0.00  0.00    +0.000 C 
ATOM     25  C   UNL     1      -4.372  11.437  17.168  0.00  0.00    +0.000 C 
ATOM     26  C   UNL     1      -2.919  10.658  15.307  0.00  0.00    +0.000 C 
ENDBRANCH  23  24
ENDBRANCH  20  23
ENDBRANCH   9  20
TORSDOF 5
ENDMDL
MODEL 7
REMARK VINA RESULT:      -6.1      3.711      7.478
REMARK  Name = 
REMARK  10 active torsions:
REMARK  status: ('A' for Active; 'I' for Inactive)
REMARK    1  A    between atoms: C_1  and  N_2
REMARK    2  A    between atoms: C_3  and  C_5
REMARK    3  A    between atoms: C_10  and  N_11
REMARK    4  A    between atoms: N_11  and  C_12
REMARK    5  A    between atoms: N_11  and  C_13
REMARK    6  A    between atoms: N_16  and  S_17
REMARK    7  A    between atoms: S_17  and  C_20
REMARK    8  A    between atoms: C_20  and  C_21
REMARK    9  A    between atoms: C_21  and  C_22
REMARK   10  A    between atoms: C_21  and  C_23
REMARK                            x       y       z     vdW  Elec       q    Type
REMARK                         _______ _______ _______ _____ _____    ______ ____
ROOT
ATOM      1  C   UNL     1       0.783   9.262  21.004  0.00  0.00    +0.000 A 
ATOM      2  C   UNL     1       1.201   7.926  21.062  0.00  0.00    +0.000 A 
ATOM      3  C   UNL     1       1.745   7.340  19.931  0.00  0.00    +0.000 A 
ATOM      4  C   UNL     1       1.828   8.151  18.800  0.00  0.00    +0.000 A 
ATOM      5  N   UNL     1       1.500   9.501  18.776  0.00  0.00    +0.000 NA
ATOM      6  C   UNL     1       1.044  10.087  19.911  0.00  0.00    +0.000 A 
ATOM      7  C   UNL     1       2.392   7.544  17.538  0.00  0.00    +0.000 C 
ATOM      8  C   UNL     1       3.890   7.270  17.672  0.00  0.00    +0.000 C 
ATOM      9  N   UNL     1       4.217   5.947  18.344  0.00  0.00    +0.000 NA
ATOM     10  C   UNL     1       3.792   5.889  19.784  0.00  0.00    +0.000 C 
ATOM     11  C   UNL     1       2.277   5.928  19.973  0.00  0.00    +0.000 C 
ENDROOT
BRANCH   1  14
ATOM     12  C   UNL     1      -1.534  11.405  23.229  0.00  0.00    +0.000 C 
ATOM     13  N   UNL     1      -0.917  10.566  22.195  0.00  0.00    +0.000 N 
ATOM     14  C   UNL     1       0.275   9.865  22.227  0.00  0.00    +0.000 C 
ATOM     15  O   UNL     1       1.070   9.821  23.144  0.00  0.00    +0.000 OA
ATOM     16  H   UNL     1      -1.323  10.674  21.277  0.00  0.00    +0.000 HD
ENDBRANCH   1  14
BRANCH   6  17
ATOM     17  N   UNL     1       0.850  11.478  20.042  0.00  0.00    +0.000 N 
ATOM     18  C   UNL     1       0.036  12.199  19.085  0.00  0.00    +0.000 C 
ATOM     19  C   UNL     1       1.988  12.298  20.512  0.00  0.00    +0.000 C 
ENDBRANCH   6  17
BRANCH   9  20
ATOM     20  S   UNL     1       5.928   5.597  18.214  0.00  0.00    +0.000 S 
ATOM     21  O   UNL     1       6.597   6.805  17.815  0.00  0.00    +0.000 OA
ATOM     22  O   UNL     1       6.269   4.925  19.454  0.00  0.00    +0.000 OA
BRANCH  20  23
ATOM     23  C   UNL     1       6.003   4.431  16.842  0.00  0.00    +0.000 C 
BRANCH  23  24
ATOM     24  C   UNL     1       6.382   5.152  15.484  0.00  0.00    +0.000 C 
ATOM     25  C   UNL     1       6.826   4.174  14.415  0.00  0.00    +0.000 C 
ATOM     26  C   UNL     1       5.185   5.958  14.967  0.00  0.00    +0.000 C 
ENDBRANCH  23  24
ENDBRANCH  20  23
ENDBRANCH   9  20
TORSDOF 5
ENDMDL
MODEL 8
REMARK VINA RESULT:      -6.0      1.689      2.355
REMARK  Name = 
REMARK  10 active torsions:
REMARK  status: ('A' for Active; 'I' for Inactive)
REMARK    1  A    between atoms: C_1  and  N_2
REMARK    2  A    between atoms: C_3  and  C_5
REMARK    3  A    between atoms: C_10  and  N_11
REMARK    4  A    between atoms: N_11  and  C_12
REMARK    5  A    between atoms: N_11  and  C_13
REMARK    6  A    between atoms: N_16  and  S_17
REMARK    7  A    between atoms: S_17  and  C_20
REMARK    8  A    between atoms: C_20  and  C_21
REMARK    9  A    between atoms: C_21  and  C_22
REMARK   10  A    between atoms: C_21  and  C_23
REMARK                            x       y       z     vdW  Elec       q    Type
REMARK                         _______ _______ _______ _____ _____    ______ ____
ROOT
ATOM      1  C   UNL     1       2.092   5.590  20.080  0.00  0.00    +0.000 A 
ATOM      2  C   UNL     1       1.631   6.686  20.821  0.00  0.00    +0.000 A 
ATOM      3  C   UNL     1       1.668   7.947  20.251  0.00  0.00    +0.000 A 
ATOM      4  C   UNL     1       2.179   8.021  18.956  0.00  0.00    +0.000 A 
ATOM      5  N   UNL     1       2.546   6.918  18.193  0.00  0.00    +0.000 NA
ATOM      6  C   UNL     1       2.429   5.679  18.730  0.00  0.00    +0.000 A 
ATOM      7  C   UNL     1       2.261   9.381  18.307  0.00  0.00    +0.000 C 
ATOM      8  C   UNL     1       0.872   9.929  17.981  0.00  0.00    +0.000 C 
ATOM      9  N   UNL     1       0.196  10.628  19.148  0.00  0.00    +0.000 NA
ATOM     10  C   UNL     1      -0.127   9.707  20.291  0.00  0.00    +0.000 C 
ATOM     11  C   UNL     1       1.111   9.143  20.986  0.00  0.00    +0.000 C 
ENDROOT
BRANCH   1  14
ATOM     12  C   UNL     1       3.259   2.125  21.327  0.00  0.00    +0.000 C 
ATOM     13  N   UNL     1       3.124   3.527  20.911  0.00  0.00    +0.000 N 
ATOM     14  C   UNL     1       1.980   4.270  20.684  0.00  0.00    +0.000 C 
ATOM     15  O   UNL     1       0.831   3.887  20.777  0.00  0.00    +0.000 OA
ATOM     16  H   UNL     1       3.975   3.939  20.560  0.00  0.00    +0.000 HD
ENDBRANCH   1  14
BRANCH   6  17
ATOM     17  N   UNL     1       2.607   4.492  17.989  0.00  0.00    +0.000 N 
ATOM     18  C   UNL     1       3.816   4.280  17.220  0.00  0.00    +0.000 C 
ATOM     19  C   UNL     1       1.426   3.910  17.314  0.00  0.00    +0.000 C 
ENDBRANCH   6  17
BRANCH   9  20
ATOM     20  S   UNL     1      -1.258  11.448  18.617  0.00  0.00    +0.000 S 
ATOM     21  O   UNL     1      -1.754  10.760  17.457  0.00  0.00    +0.000 OA
ATOM     22  O   UNL     1      -2.069  11.586  19.812  0.00  0.00    +0.000 OA
BRANCH  20  23
ATOM     23  C   UNL     1      -0.649  13.062  18.097  0.00  0.00    +0.000 C 
BRANCH  23  24
ATOM     24  C   UNL     1       0.533  13.566  19.022  0.00  0.00    +0.000 C 
ATOM     25  C   UNL     1       1.866  13.578  18.301  0.00  0.00    +0.000 C 
ATOM     26  C   UNL     1       0.227  14.974  19.544  0.00  0.00    +0.000 C 
ENDBRANCH  23  24
ENDBRANCH  20  23
ENDBRANCH   9  20
TORSDOF 5
ENDMDL
MODEL 9
REMARK VINA RESULT:      -6.0      1.689      2.527
REMARK  Name = 
REMARK  10 active torsions:
REMARK  status: ('A' for Active; 'I' for Inactive)
REMARK    1  A    between atoms: C_1  and  N_2
REMARK    2  A    between atoms: C_3  and  C_5
REMARK    3  A    between atoms: C_10  and  N_11
REMARK    4  A    between atoms: N_11  and  C_12
REMARK    5  A    between atoms: N_11  and  C_13
REMARK    6  A    between atoms: N_16  and  S_17
REMARK    7  A    between atoms: S_17  and  C_20
REMARK    8  A    between atoms: C_20  and  C_21
REMARK    9  A    between atoms: C_21  and  C_22
REMARK   10  A    between atoms: C_21  and  C_23
REMARK                            x       y       z     vdW  Elec       q    Type
REMARK                         _______ _______ _______ _____ _____    ______ ____
ROOT
ATOM      1  C   UNL     1       2.126   5.681  20.065  0.00  0.00    +0.000 A 
ATOM      2  C   UNL     1       1.641   6.754  20.825  0.00  0.00    +0.000 A 
ATOM      3  C   UNL     1       1.614   8.019  20.263  0.00  0.00    +0.000 A 
ATOM      4  C   UNL     1       2.089   8.121  18.956  0.00  0.00    +0.000 A 
ATOM      5  N   UNL     1       2.480   7.038  18.177  0.00  0.00    +0.000 NA
ATOM      6  C   UNL     1       2.426   5.792  18.708  0.00  0.00    +0.000 A 
ATOM      7  C   UNL     1       2.101   9.487  18.315  0.00  0.00    +0.000 C 
ATOM      8  C   UNL     1       0.683   9.981  18.028  0.00  0.00    +0.000 C 
ATOM      9  N   UNL     1       0.010  10.646  19.216  0.00  0.00    +0.000 NA
ATOM     10  C   UNL     1      -0.247   9.706  20.359  0.00  0.00    +0.000 C 
ATOM     11  C   UNL     1       1.029   9.188  21.019  0.00  0.00    +0.000 C 
ENDROOT
BRANCH   1  14
ATOM     12  C   UNL     1       3.430   2.212  21.153  0.00  0.00    +0.000 C 
ATOM     13  N   UNL     1       3.246   3.617  20.768  0.00  0.00    +0.000 N 
ATOM     14  C   UNL     1       2.082   4.355  20.662  0.00  0.00    +0.000 C 
ATOM     15  O   UNL     1       0.950   3.963  20.863  0.00  0.00    +0.000 OA
ATOM     16  H   UNL     1       4.057   4.039  20.340  0.00  0.00    +0.000 HD
ENDBRANCH   1  14
BRANCH   6  17
ATOM     17  N   UNL     1       2.632   4.617  17.955  0.00  0.00    +0.000 N 
ATOM     18  C   UNL     1       3.831   4.456  17.158  0.00  0.00    +0.000 C 
ATOM     19  C   UNL     1       1.459   3.997  17.300  0.00  0.00    +0.000 C 
ENDBRANCH   6  17
BRANCH   9  20
ATOM     20  S   UNL     1      -1.488  11.411  18.726  0.00  0.00    +0.000 S 
ATOM     21  O   UNL     1      -1.160  12.507  17.856  0.00  0.00    +0.000 OA
ATOM     22  O   UNL     1      -2.335  10.323  18.275  0.00  0.00    +0.000 OA
BRANCH  20  23
ATOM     23  C   UNL     1      -2.125  12.088  20.270  0.00  0.00    +0.000 C 
BRANCH  23  24
ATOM     24  C   UNL     1      -1.200  13.247  20.824  0.00  0.00    +0.000 C 
ATOM     25  C   UNL     1      -1.893  14.595  20.813  0.00  0.00    +0.000 C 
ATOM     26  C   UNL     1      -0.750  12.920  22.253  0.00  0.00    +0.000 C 
ENDBRANCH  23  24
ENDBRANCH  20  23
ENDBRANCH   9  20
TORSDOF 5
ENDMDL
