MODEL 1
REMARK VINA RESULT:     -10.0      0.000      0.000
REMARK  Name = 
REMARK  9 active torsions:
REMARK  status: ('A' for Active; 'I' for Inactive)
REMARK    1  A    between atoms: C_1  and  O_2
REMARK    2  A    between atoms: O_2  and  C_3
REMARK    3  A    between atoms: C_12  and  C_13
REMARK    4  A    between atoms: C_13  and  O_15
REMARK    5  A    between atoms: O_15  and  C_16
REMARK    6  A    between atoms: C_16  and  C_17
REMARK    7  A    between atoms: C_16  and  C_28
REMARK    8  A    between atoms: N_19  and  C_20
REMARK    9  A    between atoms: C_23  and  C_24
REMARK                            x       y       z     vdW  Elec       q    Type
REMARK                         _______ _______ _______ _____ _____    ______ ____
ROOT
ATOM      1  C   UNL     1       3.386   5.805  19.325  0.00  0.00    +0.000 C 
ENDROOT
BRANCH   1   2
ATOM      2  C   UNL     1       2.529   4.699  19.945  0.00  0.00    +0.000 A 
ATOM      3  C   UNL     1       1.550   4.035  19.185  0.00  0.00    +0.000 A 
ATOM      4  C   UNL     1       0.801   2.994  19.743  0.00  0.00    +0.000 A 
ATOM      5  C   UNL     1       1.024   2.597  21.060  0.00  0.00    +0.000 A 
ATOM      6  C   UNL     1       2.009   3.227  21.816  0.00  0.00    +0.000 A 
ATOM      7  C   UNL     1       2.760   4.262  21.260  0.00  0.00    +0.000 A 
ENDBRANCH   1   2
BRANCH   1   8
ATOM      8  C   UNL     1       2.539   7.100  19.149  0.00  0.00    +0.000 C 
ATOM      9  O   UNL     1       2.359   7.605  18.040  0.00  0.00    +0.000 OA
ATOM     10  N   UNL     1       2.037   7.628  20.338  0.00  0.00    +0.000 N 
ATOM     11  H   UNL     1       2.504   7.328  21.193  0.00  0.00    +0.000 HD
BRANCH  10  12
ATOM     12  C   UNL     1       1.165   8.743  20.425  0.00  0.00    +0.000 A 
ATOM     13  C   UNL     1       0.955   9.626  19.362  0.00  0.00    +0.000 A 
ATOM     14  C   UNL     1       0.150  10.760  19.511  0.00  0.00    +0.000 A 
ATOM     15  C   UNL     1      -0.481  11.034  20.730  0.00  0.00    +0.000 A 
ATOM     16  C   UNL     1      -1.280  12.299  20.871  0.00  0.00    +0.000 C 
ATOM     17  C   UNL     1      -0.314  10.120  21.779  0.00  0.00    +0.000 A 
ATOM     18 CL   UNL     1      -1.064  10.379  23.315  0.00  0.00    +0.000 Cl
ATOM     19  C   UNL     1       0.489   8.976  21.626  0.00  0.00    +0.000 A 
ENDBRANCH  10  12
ENDBRANCH   1   8
BRANCH   1  20
ATOM     20  O   UNL     1       3.910   5.332  18.067  0.00  0.00    +0.000 OA
BRANCH  20  21
ATOM     21  C   UNL     1       5.137   4.772  18.089  0.00  0.00    +0.000 C 
ATOM     22  O   UNL     1       5.636   4.281  19.096  0.00  0.00    +0.000 OA
BRANCH  21  32
ATOM     23  C   UNL     1       7.069   5.490  16.510  0.00  0.00    +0.000 A 
ATOM     24  C   UNL     1       7.659   5.390  15.235  0.00  0.00    +0.000 A 
ATOM     25  C   UNL     1       7.027   4.734  14.174  0.00  0.00    +0.000 A 
ATOM     26  C   UNL     1       7.613   4.703  12.896  0.00  0.00    +0.000 A 
ATOM     27  C   UNL     1       6.967   4.079  11.832  0.00  0.00    +0.000 A 
ATOM     28  C   UNL     1       5.734   3.473  12.041  0.00  0.00    +0.000 A 
ATOM     29  C   UNL     1       5.149   3.486  13.310  0.00  0.00    +0.000 A 
ATOM     30  C   UNL     1       5.782   4.118  14.397  0.00  0.00    +0.000 A 
ATOM     31  C   UNL     1       5.224   4.156  15.691  0.00  0.00    +0.000 A 
ATOM     32  C   UNL     1       5.854   4.827  16.764  0.00  0.00    +0.000 A 
BRANCH  23  34
ATOM     33  C   UNL     1       7.534   7.625  17.419  0.00  0.00    +0.000 C 
ATOM     34  O   UNL     1       7.683   6.206  17.506  0.00  0.00    +0.000 OA
ENDBRANCH  23  34
ENDBRANCH  21  32
ENDBRANCH  20  21
ENDBRANCH   1  20
TORSDOF 7
ENDMDL
MODEL 2
REMARK VINA RESULT:      -9.7      1.038      1.393
REMARK  Name = 
REMARK  9 active torsions:
REMARK  status: ('A' for Active; 'I' for Inactive)
REMARK    1  A    between atoms: C_1  and  O_2
REMARK    2  A    between atoms: O_2  and  C_3
REMARK    3  A    between atoms: C_12  and  C_13
REMARK    4  A    between atoms: C_13  and  O_15
REMARK    5  A    between atoms: O_15  and  C_16
REMARK    6  A    between atoms: C_16  and  C_17
REMARK    7  A    between atoms: C_16  and  C_28
REMARK    8  A    between atoms: N_19  and  C_20
REMARK    9  A    between atoms: C_23  and  C_24
REMARK                            x       y       z     vdW  Elec       q    Type
REMARK                         _______ _______ _______ _____ _____    ______ ____
ROOT
ATOM      1  C   UNL     1       3.161   6.115  19.460  0.00  0.00    +0.000 C 
ENDROOT
BRANCH   1   2
ATOM      2  C   UNL     1       2.261   4.878  19.430  0.00  0.00    +0.000 A 
ATOM      3  C   UNL     1       1.860   4.309  18.209  0.00  0.00    +0.000 A 
ATOM      4  C   UNL     1       1.074   3.152  18.187  0.00  0.00    +0.000 A 
ATOM      5  C   UNL     1       0.685   2.545  19.381  0.00  0.00    +0.000 A 
ATOM      6  C   UNL     1       1.097   3.083  20.597  0.00  0.00    +0.000 A 
ATOM      7  C   UNL     1       1.885   4.233  20.621  0.00  0.00    +0.000 A 
ENDBRANCH   1   2
BRANCH   1   8
ATOM      8  C   UNL     1       2.294   7.404  19.559  0.00  0.00    +0.000 C 
ATOM      9  O   UNL     1       1.975   8.044  18.556  0.00  0.00    +0.000 OA
ATOM     10  N   UNL     1       1.941   7.765  20.858  0.00  0.00    +0.000 N 
ATOM     11  H   UNL     1       2.511   7.367  21.604  0.00  0.00    +0.000 HD
BRANCH  10  12
ATOM     12  C   UNL     1       1.082   8.842  21.196  0.00  0.00    +0.000 A 
ATOM     13  C   UNL     1       0.699   9.122  22.510  0.00  0.00    +0.000 A 
ATOM     14  C   UNL     1      -0.213  10.143  22.797  0.00  0.00    +0.000 A 
ATOM     15  C   UNL     1      -0.757  10.924  21.770  0.00  0.00    +0.000 A 
ATOM     16  C   UNL     1      -1.787  11.965  22.111  0.00  0.00    +0.000 C 
ATOM     17  C   UNL     1      -0.331  10.679  20.458  0.00  0.00    +0.000 A 
ATOM     18 CL   UNL     1      -0.947  11.603  19.133  0.00  0.00    +0.000 Cl
ATOM     19  C   UNL     1       0.592   9.658  20.172  0.00  0.00    +0.000 A 
ENDBRANCH  10  12
ENDBRANCH   1   8
BRANCH   1  20
ATOM     20  O   UNL     1       3.986   6.113  18.276  0.00  0.00    +0.000 OA
BRANCH  20  21
ATOM     21  C   UNL     1       5.120   5.383  18.323  0.00  0.00    +0.000 C 
ATOM     22  O   UNL     1       5.560   4.886  19.355  0.00  0.00    +0.000 OA
BRANCH  21  32
ATOM     23  C   UNL     1       7.078   5.778  16.666  0.00  0.00    +0.000 A 
ATOM     24  C   UNL     1       7.634   5.511  15.399  0.00  0.00    +0.000 A 
ATOM     25  C   UNL     1       6.927   4.821  14.409  0.00  0.00    +0.000 A 
ATOM     26  C   UNL     1       7.484   4.622  13.134  0.00  0.00    +0.000 A 
ATOM     27  C   UNL     1       6.765   3.964  12.138  0.00  0.00    +0.000 A 
ATOM     28  C   UNL     1       5.487   3.494  12.415  0.00  0.00    +0.000 A 
ATOM     29  C   UNL     1       4.929   3.674  13.683  0.00  0.00    +0.000 A 
ATOM     30  C   UNL     1       5.635   4.343  14.700  0.00  0.00    +0.000 A 
ATOM     31  C   UNL     1       5.107   4.548  15.991  0.00  0.00    +0.000 A 
ATOM     32  C   UNL     1       5.813   5.254  16.991  0.00  0.00    +0.000 A 
BRANCH  23  34
ATOM     33  C   UNL     1       7.603   7.938  17.476  0.00  0.00    +0.000 C 
ATOM     34  O   UNL     1       7.771   6.523  17.585  0.00  0.00    +0.000 OA
ENDBRANCH  23  34
ENDBRANCH  21  32
ENDBRANCH  20  21
ENDBRANCH   1  20
TORSDOF 7
ENDMDL
MODEL 3
REMARK VINA RESULT:      -9.6      0.918      1.485
REMARK  Name = 
REMARK  9 active torsions:
REMARK  status: ('A' for Active; 'I' for Inactive)
REMARK    1  A    between atoms: C_1  and  O_2
REMARK    2  A    between atoms: O_2  and  C_3
REMARK    3  A    between atoms: C_12  and  C_13
REMARK    4  A    between atoms: C_13  and  O_15
REMARK    5  A    between atoms: O_15  and  C_16
REMARK    6  A    between atoms: C_16  and  C_17
REMARK    7  A    between atoms: C_16  and  C_28
REMARK    8  A    between atoms: N_19  and  C_20
REMARK    9  A    between atoms: C_23  and  C_24
REMARK                            x       y       z     vdW  Elec       q    Type
REMARK                         _______ _______ _______ _____ _____    ______ ____
ROOT
ATOM      1  C   UNL     1       3.449   5.769  19.428  0.00  0.00    +0.000 C 
ENDROOT
BRANCH   1   2
ATOM      2  C   UNL     1       2.526   4.610  19.811  0.00  0.00    +0.000 A 
ATOM      3  C   UNL     1       2.503   4.112  21.125  0.00  0.00    +0.000 A 
ATOM      4  C   UNL     1       1.626   3.083  21.481  0.00  0.00    +0.000 A 
ATOM      5  C   UNL     1       0.757   2.543  20.534  0.00  0.00    +0.000 A 
ATOM      6  C   UNL     1       0.750   3.044  19.235  0.00  0.00    +0.000 A 
ATOM      7  C   UNL     1       1.621   4.074  18.879  0.00  0.00    +0.000 A 
ENDBRANCH   1   2
BRANCH   1   8
ATOM      8  C   UNL     1       2.656   7.109  19.443  0.00  0.00    +0.000 C 
ATOM      9  O   UNL     1       2.547   7.803  18.431  0.00  0.00    +0.000 OA
ATOM     10  N   UNL     1       2.117   7.448  20.683  0.00  0.00    +0.000 N 
ATOM     11  H   UNL     1       2.532   6.987  21.492  0.00  0.00    +0.000 HD
BRANCH  10  12
ATOM     12  C   UNL     1       1.280   8.567  20.925  0.00  0.00    +0.000 A 
ATOM     13  C   UNL     1       0.926   8.985  22.210  0.00  0.00    +0.000 A 
ATOM     14  C   UNL     1       0.035  10.045  22.408  0.00  0.00    +0.000 A 
ATOM     15  C   UNL     1      -0.517  10.727  21.317  0.00  0.00    +0.000 A 
ATOM     16  C   UNL     1      -1.524  11.814  21.569  0.00  0.00    +0.000 C 
ATOM     17  C   UNL     1      -0.119  10.344  20.030  0.00  0.00    +0.000 A 
ATOM     18 CL   UNL     1      -0.747  11.140  18.629  0.00  0.00    +0.000 Cl
ATOM     19  C   UNL     1       0.783   9.284  19.833  0.00  0.00    +0.000 A 
ENDBRANCH  10  12
ENDBRANCH   1   8
BRANCH   1  20
ATOM     20  O   UNL     1       4.018   5.497  18.131  0.00  0.00    +0.000 OA
BRANCH  20  21
ATOM     21  C   UNL     1       5.186   4.821  18.105  0.00  0.00    +0.000 C 
ATOM     22  O   UNL     1       5.655   4.251  19.085  0.00  0.00    +0.000 OA
BRANCH  21  32
ATOM     23  C   UNL     1       7.091   5.501  16.479  0.00  0.00    +0.000 A 
ATOM     24  C   UNL     1       7.656   5.379  15.195  0.00  0.00    +0.000 A 
ATOM     25  C   UNL     1       6.998   4.713  14.155  0.00  0.00    +0.000 A 
ATOM     26  C   UNL     1       7.558   4.659  12.867  0.00  0.00    +0.000 A 
ATOM     27  C   UNL     1       6.886   4.025  11.825  0.00  0.00    +0.000 A 
ATOM     28  C   UNL     1       5.653   3.432  12.067  0.00  0.00    +0.000 A 
ATOM     29  C   UNL     1       5.093   3.468  13.346  0.00  0.00    +0.000 A 
ATOM     30  C   UNL     1       5.752   4.110  14.411  0.00  0.00    +0.000 A 
ATOM     31  C   UNL     1       5.220   4.171  15.715  0.00  0.00    +0.000 A 
ATOM     32  C   UNL     1       5.876   4.852  16.766  0.00  0.00    +0.000 A 
BRANCH  23  34
ATOM     33  C   UNL     1       7.482   7.633  17.428  0.00  0.00    +0.000 C 
ATOM     34  O   UNL     1       7.730   6.226  17.453  0.00  0.00    +0.000 OA
ENDBRANCH  23  34
ENDBRANCH  21  32
ENDBRANCH  20  21
ENDBRANCH   1  20
TORSDOF 7
ENDMDL
MODEL 4
REMARK VINA RESULT:      -9.4      1.674      1.833
REMARK  Name = 
REMARK  9 active torsions:
REMARK  status: ('A' for Active; 'I' for Inactive)
REMARK    1  A    between atoms: C_1  and  O_2
REMARK    2  A    between atoms: O_2  and  C_3
REMARK    3  A    between atoms: C_12  and  C_13
REMARK    4  A    between atoms: C_13  and  O_15
REMARK    5  A    between atoms: O_15  and  C_16
REMARK    6  A    between atoms: C_16  and  C_17
REMARK    7  A    between atoms: C_16  and  C_28
REMARK    8  A    between atoms: N_19  and  C_20
REMARK    9  A    between atoms: C_23  and  C_24
REMARK                            x       y       z     vdW  Elec       q    Type
REMARK                         _______ _______ _______ _____ _____    ______ ____
ROOT
ATOM      1  C   UNL     1       3.050   6.206  19.591  0.00  0.00    +0.000 C 
ENDROOT
BRANCH   1   2
ATOM      2  C   UNL     1       2.173   4.963  19.429  0.00  0.00    +0.000 A 
ATOM      3  C   UNL     1       1.890   4.443  18.154  0.00  0.00    +0.000 A 
ATOM      4  C   UNL     1       1.125   3.280  18.014  0.00  0.00    +0.000 A 
ATOM      5  C   UNL     1       0.639   2.620  19.141  0.00  0.00    +0.000 A 
ATOM      6  C   UNL     1       0.934   3.109  20.411  0.00  0.00    +0.000 A 
ATOM      7  C   UNL     1       1.701   4.265  20.553  0.00  0.00    +0.000 A 
ENDBRANCH   1   2
BRANCH   1   8
ATOM      8  C   UNL     1       2.159   7.475  19.733  0.00  0.00    +0.000 C 
ATOM      9  O   UNL     1       1.538   7.712  20.770  0.00  0.00    +0.000 OA
ATOM     10  N   UNL     1       2.116   8.281  18.597  0.00  0.00    +0.000 N 
ATOM     11  H   UNL     1       2.391   7.837  17.721  0.00  0.00    +0.000 HD
BRANCH  10  12
ATOM     12  C   UNL     1       1.451   9.531  18.514  0.00  0.00    +0.000 A 
ATOM     13  C   UNL     1       2.117  10.754  18.627  0.00  0.00    +0.000 A 
ATOM     14  C   UNL     1       1.417  11.964  18.620  0.00  0.00    +0.000 A 
ATOM     15  C   UNL     1       0.024  11.983  18.486  0.00  0.00    +0.000 A 
ATOM     16  C   UNL     1      -0.699  13.299  18.555  0.00  0.00    +0.000 C 
ATOM     17  C   UNL     1      -0.639  10.760  18.318  0.00  0.00    +0.000 A 
ATOM     18 CL   UNL     1      -2.358  10.695  18.137  0.00  0.00    +0.000 Cl
ATOM     19  C   UNL     1       0.067   9.545  18.316  0.00  0.00    +0.000 A 
ENDBRANCH  10  12
ENDBRANCH   1   8
BRANCH   1  20
ATOM     20  O   UNL     1       3.935   6.297  18.454  0.00  0.00    +0.000 OA
BRANCH  20  21
ATOM     21  C   UNL     1       5.097   5.616  18.529  0.00  0.00    +0.000 C 
ATOM     22  O   UNL     1       5.555   5.177  19.579  0.00  0.00    +0.000 OA
BRANCH  21  32
ATOM     23  C   UNL     1       7.054   6.010  16.869  0.00  0.00    +0.000 A 
ATOM     24  C   UNL     1       7.620   5.722  15.612  0.00  0.00    +0.000 A 
ATOM     25  C   UNL     1       6.932   4.991  14.637  0.00  0.00    +0.000 A 
ATOM     26  C   UNL     1       7.499   4.771  13.370  0.00  0.00    +0.000 A 
ATOM     27  C   UNL     1       6.799   4.072  12.390  0.00  0.00    +0.000 A 
ATOM     28  C   UNL     1       5.530   3.582  12.674  0.00  0.00    +0.000 A 
ATOM     29  C   UNL     1       4.963   3.783  13.935  0.00  0.00    +0.000 A 
ATOM     30  C   UNL     1       5.651   4.493  14.937  0.00  0.00    +0.000 A 
ATOM     31  C   UNL     1       5.112   4.720  16.220  0.00  0.00    +0.000 A 
ATOM     32  C   UNL     1       5.799   5.467  17.204  0.00  0.00    +0.000 A 
BRANCH  23  34
ATOM     33  C   UNL     1       7.693   8.198  17.506  0.00  0.00    +0.000 C 
ATOM     34  O   UNL     1       7.727   6.794  17.771  0.00  0.00    +0.000 OA
ENDBRANCH  23  34
ENDBRANCH  21  32
ENDBRANCH  20  21
ENDBRANCH   1  20
TORSDOF 7
ENDMDL
MODEL 5
REMARK VINA RESULT:      -9.3      1.795      2.039
REMARK  Name = 
REMARK  9 active torsions:
REMARK  status: ('A' for Active; 'I' for Inactive)
REMARK    1  A    between atoms: C_1  and  O_2
REMARK    2  A    between atoms: O_2  and  C_3
REMARK    3  A    between atoms: C_12  and  C_13
REMARK    4  A    between atoms: C_13  and  O_15
REMARK    5  A    between atoms: O_15  and  C_16
REMARK    6  A    between atoms: C_16  and  C_17
REMARK    7  A    between atoms: C_16  and  C_28
REMARK    8  A    between atoms: N_19  and  C_20
REMARK    9  A    between atoms: C_23  and  C_24
REMARK                            x       y       z     vdW  Elec       q    Type
REMARK                         _______ _______ _______ _____ _____    ______ ____
ROOT
ATOM      1  C   UNL     1       3.012   6.150  19.701  0.00  0.00    +0.000 C 
ENDROOT
BRANCH   1   2
ATOM      2  C   UNL     1       2.155   4.894  19.528  0.00  0.00    +0.000 A 
ATOM      3  C   UNL     1       1.813   4.427  18.247  0.00  0.00    +0.000 A 
ATOM      4  C   UNL     1       1.067   3.253  18.094  0.00  0.00    +0.000 A 
ATOM      5  C   UNL     1       0.660   2.529  19.213  0.00  0.00    +0.000 A 
ATOM      6  C   UNL     1       1.014   2.966  20.487  0.00  0.00    +0.000 A 
ATOM      7  C   UNL     1       1.762   4.133  20.642  0.00  0.00    +0.000 A 
ENDBRANCH   1   2
BRANCH   1   8
ATOM      8  C   UNL     1       2.100   7.401  19.864  0.00  0.00    +0.000 C 
ATOM      9  O   UNL     1       1.443   7.588  20.889  0.00  0.00    +0.000 OA
ATOM     10  N   UNL     1       2.085   8.253  18.761  0.00  0.00    +0.000 N 
ATOM     11  H   UNL     1       2.394   7.848  17.878  0.00  0.00    +0.000 HD
BRANCH  10  12
ATOM     12  C   UNL     1       1.406   9.497  18.707  0.00  0.00    +0.000 A 
ATOM     13  C   UNL     1       0.017   9.608  18.801  0.00  0.00    +0.000 A 
ATOM     14  C   UNL     1      -0.623  10.844  18.664  0.00  0.00    +0.000 A 
ATOM     15  C   UNL     1       0.117  12.011  18.442  0.00  0.00    +0.000 A 
ATOM     16  C   UNL     1      -0.610  13.308  18.229  0.00  0.00    +0.000 C 
ATOM     17  C   UNL     1       1.514  11.908  18.402  0.00  0.00    +0.000 A 
ATOM     18 CL   UNL     1       2.504  13.302  18.141  0.00  0.00    +0.000 Cl
ATOM     19  C   UNL     1       2.157  10.666  18.549  0.00  0.00    +0.000 A 
ENDBRANCH  10  12
ENDBRANCH   1   8
BRANCH   1  20
ATOM     20  O   UNL     1       3.888   6.270  18.561  0.00  0.00    +0.000 OA
BRANCH  20  21
ATOM     21  C   UNL     1       5.079   5.639  18.635  0.00  0.00    +0.000 C 
ATOM     22  O   UNL     1       5.565   5.241  19.689  0.00  0.00    +0.000 OA
BRANCH  21  32
ATOM     23  C   UNL     1       7.024   6.034  16.963  0.00  0.00    +0.000 A 
ATOM     24  C   UNL     1       7.582   5.747  15.702  0.00  0.00    +0.000 A 
ATOM     25  C   UNL     1       6.887   5.019  14.731  0.00  0.00    +0.000 A 
ATOM     26  C   UNL     1       7.445   4.799  13.459  0.00  0.00    +0.000 A 
ATOM     27  C   UNL     1       6.737   4.103  12.482  0.00  0.00    +0.000 A 
ATOM     28  C   UNL     1       5.470   3.613  12.774  0.00  0.00    +0.000 A 
ATOM     29  C   UNL     1       4.911   3.813  14.039  0.00  0.00    +0.000 A 
ATOM     30  C   UNL     1       5.607   4.521  15.038  0.00  0.00    +0.000 A 
ATOM     31  C   UNL     1       5.077   4.747  16.325  0.00  0.00    +0.000 A 
ATOM     32  C   UNL     1       5.772   5.492  17.305  0.00  0.00    +0.000 A 
BRANCH  23  34
ATOM     33  C   UNL     1       7.734   8.212  17.557  0.00  0.00    +0.000 C 
ATOM     34  O   UNL     1       7.704   6.816  17.862  0.00  0.00    +0.000 OA
ENDBRANCH  23  34
ENDBRANCH  21  32
ENDBRANCH  20  21
ENDBRANCH   1  20
TORSDOF 7
ENDMDL
MODEL 6
REMARK VINA RESULT:      -9.0      3.638      6.368
REMARK  Name = 
REMARK  9 active torsions:
REMARK  status: ('A' for Active; 'I' for Inactive)
REMARK    1  A    between atoms: C_1  and  O_2
REMARK    2  A    between atoms: O_2  and  C_3
REMARK    3  A    between atoms: C_12  and  C_13
REMARK    4  A    between atoms: C_13  and  O_15
REMARK    5  A    between atoms: O_15  and  C_16
REMARK    6  A    between atoms: C_16  and  C_17
REMARK    7  A    between atoms: C_16  and  C_28
REMARK    8  A    between atoms: N_19  and  C_20
REMARK    9  A    between atoms: C_23  and  C_24
REMARK                            x       y       z     vdW  Elec       q    Type
REMARK                         _______ _______ _______ _____ _____    ______ ____
ROOT
ATOM      1  C   UNL     1       0.290  10.171  19.681  0.00  0.00    +0.000 C 
ENDROOT
BRANCH   1   2
ATOM      2  C   UNL     1      -0.938  10.396  18.796  0.00  0.00    +0.000 A 
ATOM      3  C   UNL     1      -1.929  11.324  19.162  0.00  0.00    +0.000 A 
ATOM      4  C   UNL     1      -3.026  11.559  18.328  0.00  0.00    +0.000 A 
ATOM      5  C   UNL     1      -3.146  10.879  17.117  0.00  0.00    +0.000 A 
ATOM      6  C   UNL     1      -2.159   9.976  16.729  0.00  0.00    +0.000 A 
ATOM      7  C   UNL     1      -1.061   9.744  17.558  0.00  0.00    +0.000 A 
ENDBRANCH   1   2
BRANCH   1   8
ATOM      8  C   UNL     1       1.077  11.503  19.851  0.00  0.00    +0.000 C 
ATOM      9  O   UNL     1       1.403  11.921  20.963  0.00  0.00    +0.000 OA
ATOM     10  N   UNL     1       1.351  12.168  18.657  0.00  0.00    +0.000 N 
ATOM     11  H   UNL     1       0.772  11.911  17.858  0.00  0.00    +0.000 HD
BRANCH  10  12
ATOM     12  C   UNL     1       2.132  13.347  18.546  0.00  0.00    +0.000 A 
ATOM     13  C   UNL     1       3.492  13.328  18.229  0.00  0.00    +0.000 A 
ATOM     14  C   UNL     1       4.248  14.505  18.207  0.00  0.00    +0.000 A 
ATOM     15  C   UNL     1       3.654  15.741  18.490  0.00  0.00    +0.000 A 
ATOM     16  C   UNL     1       4.513  16.973  18.526  0.00  0.00    +0.000 C 
ATOM     17  C   UNL     1       2.278  15.766  18.753  0.00  0.00    +0.000 A 
ATOM     18 CL   UNL     1       1.464  17.251  19.104  0.00  0.00    +0.000 Cl
ATOM     19  C   UNL     1       1.518  14.583  18.767  0.00  0.00    +0.000 A 
ENDBRANCH  10  12
ENDBRANCH   1   8
BRANCH   1  20
ATOM     20  O   UNL     1       1.104   9.138  19.087  0.00  0.00    +0.000 OA
BRANCH  20  21
ATOM     21  C   UNL     1       1.637   8.223  19.923  0.00  0.00    +0.000 C 
ATOM     22  O   UNL     1       1.589   8.318  21.145  0.00  0.00    +0.000 OA
BRANCH  21  32
ATOM     23  C   UNL     1       2.199   5.718  19.539  0.00  0.00    +0.000 A 
ATOM     24  C   UNL     1       2.844   4.756  18.738  0.00  0.00    +0.000 A 
ATOM     25  C   UNL     1       3.691   5.114  17.684  0.00  0.00    +0.000 A 
ATOM     26  C   UNL     1       4.368   4.132  16.939  0.00  0.00    +0.000 A 
ATOM     27  C   UNL     1       5.237   4.491  15.912  0.00  0.00    +0.000 A 
ATOM     28  C   UNL     1       5.426   5.836  15.616  0.00  0.00    +0.000 A 
ATOM     29  C   UNL     1       4.748   6.819  16.340  0.00  0.00    +0.000 A 
ATOM     30  C   UNL     1       3.872   6.478  17.387  0.00  0.00    +0.000 A 
ATOM     31  C   UNL     1       3.171   7.439  18.143  0.00  0.00    +0.000 A 
ATOM     32  C   UNL     1       2.323   7.083  19.216  0.00  0.00    +0.000 A 
BRANCH  23  34
ATOM     33  C   UNL     1       1.443   3.930  20.892  0.00  0.00    +0.000 C 
ATOM     34  O   UNL     1       1.437   5.332  20.612  0.00  0.00    +0.000 OA
ENDBRANCH  23  34
ENDBRANCH  21  32
ENDBRANCH  20  21
ENDBRANCH   1  20
TORSDOF 7
ENDMDL
MODEL 7
REMARK VINA RESULT:      -8.8      3.672      6.366
REMARK  Name = 
REMARK  9 active torsions:
REMARK  status: ('A' for Active; 'I' for Inactive)
REMARK    1  A    between atoms: C_1  and  O_2
REMARK    2  A    between atoms: O_2  and  C_3
REMARK    3  A    between atoms: C_12  and  C_13
REMARK    4  A    between atoms: C_13  and  O_15
REMARK    5  A    between atoms: O_15  and  C_16
REMARK    6  A    between atoms: C_16  and  C_17
REMARK    7  A    between atoms: C_16  and  C_28
REMARK    8  A    between atoms: N_19  and  C_20
REMARK    9  A    between atoms: C_23  and  C_24
REMARK                            x       y       z     vdW  Elec       q    Type
REMARK                         _______ _______ _______ _____ _____    ______ ____
ROOT
ATOM      1  C   UNL     1       0.238  10.070  19.867  0.00  0.00    +0.000 C 
ENDROOT
BRANCH   1   2
ATOM      2  C   UNL     1      -0.891  10.394  18.886  0.00  0.00    +0.000 A 
ATOM      3  C   UNL     1      -1.001   9.708  17.664  0.00  0.00    +0.000 A 
ATOM      4  C   UNL     1      -2.060   9.976  16.791  0.00  0.00    +0.000 A 
ATOM      5  C   UNL     1      -3.026  10.924  17.129  0.00  0.00    +0.000 A 
ATOM      6  C   UNL     1      -2.943  11.591  18.348  0.00  0.00    +0.000 A 
ATOM      7  C   UNL     1      -1.891  11.322  19.222  0.00  0.00    +0.000 A 
ENDBRANCH   1   2
BRANCH   1   8
ATOM      8  C   UNL     1       0.990  11.374  20.266  0.00  0.00    +0.000 C 
ATOM      9  O   UNL     1       1.223  11.647  21.444  0.00  0.00    +0.000 OA
ATOM     10  N   UNL     1       1.343  12.188  19.191  0.00  0.00    +0.000 N 
ATOM     11  H   UNL     1       0.830  12.033  18.324  0.00  0.00    +0.000 HD
BRANCH  10  12
ATOM     12  C   UNL     1       2.111  13.376  19.293  0.00  0.00    +0.000 A 
ATOM     13  C   UNL     1       1.696  14.487  20.031  0.00  0.00    +0.000 A 
ATOM     14  C   UNL     1       2.441  15.670  20.043  0.00  0.00    +0.000 A 
ATOM     15  C   UNL     1       3.638  15.768  19.323  0.00  0.00    +0.000 A 
ATOM     16  C   UNL     1       4.374  17.078  19.303  0.00  0.00    +0.000 C 
ATOM     17  C   UNL     1       4.082  14.636  18.627  0.00  0.00    +0.000 A 
ATOM     18 CL   UNL     1       5.554  14.669  17.718  0.00  0.00    +0.000 Cl
ATOM     19  C   UNL     1       3.336  13.445  18.622  0.00  0.00    +0.000 A 
ENDBRANCH  10  12
ENDBRANCH   1   8
BRANCH   1  20
ATOM     20  O   UNL     1       1.122   9.108  19.253  0.00  0.00    +0.000 OA
BRANCH  20  21
ATOM     21  C   UNL     1       1.650   8.163  20.058  0.00  0.00    +0.000 C 
ATOM     22  O   UNL     1       1.605   8.219  21.282  0.00  0.00    +0.000 OA
BRANCH  21  32
ATOM     23  C   UNL     1       2.203   5.669  19.596  0.00  0.00    +0.000 A 
ATOM     24  C   UNL     1       2.838   4.728  18.762  0.00  0.00    +0.000 A 
ATOM     25  C   UNL     1       3.678   5.115  17.712  0.00  0.00    +0.000 A 
ATOM     26  C   UNL     1       4.346   4.153  16.934  0.00  0.00    +0.000 A 
ATOM     27  C   UNL     1       5.208   4.541  15.911  0.00  0.00    +0.000 A 
ATOM     28  C   UNL     1       5.399   5.892  15.652  0.00  0.00    +0.000 A 
ATOM     29  C   UNL     1       4.729   6.856  16.410  0.00  0.00    +0.000 A 
ATOM     30  C   UNL     1       3.860   6.486  17.454  0.00  0.00    +0.000 A 
ATOM     31  C   UNL     1       3.168   7.427  18.243  0.00  0.00    +0.000 A 
ATOM     32  C   UNL     1       2.328   7.042  19.313  0.00  0.00    +0.000 A 
BRANCH  23  34
ATOM     33  C   UNL     1       1.708   3.922  21.114  0.00  0.00    +0.000 C 
ATOM     34  O   UNL     1       1.448   5.253  20.664  0.00  0.00    +0.000 OA
ENDBRANCH  23  34
ENDBRANCH  21  32
ENDBRANCH  20  21
ENDBRANCH   1  20
TORSDOF 7
ENDMDL
MODEL 8
REMARK VINA RESULT:      -8.8      3.487     10.216
REMARK  Name = 
REMARK  9 active torsions:
REMARK  status: ('A' for Active; 'I' for Inactive)
REMARK    1  A    between atoms: C_1  and  O_2
REMARK    2  A    between atoms: O_2  and  C_3
REMARK    3  A    between atoms: C_12  and  C_13
REMARK    4  A    between atoms: C_13  and  O_15
REMARK    5  A    between atoms: O_15  and  C_16
REMARK    6  A    between atoms: C_16  and  C_17
REMARK    7  A    between atoms: C_16  and  C_28
REMARK    8  A    between atoms: N_19  and  C_20
REMARK    9  A    between atoms: C_23  and  C_24
REMARK                            x       y       z     vdW  Elec       q    Type
REMARK                         _______ _______ _______ _____ _____    ______ ____
ROOT
ATOM      1  C   UNL     1       0.867   9.992  19.252  0.00  0.00    +0.000 C 
ENDROOT
BRANCH   1   2
ATOM      2  C   UNL     1      -0.397  10.416  18.501  0.00  0.00    +0.000 A 
ATOM      3  C   UNL     1      -0.819  11.758  18.502  0.00  0.00    +0.000 A 
ATOM      4  C   UNL     1      -1.949  12.149  17.777  0.00  0.00    +0.000 A 
ATOM      5  C   UNL     1      -2.668  11.210  17.037  0.00  0.00    +0.000 A 
ATOM      6  C   UNL     1      -2.246   9.884  17.006  0.00  0.00    +0.000 A 
ATOM      7  C   UNL     1      -1.117   9.493  17.724  0.00  0.00    +0.000 A 
ENDBRANCH   1   2
BRANCH   1   8
ATOM      8  C   UNL     1       1.748   9.085  18.344  0.00  0.00    +0.000 C 
ATOM      9  O   UNL     1       2.158   9.475  17.250  0.00  0.00    +0.000 OA
ATOM     10  N   UNL     1       2.004   7.818  18.866  0.00  0.00    +0.000 N 
ATOM     11  H   UNL     1       1.369   7.499  19.597  0.00  0.00    +0.000 HD
BRANCH  10  12
ATOM     12  C   UNL     1       2.854   6.852  18.270  0.00  0.00    +0.000 A 
ATOM     13  C   UNL     1       4.118   7.164  17.763  0.00  0.00    +0.000 A 
ATOM     14  C   UNL     1       4.895   6.202  17.111  0.00  0.00    +0.000 A 
ATOM     15  C   UNL     1       4.430   4.890  16.960  0.00  0.00    +0.000 A 
ATOM     16  C   UNL     1       5.263   3.903  16.192  0.00  0.00    +0.000 C 
ATOM     17  C   UNL     1       3.187   4.564  17.517  0.00  0.00    +0.000 A 
ATOM     18 CL   UNL     1       2.543   2.964  17.383  0.00  0.00    +0.000 Cl
ATOM     19  C   UNL     1       2.410   5.530  18.180  0.00  0.00    +0.000 A 
ENDBRANCH  10  12
ENDBRANCH   1   8
BRANCH   1  20
ATOM     20  O   UNL     1       0.477   9.317  20.467  0.00  0.00    +0.000 OA
BRANCH  20  21
ATOM     21  C   UNL     1       0.857   9.885  21.630  0.00  0.00    +0.000 C 
ATOM     22  O   UNL     1       1.698   9.394  22.377  0.00  0.00    +0.000 OA
BRANCH  21  32
ATOM     23  C   UNL     1       0.593  12.467  21.656  0.00  0.00    +0.000 A 
ATOM     24  C   UNL     1      -0.232  13.573  21.941  0.00  0.00    +0.000 A 
ATOM     25  C   UNL     1      -1.460  13.435  22.597  0.00  0.00    +0.000 A 
ATOM     26  C   UNL     1      -2.233  14.563  22.922  0.00  0.00    +0.000 A 
ATOM     27  C   UNL     1      -3.439  14.425  23.604  0.00  0.00    +0.000 A 
ATOM     28  C   UNL     1      -3.885  13.158  23.958  0.00  0.00    +0.000 A 
ATOM     29  C   UNL     1      -3.131  12.028  23.628  0.00  0.00    +0.000 A 
ATOM     30  C   UNL     1      -1.905  12.146  22.945  0.00  0.00    +0.000 A 
ATOM     31  C   UNL     1      -1.114  11.032  22.596  0.00  0.00    +0.000 A 
ATOM     32  C   UNL     1       0.133  11.168  21.944  0.00  0.00    +0.000 A 
BRANCH  23  34
ATOM     33  C   UNL     1       2.089  13.971  20.609  0.00  0.00    +0.000 C 
ATOM     34  O   UNL     1       1.825  12.649  21.081  0.00  0.00    +0.000 OA
ENDBRANCH  23  34
ENDBRANCH  21  32
ENDBRANCH  20  21
ENDBRANCH   1  20
TORSDOF 7
ENDMDL
MODEL 9
REMARK VINA RESULT:      -8.8      4.126      7.270
REMARK  Name = 
REMARK  9 active torsions:
REMARK  status: ('A' for Active; 'I' for Inactive)
REMARK    1  A    between atoms: C_1  and  O_2
REMARK    2  A    between atoms: O_2  and  C_3
REMARK    3  A    between atoms: C_12  and  C_13
REMARK    4  A    between atoms: C_13  and  O_15
REMARK    5  A    between atoms: O_15  and  C_16
REMARK    6  A    between atoms: C_16  and  C_17
REMARK    7  A    between atoms: C_16  and  C_28
REMARK    8  A    between atoms: N_19  and  C_20
REMARK    9  A    between atoms: C_23  and  C_24
REMARK                            x       y       z     vdW  Elec       q    Type
REMARK                         _______ _______ _______ _____ _____    ______ ____
ROOT
ATOM      1  C   UNL     1      -0.734  10.415  18.583  0.00  0.00    +0.000 C 
ENDROOT
BRANCH   1   2
ATOM      2  C   UNL     1      -2.012  10.642  17.771  0.00  0.00    +0.000 A 
ATOM      3  C   UNL     1      -2.169  10.063  16.499  0.00  0.00    +0.000 A 
ATOM      4  C   UNL     1      -3.356  10.236  15.781  0.00  0.00    +0.000 A 
ATOM      5  C   UNL     1      -4.402  10.982  16.322  0.00  0.00    +0.000 A 
ATOM      6  C   UNL     1      -4.270  11.539  17.591  0.00  0.00    +0.000 A 
ATOM      7  C   UNL     1      -3.089  11.363  18.312  0.00  0.00    +0.000 A 
ENDBRANCH   1   2
BRANCH   1   8
ATOM      8  C   UNL     1      -0.255  11.757  19.210  0.00  0.00    +0.000 C 
ATOM      9  O   UNL     1      -0.240  11.928  20.430  0.00  0.00    +0.000 OA
ATOM     10  N   UNL     1       0.125  12.725  18.282  0.00  0.00    +0.000 N 
ATOM     11  H   UNL     1      -0.226  12.599  17.333  0.00  0.00    +0.000 HD
BRANCH  10  12
ATOM     12  C   UNL     1       0.682  13.988  18.610  0.00  0.00    +0.000 A 
ATOM     13  C   UNL     1       2.057  14.200  18.737  0.00  0.00    +0.000 A 
ATOM     14  C   UNL     1       2.565  15.439  19.140  0.00  0.00    +0.000 A 
ATOM     15  C   UNL     1       1.706  16.509  19.413  0.00  0.00    +0.000 A 
ATOM     16  C   UNL     1       2.285  17.803  19.911  0.00  0.00    +0.000 C 
ATOM     17  C   UNL     1       0.330  16.312  19.233  0.00  0.00    +0.000 A 
ATOM     18 CL   UNL     1      -0.800  17.585  19.541  0.00  0.00    +0.000 Cl
ATOM     19  C   UNL     1      -0.179  15.069  18.820  0.00  0.00    +0.000 A 
ENDBRANCH  10  12
ENDBRANCH   1   8
BRANCH   1  20
ATOM     20  O   UNL     1       0.267   9.840  17.717  0.00  0.00    +0.000 OA
BRANCH  20  21
ATOM     21  C   UNL     1       1.517   9.737  18.213  0.00  0.00    +0.000 C 
ATOM     22  O   UNL     1       2.353  10.631  18.123  0.00  0.00    +0.000 OA
BRANCH  21  32
ATOM     23  C   UNL     1       1.584   8.093  20.221  0.00  0.00    +0.000 A 
ATOM     24  C   UNL     1       1.830   6.783  20.674  0.00  0.00    +0.000 A 
ATOM     25  C   UNL     1       2.382   5.801  19.844  0.00  0.00    +0.000 A 
ATOM     26  C   UNL     1       2.672   4.518  20.341  0.00  0.00    +0.000 A 
ATOM     27  C   UNL     1       3.253   3.553  19.522  0.00  0.00    +0.000 A 
ATOM     28  C   UNL     1       3.540   3.862  18.198  0.00  0.00    +0.000 A 
ATOM     29  C   UNL     1       3.243   5.129  17.690  0.00  0.00    +0.000 A 
ATOM     30  C   UNL     1       2.663   6.122  18.503  0.00  0.00    +0.000 A 
ATOM     31  C   UNL     1       2.351   7.412  18.029  0.00  0.00    +0.000 A 
ATOM     32  C   UNL     1       1.803   8.410  18.867  0.00  0.00    +0.000 A 
BRANCH  23  34
ATOM     33  C   UNL     1      -0.086   8.707  21.781  0.00  0.00    +0.000 C 
ATOM     34  O   UNL     1       1.113   9.050  21.084  0.00  0.00    +0.000 OA
ENDBRANCH  23  34
ENDBRANCH  21  32
ENDBRANCH  20  21
ENDBRANCH   1  20
TORSDOF 7
ENDMDL
