MODEL 1
REMARK VINA RESULT:      -8.6      0.000      0.000
REMARK  Name = 
REMARK  6 active torsions:
REMARK  status: ('A' for Active; 'I' for Inactive)
REMARK    1  A    between atoms: C_1  and  C_2
REMARK    2  A    between atoms: C_8  and  O_9
REMARK    3  A    between atoms: O_9  and  C_10
REMARK    4  A    between atoms: C_10  and  C_11
REMARK    5  A    between atoms: N_13  and  C_14
REMARK    6  A    between atoms: C_19  and  C_20
REMARK                            x       y       z     vdW  Elec       q    Type
REMARK                         _______ _______ _______ _____ _____    ______ ____
ROOT
ATOM      1  C   UNL     1       7.689   7.673  17.768  0.00  0.00    +0.000 C 
ATOM      2  O   UNL     1       8.117   6.862  18.585  0.00  0.00    +0.000 OA
ATOM      3  N   UNL     1       6.838   7.358  16.698  0.00  0.00    +0.000 N 
ATOM      4  H   UNL     1       6.378   8.126  16.222  0.00  0.00    +0.000 HD
ENDROOT
BRANCH   3   5
ATOM      5  C   UNL     1       6.306   6.056  16.448  0.00  0.00    +0.000 A 
ATOM      6  C   UNL     1       6.985   5.190  15.563  0.00  0.00    +0.000 A 
ATOM      7  C   UNL     1       6.497   3.922  15.227  0.00  0.00    +0.000 A 
ATOM      8  C   UNL     1       5.313   3.469  15.781  0.00  0.00    +0.000 A 
ATOM      9  C   UNL     1       4.617   4.295  16.660  0.00  0.00    +0.000 A 
ATOM     10  C   UNL     1       5.089   5.593  17.007  0.00  0.00    +0.000 A 
BRANCH  10  11
ATOM     11  C   UNL     1       4.145   6.312  17.917  0.00  0.00    +0.000 C 
ATOM     12  O   UNL     1       3.726   7.402  17.519  0.00  0.00    +0.000 OA
ATOM     13  N   UNL     1       3.682   5.766  19.113  0.00  0.00    +0.000 N 
ATOM     14  C   UNL     1       4.106   4.535  19.783  0.00  0.00    +0.000 C 
ATOM     15  C   UNL     1       2.950   3.729  20.379  0.00  0.00    +0.000 C 
ATOM     16  O   UNL     1       2.048   4.547  21.132  0.00  0.00    +0.000 OA
ATOM     17  C   UNL     1       1.534   5.605  20.313  0.00  0.00    +0.000 C 
ATOM     18  C   UNL     1       2.672   6.525  19.868  0.00  0.00    +0.000 C 
ENDBRANCH  10  11
ENDBRANCH   3   5
BRANCH   1  19
ATOM     19  C   UNL     1       8.045   9.173  17.924  0.00  0.00    +0.000 C 
BRANCH  19  20
ATOM     20  O   UNL     1       8.853   9.425  19.070  0.00  0.00    +0.000 OA
BRANCH  20  28
ATOM     21  C   UNL     1       9.034  11.230  21.673  0.00  0.00    +0.000 C 
ATOM     22  C   UNL     1       9.648  11.462  20.323  0.00  0.00    +0.000 A 
ATOM     23  C   UNL     1      10.469  12.617  20.223  0.00  0.00    +0.000 A 
ATOM     24  C   UNL     1      11.185  12.915  19.063  0.00  0.00    +0.000 A 
ATOM     25 CL   UNL     1      12.194  14.308  19.007  0.00  0.00    +0.000 Cl
ATOM     26  C   UNL     1      11.092  12.069  17.973  0.00  0.00    +0.000 A 
ATOM     27  C   UNL     1      10.272  10.934  18.047  0.00  0.00    +0.000 A 
ATOM     28  C   UNL     1       9.542  10.611  19.211  0.00  0.00    +0.000 A 
ENDBRANCH  20  28
ENDBRANCH  19  20
ENDBRANCH   1  19
TORSDOF 5
ENDMDL
MODEL 2
REMARK VINA RESULT:      -8.5      5.516      6.778
REMARK  Name = 
REMARK  6 active torsions:
REMARK  status: ('A' for Active; 'I' for Inactive)
REMARK    1  A    between atoms: C_1  and  C_2
REMARK    2  A    between atoms: C_8  and  O_9
REMARK    3  A    between atoms: O_9  and  C_10
REMARK    4  A    between atoms: C_10  and  C_11
REMARK    5  A    between atoms: N_13  and  C_14
REMARK    6  A    between atoms: C_19  and  C_20
REMARK                            x       y       z     vdW  Elec       q    Type
REMARK                         _______ _______ _______ _____ _____    ______ ____
ROOT
ATOM      1  C   UNL     1       3.044   6.869  17.955  0.00  0.00    +0.000 C 
ATOM      2  O   UNL     1       2.224   5.992  17.694  0.00  0.00    +0.000 OA
ATOM      3  N   UNL     1       4.390   6.848  17.557  0.00  0.00    +0.000 N 
ATOM      4  H   UNL     1       4.915   7.711  17.637  0.00  0.00    +0.000 HD
ENDROOT
BRANCH   3   5
ATOM      5  C   UNL     1       4.975   5.829  16.744  0.00  0.00    +0.000 A 
ATOM      6  C   UNL     1       5.255   6.103  15.389  0.00  0.00    +0.000 A 
ATOM      7  C   UNL     1       5.777   5.139  14.518  0.00  0.00    +0.000 A 
ATOM      8  C   UNL     1       6.051   3.866  14.982  0.00  0.00    +0.000 A 
ATOM      9  C   UNL     1       5.790   3.560  16.315  0.00  0.00    +0.000 A 
ATOM     10  C   UNL     1       5.248   4.521  17.216  0.00  0.00    +0.000 A 
BRANCH  10  11
ATOM     11  C   UNL     1       5.000   3.945  18.573  0.00  0.00    +0.000 C 
ATOM     12  O   UNL     1       5.771   4.301  19.468  0.00  0.00    +0.000 OA
ATOM     13  N   UNL     1       3.915   3.117  18.858  0.00  0.00    +0.000 N 
ATOM     14  C   UNL     1       2.942   2.532  17.933  0.00  0.00    +0.000 C 
ATOM     15  C   UNL     1       1.505   2.556  18.457  0.00  0.00    +0.000 C 
ATOM     16  O   UNL     1       1.410   2.091  19.808  0.00  0.00    +0.000 OA
ATOM     17  C   UNL     1       2.255   2.873  20.663  0.00  0.00    +0.000 C 
ATOM     18  C   UNL     1       3.719   2.700  20.255  0.00  0.00    +0.000 C 
ENDBRANCH  10  11
ENDBRANCH   3   5
BRANCH   1  19
ATOM     19  C   UNL     1       2.591   8.133  18.727  0.00  0.00    +0.000 C 
BRANCH  19  20
ATOM     20  O   UNL     1       1.742   7.823  19.829  0.00  0.00    +0.000 OA
BRANCH  20  28
ATOM     21  C   UNL     1      -0.036  10.054  18.440  0.00  0.00    +0.000 C 
ATOM     22  C   UNL     1       0.211   9.824  19.904  0.00  0.00    +0.000 A 
ATOM     23  C   UNL     1      -0.498  10.687  20.780  0.00  0.00    +0.000 A 
ATOM     24  C   UNL     1      -0.448  10.536  22.166  0.00  0.00    +0.000 A 
ATOM     25 CL   UNL     1      -1.356  11.588  23.181  0.00  0.00    +0.000 Cl
ATOM     26  C   UNL     1       0.319   9.521  22.709  0.00  0.00    +0.000 A 
ATOM     27  C   UNL     1       1.039   8.670  21.860  0.00  0.00    +0.000 A 
ATOM     28  C   UNL     1       1.001   8.802  20.456  0.00  0.00    +0.000 A 
ENDBRANCH  20  28
ENDBRANCH  19  20
ENDBRANCH   1  19
TORSDOF 5
ENDMDL
MODEL 3
REMARK VINA RESULT:      -8.3      0.781      1.551
REMARK  Name = 
REMARK  6 active torsions:
REMARK  status: ('A' for Active; 'I' for Inactive)
REMARK    1  A    between atoms: C_1  and  C_2
REMARK    2  A    between atoms: C_8  and  O_9
REMARK    3  A    between atoms: O_9  and  C_10
REMARK    4  A    between atoms: C_10  and  C_11
REMARK    5  A    between atoms: N_13  and  C_14
REMARK    6  A    between atoms: C_19  and  C_20
REMARK                            x       y       z     vdW  Elec       q    Type
REMARK                         _______ _______ _______ _____ _____    ______ ____
ROOT
ATOM      1  C   UNL     1       7.784   7.743  17.930  0.00  0.00    +0.000 C 
ATOM      2  O   UNL     1       8.155   6.892  18.734  0.00  0.00    +0.000 OA
ATOM      3  N   UNL     1       6.995   7.484  16.799  0.00  0.00    +0.000 N 
ATOM      4  H   UNL     1       6.570   8.277  16.332  0.00  0.00    +0.000 HD
ENDROOT
BRANCH   3   5
ATOM      5  C   UNL     1       6.468   6.200  16.460  0.00  0.00    +0.000 A 
ATOM      6  C   UNL     1       7.178   5.377  15.560  0.00  0.00    +0.000 A 
ATOM      7  C   UNL     1       6.699   4.131  15.139  0.00  0.00    +0.000 A 
ATOM      8  C   UNL     1       5.493   3.657  15.621  0.00  0.00    +0.000 A 
ATOM      9  C   UNL     1       4.765   4.440  16.513  0.00  0.00    +0.000 A 
ATOM     10  C   UNL     1       5.228   5.716  16.946  0.00  0.00    +0.000 A 
BRANCH  10  11
ATOM     11  C   UNL     1       4.251   6.392  17.854  0.00  0.00    +0.000 C 
ATOM     12  O   UNL     1       3.819   7.484  17.475  0.00  0.00    +0.000 OA
ATOM     13  N   UNL     1       3.774   5.806  19.025  0.00  0.00    +0.000 N 
ATOM     14  C   UNL     1       4.209   4.566  19.672  0.00  0.00    +0.000 C 
ATOM     15  C   UNL     1       3.058   3.723  20.222  0.00  0.00    +0.000 C 
ATOM     16  O   UNL     1       2.124   4.502  20.977  0.00  0.00    +0.000 OA
ATOM     17  C   UNL     1       1.606   5.572  20.174  0.00  0.00    +0.000 C 
ATOM     18  C   UNL     1       2.734   6.525  19.778  0.00  0.00    +0.000 C 
ENDBRANCH  10  11
ENDBRANCH   3   5
BRANCH   1  19
ATOM     19  C   UNL     1       8.141   9.231  18.173  0.00  0.00    +0.000 C 
BRANCH  19  20
ATOM     20  O   UNL     1       9.250   9.388  19.054  0.00  0.00    +0.000 OA
BRANCH  20  28
ATOM     21  C   UNL     1      10.817  11.641  17.462  0.00  0.00    +0.000 C 
ATOM     22  C   UNL     1      10.323  11.662  18.880  0.00  0.00    +0.000 A 
ATOM     23  C   UNL     1      10.536  12.881  19.576  0.00  0.00    +0.000 A 
ATOM     24  C   UNL     1      10.049  13.088  20.867  0.00  0.00    +0.000 A 
ATOM     25 CL   UNL     1      10.305  14.598  21.653  0.00  0.00    +0.000 Cl
ATOM     26  C   UNL     1       9.343  12.078  21.495  0.00  0.00    +0.000 A 
ATOM     27  C   UNL     1       9.137  10.862  20.829  0.00  0.00    +0.000 A 
ATOM     28  C   UNL     1       9.618  10.631  19.523  0.00  0.00    +0.000 A 
ENDBRANCH  20  28
ENDBRANCH  19  20
ENDBRANCH   1  19
TORSDOF 5
ENDMDL
MODEL 4
REMARK VINA RESULT:      -8.2      5.538      6.969
REMARK  Name = 
REMARK  6 active torsions:
REMARK  status: ('A' for Active; 'I' for Inactive)
REMARK    1  A    between atoms: C_1  and  C_2
REMARK    2  A    between atoms: C_8  and  O_9
REMARK    3  A    between atoms: O_9  and  C_10
REMARK    4  A    between atoms: C_10  and  C_11
REMARK    5  A    between atoms: N_13  and  C_14
REMARK    6  A    between atoms: C_19  and  C_20
REMARK                            x       y       z     vdW  Elec       q    Type
REMARK                         _______ _______ _______ _____ _____    ______ ____
ROOT
ATOM      1  C   UNL     1       2.724   6.785  18.215  0.00  0.00    +0.000 C 
ATOM      2  O   UNL     1       1.934   5.993  17.709  0.00  0.00    +0.000 OA
ATOM      3  N   UNL     1       4.107   6.799  17.977  0.00  0.00    +0.000 N 
ATOM      4  H   UNL     1       4.625   7.619  18.270  0.00  0.00    +0.000 HD
ENDROOT
BRANCH   3   5
ATOM      5  C   UNL     1       4.776   5.926  17.066  0.00  0.00    +0.000 A 
ATOM      6  C   UNL     1       5.020   6.360  15.745  0.00  0.00    +0.000 A 
ATOM      7  C   UNL     1       5.620   5.541  14.782  0.00  0.00    +0.000 A 
ATOM      8  C   UNL     1       6.015   4.258  15.115  0.00  0.00    +0.000 A 
ATOM      9  C   UNL     1       5.793   3.797  16.410  0.00  0.00    +0.000 A 
ATOM     10  C   UNL     1       5.173   4.608  17.403  0.00  0.00    +0.000 A 
BRANCH  10  11
ATOM     11  C   UNL     1       4.989   3.877  18.695  0.00  0.00    +0.000 C 
ATOM     12  O   UNL     1       5.847   4.074  19.560  0.00  0.00    +0.000 OA
ATOM     13  N   UNL     1       3.878   3.079  18.962  0.00  0.00    +0.000 N 
ATOM     14  C   UNL     1       2.803   2.671  18.056  0.00  0.00    +0.000 C 
ATOM     15  C   UNL     1       1.414   2.705  18.694  0.00  0.00    +0.000 C 
ATOM     16  O   UNL     1       1.390   2.077  19.980  0.00  0.00    +0.000 OA
ATOM     17  C   UNL     1       2.344   2.696  20.854  0.00  0.00    +0.000 C 
ATOM     18  C   UNL     1       3.760   2.498  20.309  0.00  0.00    +0.000 C 
ENDBRANCH  10  11
ENDBRANCH   3   5
BRANCH   1  19
ATOM     19  C   UNL     1       2.191   7.903  19.146  0.00  0.00    +0.000 C 
BRANCH  19  20
ATOM     20  O   UNL     1       1.454   8.896  18.439  0.00  0.00    +0.000 OA
BRANCH  20  28
ATOM     21  C   UNL     1      -1.302  10.029  17.349  0.00  0.00    +0.000 C 
ATOM     22  C   UNL     1      -0.632  10.293  18.667  0.00  0.00    +0.000 A 
ATOM     23  C   UNL     1      -1.365  11.113  19.565  0.00  0.00    +0.000 A 
ATOM     24  C   UNL     1      -0.920  11.369  20.861  0.00  0.00    +0.000 A 
ATOM     25 CL   UNL     1      -1.865  12.342  21.921  0.00  0.00    +0.000 Cl
ATOM     26  C   UNL     1       0.274  10.818  21.289  0.00  0.00    +0.000 A 
ATOM     27  C   UNL     1       1.020  10.020  20.411  0.00  0.00    +0.000 A 
ATOM     28  C   UNL     1       0.588   9.744  19.096  0.00  0.00    +0.000 A 
ENDBRANCH  20  28
ENDBRANCH  19  20
ENDBRANCH   1  19
TORSDOF 5
ENDMDL
MODEL 5
REMARK VINA RESULT:      -8.1      5.079      5.936
REMARK  Name = 
REMARK  6 active torsions:
REMARK  status: ('A' for Active; 'I' for Inactive)
REMARK    1  A    between atoms: C_1  and  C_2
REMARK    2  A    between atoms: C_8  and  O_9
REMARK    3  A    between atoms: O_9  and  C_10
REMARK    4  A    between atoms: C_10  and  C_11
REMARK    5  A    between atoms: N_13  and  C_14
REMARK    6  A    between atoms: C_19  and  C_20
REMARK                            x       y       z     vdW  Elec       q    Type
REMARK                         _______ _______ _______ _____ _____    ______ ____
ROOT
ATOM      1  C   UNL     1       2.851   6.683  18.097  0.00  0.00    +0.000 C 
ATOM      2  O   UNL     1       2.092   5.774  17.770  0.00  0.00    +0.000 OA
ATOM      3  N   UNL     1       4.201   6.772  17.722  0.00  0.00    +0.000 N 
ATOM      4  H   UNL     1       4.668   7.660  17.862  0.00  0.00    +0.000 HD
ENDROOT
BRANCH   3   5
ATOM      5  C   UNL     1       4.861   5.843  16.861  0.00  0.00    +0.000 A 
ATOM      6  C   UNL     1       5.118   6.206  15.521  0.00  0.00    +0.000 A 
ATOM      7  C   UNL     1       5.711   5.330  14.604  0.00  0.00    +0.000 A 
ATOM      8  C   UNL     1       6.083   4.060  15.004  0.00  0.00    +0.000 A 
ATOM      9  C   UNL     1       5.847   3.668  16.320  0.00  0.00    +0.000 A 
ATOM     10  C   UNL     1       5.234   4.538  17.266  0.00  0.00    +0.000 A 
BRANCH  10  11
ATOM     11  C   UNL     1       5.032   3.876  18.592  0.00  0.00    +0.000 C 
ATOM     12  O   UNL     1       5.829   4.183  19.483  0.00  0.00    +0.000 OA
ATOM     13  N   UNL     1       3.962   3.024  18.858  0.00  0.00    +0.000 N 
ATOM     14  C   UNL     1       2.964   2.489  17.930  0.00  0.00    +0.000 C 
ATOM     15  C   UNL     1       1.544   2.468  18.498  0.00  0.00    +0.000 C 
ATOM     16  O   UNL     1       1.495   1.919  19.819  0.00  0.00    +0.000 OA
ATOM     17  C   UNL     1       2.361   2.653  20.695  0.00  0.00    +0.000 C 
ATOM     18  C   UNL     1       3.813   2.519  20.233  0.00  0.00    +0.000 C 
ENDBRANCH  10  11
ENDBRANCH   3   5
BRANCH   1  19
ATOM     19  C   UNL     1       2.307   7.867  18.935  0.00  0.00    +0.000 C 
BRANCH  19  20
ATOM     20  O   UNL     1       1.589   8.810  18.145  0.00  0.00    +0.000 OA
BRANCH  20  28
ATOM     21  C   UNL     1      -0.374   9.817  20.425  0.00  0.00    +0.000 C 
ATOM     22  C   UNL     1       0.551  10.621  19.557  0.00  0.00    +0.000 A 
ATOM     23  C   UNL     1       0.591  12.011  19.843  0.00  0.00    +0.000 A 
ATOM     24  C   UNL     1       1.472  12.873  19.189  0.00  0.00    +0.000 A 
ATOM     25 CL   UNL     1       1.505  14.545  19.599  0.00  0.00    +0.000 Cl
ATOM     26  C   UNL     1       2.328  12.367  18.228  0.00  0.00    +0.000 A 
ATOM     27  C   UNL     1       2.290  11.000  17.921  0.00  0.00    +0.000 A 
ATOM     28  C   UNL     1       1.410  10.109  18.571  0.00  0.00    +0.000 A 
ENDBRANCH  20  28
ENDBRANCH  19  20
ENDBRANCH   1  19
TORSDOF 5
ENDMDL
MODEL 6
REMARK VINA RESULT:      -8.1      5.303      6.528
REMARK  Name = 
REMARK  6 active torsions:
REMARK  status: ('A' for Active; 'I' for Inactive)
REMARK    1  A    between atoms: C_1  and  C_2
REMARK    2  A    between atoms: C_8  and  O_9
REMARK    3  A    between atoms: O_9  and  C_10
REMARK    4  A    between atoms: C_10  and  C_11
REMARK    5  A    between atoms: N_13  and  C_14
REMARK    6  A    between atoms: C_19  and  C_20
REMARK                            x       y       z     vdW  Elec       q    Type
REMARK                         _______ _______ _______ _____ _____    ______ ____
ROOT
ATOM      1  C   UNL     1       2.834   6.781  18.095  0.00  0.00    +0.000 C 
ATOM      2  O   UNL     1       2.064   5.890  17.745  0.00  0.00    +0.000 OA
ATOM      3  N   UNL     1       4.191   6.848  17.746  0.00  0.00    +0.000 N 
ATOM      4  H   UNL     1       4.673   7.726  17.904  0.00  0.00    +0.000 HD
ENDROOT
BRANCH   3   5
ATOM      5  C   UNL     1       4.850   5.917  16.885  0.00  0.00    +0.000 A 
ATOM      6  C   UNL     1       5.113   6.279  15.547  0.00  0.00    +0.000 A 
ATOM      7  C   UNL     1       5.704   5.401  14.631  0.00  0.00    +0.000 A 
ATOM      8  C   UNL     1       6.067   4.129  15.031  0.00  0.00    +0.000 A 
ATOM      9  C   UNL     1       5.825   3.737  16.345  0.00  0.00    +0.000 A 
ATOM     10  C   UNL     1       5.214   4.609  17.291  0.00  0.00    +0.000 A 
BRANCH  10  11
ATOM     11  C   UNL     1       5.004   3.947  18.615  0.00  0.00    +0.000 C 
ATOM     12  O   UNL     1       5.795   4.256  19.511  0.00  0.00    +0.000 OA
ATOM     13  N   UNL     1       3.935   3.092  18.873  0.00  0.00    +0.000 N 
ATOM     14  C   UNL     1       2.945   2.555  17.938  0.00  0.00    +0.000 C 
ATOM     15  C   UNL     1       1.521   2.530  18.496  0.00  0.00    +0.000 C 
ATOM     16  O   UNL     1       1.463   1.982  19.817  0.00  0.00    +0.000 OA
ATOM     17  C   UNL     1       2.321   2.718  20.699  0.00  0.00    +0.000 C 
ATOM     18  C   UNL     1       3.777   2.587  20.247  0.00  0.00    +0.000 C 
ENDBRANCH  10  11
ENDBRANCH   3   5
BRANCH   1  19
ATOM     19  C   UNL     1       2.297   7.965  18.937  0.00  0.00    +0.000 C 
BRANCH  19  20
ATOM     20  O   UNL     1       2.140   9.154  18.168  0.00  0.00    +0.000 OA
BRANCH  20  28
ATOM     21  C   UNL     1       2.698  12.273  18.015  0.00  0.00    +0.000 C 
ATOM     22  C   UNL     1       1.495  11.559  18.560  0.00  0.00    +0.000 A 
ATOM     23  C   UNL     1       0.444  12.401  19.011  0.00  0.00    +0.000 A 
ATOM     24  C   UNL     1      -0.774  11.887  19.454  0.00  0.00    +0.000 A 
ATOM     25 CL   UNL     1      -2.028  12.954  19.956  0.00  0.00    +0.000 Cl
ATOM     26  C   UNL     1      -0.969  10.518  19.465  0.00  0.00    +0.000 A 
ATOM     27  C   UNL     1       0.064   9.670  19.040  0.00  0.00    +0.000 A 
ATOM     28  C   UNL     1       1.303  10.168  18.584  0.00  0.00    +0.000 A 
ENDBRANCH  20  28
ENDBRANCH  19  20
ENDBRANCH   1  19
TORSDOF 5
ENDMDL
MODEL 7
REMARK VINA RESULT:      -8.0      5.116      7.823
REMARK  Name = 
REMARK  6 active torsions:
REMARK  status: ('A' for Active; 'I' for Inactive)
REMARK    1  A    between atoms: C_1  and  C_2
REMARK    2  A    between atoms: C_8  and  O_9
REMARK    3  A    between atoms: O_9  and  C_10
REMARK    4  A    between atoms: C_10  and  C_11
REMARK    5  A    between atoms: N_13  and  C_14
REMARK    6  A    between atoms: C_19  and  C_20
REMARK                            x       y       z     vdW  Elec       q    Type
REMARK                         _______ _______ _______ _____ _____    ______ ____
ROOT
ATOM      1  C   UNL     1       2.293   7.276  18.463  0.00  0.00    +0.000 C 
ATOM      2  O   UNL     1       1.816   6.617  17.542  0.00  0.00    +0.000 OA
ATOM      3  N   UNL     1       2.813   6.734  19.649  0.00  0.00    +0.000 N 
ATOM      4  H   UNL     1       3.371   7.342  20.236  0.00  0.00    +0.000 HD
ENDROOT
BRANCH   3   5
ATOM      5  C   UNL     1       2.908   5.335  19.921  0.00  0.00    +0.000 A 
ATOM      6  C   UNL     1       1.819   4.673  20.529  0.00  0.00    +0.000 A 
ATOM      7  C   UNL     1       1.860   3.318  20.876  0.00  0.00    +0.000 A 
ATOM      8  C   UNL     1       2.993   2.571  20.611  0.00  0.00    +0.000 A 
ATOM      9  C   UNL     1       4.086   3.190  20.010  0.00  0.00    +0.000 A 
ATOM     10  C   UNL     1       4.072   4.570  19.659  0.00  0.00    +0.000 A 
BRANCH  10  11
ATOM     11  C   UNL     1       5.377   5.019  19.083  0.00  0.00    +0.000 C 
ATOM     12  O   UNL     1       6.293   5.206  19.888  0.00  0.00    +0.000 OA
ATOM     13  N   UNL     1       5.597   5.145  17.713  0.00  0.00    +0.000 N 
ATOM     14  C   UNL     1       4.633   5.037  16.616  0.00  0.00    +0.000 C 
ATOM     15  C   UNL     1       5.167   4.278  15.400  0.00  0.00    +0.000 C 
ATOM     16  O   UNL     1       6.473   4.716  15.014  0.00  0.00    +0.000 OA
ATOM     17  C   UNL     1       7.387   4.584  16.112  0.00  0.00    +0.000 C 
ATOM     18  C   UNL     1       6.956   5.492  17.266  0.00  0.00    +0.000 C 
ENDBRANCH  10  11
ENDBRANCH   3   5
BRANCH   1  19
ATOM     19  C   UNL     1       2.402   8.815  18.323  0.00  0.00    +0.000 C 
BRANCH  19  20
ATOM     20  O   UNL     1       1.229   9.395  17.760  0.00  0.00    +0.000 OA
BRANCH  20  28
ATOM     21  C   UNL     1      -1.824   9.990  17.133  0.00  0.00    +0.000 C 
ATOM     22  C   UNL     1      -1.002  10.432  18.309  0.00  0.00    +0.000 A 
ATOM     23  C   UNL     1      -1.709  11.164  19.300  0.00  0.00    +0.000 A 
ATOM     24  C   UNL     1      -1.107  11.559  20.495  0.00  0.00    +0.000 A 
ATOM     25 CL   UNL     1      -2.019  12.414  21.678  0.00  0.00    +0.000 Cl
ATOM     26  C   UNL     1       0.219  11.239  20.724  0.00  0.00    +0.000 A 
ATOM     27  C   UNL     1       0.937  10.532  19.750  0.00  0.00    +0.000 A 
ATOM     28  C   UNL     1       0.348  10.119  18.536  0.00  0.00    +0.000 A 
ENDBRANCH  20  28
ENDBRANCH  19  20
ENDBRANCH   1  19
TORSDOF 5
ENDMDL
MODEL 8
REMARK VINA RESULT:      -8.0      5.399      7.943
REMARK  Name = 
REMARK  6 active torsions:
REMARK  status: ('A' for Active; 'I' for Inactive)
REMARK    1  A    between atoms: C_1  and  C_2
REMARK    2  A    between atoms: C_8  and  O_9
REMARK    3  A    between atoms: O_9  and  C_10
REMARK    4  A    between atoms: C_10  and  C_11
REMARK    5  A    between atoms: N_13  and  C_14
REMARK    6  A    between atoms: C_19  and  C_20
REMARK                            x       y       z     vdW  Elec       q    Type
REMARK                         _______ _______ _______ _____ _____    ______ ____
ROOT
ATOM      1  C   UNL     1       2.251   7.120  18.881  0.00  0.00    +0.000 C 
ATOM      2  O   UNL     1       2.244   6.952  20.098  0.00  0.00    +0.000 OA
ATOM      3  N   UNL     1       2.356   6.091  17.932  0.00  0.00    +0.000 N 
ATOM      4  H   UNL     1       2.135   6.318  16.969  0.00  0.00    +0.000 HD
ENDROOT
BRANCH   3   5
ATOM      5  C   UNL     1       2.412   4.700  18.253  0.00  0.00    +0.000 A 
ATOM      6  C   UNL     1       1.209   3.982  18.422  0.00  0.00    +0.000 A 
ATOM      7  C   UNL     1       1.183   2.631  18.790  0.00  0.00    +0.000 A 
ATOM      8  C   UNL     1       2.368   1.948  18.989  0.00  0.00    +0.000 A 
ATOM      9  C   UNL     1       3.575   2.624  18.829  0.00  0.00    +0.000 A 
ATOM     10  C   UNL     1       3.625   4.000  18.466  0.00  0.00    +0.000 A 
BRANCH  10  11
ATOM     11  C   UNL     1       5.027   4.520  18.413  0.00  0.00    +0.000 C 
ATOM     12  O   UNL     1       5.680   4.434  19.457  0.00  0.00    +0.000 OA
ATOM     13  N   UNL     1       5.614   4.998  17.244  0.00  0.00    +0.000 N 
ATOM     14  C   UNL     1       4.993   5.241  15.940  0.00  0.00    +0.000 C 
ATOM     15  C   UNL     1       5.861   4.811  14.756  0.00  0.00    +0.000 C 
ATOM     16  O   UNL     1       7.212   5.268  14.876  0.00  0.00    +0.000 OA
ATOM     17  C   UNL     1       7.789   4.797  16.101  0.00  0.00    +0.000 C 
ATOM     18  C   UNL     1       7.034   5.381  17.296  0.00  0.00    +0.000 C 
ENDBRANCH  10  11
ENDBRANCH   3   5
BRANCH   1  19
ATOM     19  C   UNL     1       2.077   8.548  18.308  0.00  0.00    +0.000 C 
BRANCH  19  20
ATOM     20  O   UNL     1       1.517   9.452  19.256  0.00  0.00    +0.000 OA
BRANCH  20  28
ATOM     21  C   UNL     1       0.094  11.625  21.078  0.00  0.00    +0.000 C 
ATOM     22  C   UNL     1      -0.412  10.971  19.824  0.00  0.00    +0.000 A 
ATOM     23  C   UNL     1      -1.672  11.438  19.365  0.00  0.00    +0.000 A 
ATOM     24  C   UNL     1      -2.230  10.998  18.164  0.00  0.00    +0.000 A 
ATOM     25 CL   UNL     1      -3.744  11.623  17.636  0.00  0.00    +0.000 Cl
ATOM     26  C   UNL     1      -1.543  10.074  17.397  0.00  0.00    +0.000 A 
ATOM     27  C   UNL     1      -0.306   9.589  17.843  0.00  0.00    +0.000 A 
ATOM     28  C   UNL     1       0.278  10.022  19.052  0.00  0.00    +0.000 A 
ENDBRANCH  20  28
ENDBRANCH  19  20
ENDBRANCH   1  19
TORSDOF 5
ENDMDL
MODEL 9
REMARK VINA RESULT:      -8.0      5.179      7.843
REMARK  Name = 
REMARK  6 active torsions:
REMARK  status: ('A' for Active; 'I' for Inactive)
REMARK    1  A    between atoms: C_1  and  C_2
REMARK    2  A    between atoms: C_8  and  O_9
REMARK    3  A    between atoms: O_9  and  C_10
REMARK    4  A    between atoms: C_10  and  C_11
REMARK    5  A    between atoms: N_13  and  C_14
REMARK    6  A    between atoms: C_19  and  C_20
REMARK                            x       y       z     vdW  Elec       q    Type
REMARK                         _______ _______ _______ _____ _____    ______ ____
ROOT
ATOM      1  C   UNL     1       2.291   7.278  18.791  0.00  0.00    +0.000 C 
ATOM      2  O   UNL     1       2.357   7.159  20.012  0.00  0.00    +0.000 OA
ATOM      3  N   UNL     1       2.252   6.209  17.883  0.00  0.00    +0.000 N 
ATOM      4  H   UNL     1       1.981   6.414  16.929  0.00  0.00    +0.000 HD
ENDROOT
BRANCH   3   5
ATOM      5  C   UNL     1       2.226   4.831  18.262  0.00  0.00    +0.000 A 
ATOM      6  C   UNL     1       0.998   4.136  18.255  0.00  0.00    +0.000 A 
ATOM      7  C   UNL     1       0.885   2.802  18.665  0.00  0.00    +0.000 A 
ATOM      8  C   UNL     1       2.008   2.111  19.082  0.00  0.00    +0.000 A 
ATOM      9  C   UNL     1       3.238   2.765  19.099  0.00  0.00    +0.000 A 
ATOM     10  C   UNL     1       3.374   4.125  18.698  0.00  0.00    +0.000 A 
BRANCH  10  11
ATOM     11  C   UNL     1       4.775   4.623  18.859  0.00  0.00    +0.000 C 
ATOM     12  O   UNL     1       5.187   4.729  20.018  0.00  0.00    +0.000 OA
ATOM     13  N   UNL     1       5.617   4.877  17.779  0.00  0.00    +0.000 N 
ATOM     14  C   UNL     1       5.299   4.878  16.349  0.00  0.00    +0.000 C 
ATOM     15  C   UNL     1       6.380   4.236  15.478  0.00  0.00    +0.000 C 
ATOM     16  O   UNL     1       7.693   4.705  15.805  0.00  0.00    +0.000 OA
ATOM     17  C   UNL     1       7.976   4.466  17.191  0.00  0.00    +0.000 C 
ATOM     18  C   UNL     1       7.008   5.261  18.069  0.00  0.00    +0.000 C 
ENDBRANCH  10  11
ENDBRANCH   3   5
BRANCH   1  19
ATOM     19  C   UNL     1       2.184   8.693  18.168  0.00  0.00    +0.000 C 
BRANCH  19  20
ATOM     20  O   UNL     1       0.868   8.988  17.709  0.00  0.00    +0.000 OA
BRANCH  20  28
ATOM     21  C   UNL     1      -2.046   9.926  16.877  0.00  0.00    +0.000 C 
ATOM     22  C   UNL     1      -1.210  10.376  18.040  0.00  0.00    +0.000 A 
ATOM     23  C   UNL     1      -1.839  11.300  18.915  0.00  0.00    +0.000 A 
ATOM     24  C   UNL     1      -1.228  11.737  20.091  0.00  0.00    +0.000 A 
ATOM     25 CL   UNL     1      -2.049  12.832  21.135  0.00  0.00    +0.000 Cl
ATOM     26  C   UNL     1       0.031  11.264  20.416  0.00  0.00    +0.000 A 
ATOM     27  C   UNL     1       0.674  10.364  19.556  0.00  0.00    +0.000 A 
ATOM     28  C   UNL     1       0.074   9.907  18.363  0.00  0.00    +0.000 A 
ENDBRANCH  20  28
ENDBRANCH  19  20
ENDBRANCH   1  19
TORSDOF 5
ENDMDL
