MODEL 1
REMARK VINA RESULT:      -7.4      0.000      0.000
REMARK  Name = 
REMARK  10 active torsions:
REMARK  status: ('A' for Active; 'I' for Inactive)
REMARK    1  A    between atoms: C_1  and  C_2
REMARK    2  A    between atoms: C_2  and  C_3
REMARK    3  A    between atoms: C_3  and  C_4
REMARK    4  A    between atoms: C_4  and  C_5
REMARK    5  A    between atoms: C_5  and  C_6
REMARK    6  A    between atoms: C_9  and  C_10
REMARK    7  A    between atoms: N_12  and  C_13
REMARK    8  A    between atoms: N_22  and  C_23
REMARK    9  A    between atoms: C_23  and  C_24
REMARK   10  A    between atoms: C_23  and  C_25
REMARK                            x       y       z     vdW  Elec       q    Type
REMARK                         _______ _______ _______ _____ _____    ______ ____
ROOT
ATOM      1  C   UNL     1       0.382  10.519  19.978  0.00  0.00    +0.000 C 
ATOM      2  O   UNL     1      -0.436  11.048  19.240  0.00  0.00    +0.000 OA
ATOM      3  N   UNL     1       0.531  10.961  21.255  0.00  0.00    +0.000 N 
ATOM      4  H   UNL     1       1.185  10.454  21.864  0.00  0.00    +0.000 HD
ENDROOT
BRANCH   3   5
ATOM      5  C   UNL     1      -0.278  11.937  21.919  0.00  0.00    +0.000 A 
ATOM      6  C   UNL     1      -0.119  13.362  21.867  0.00  0.00    +0.000 A 
ATOM      7  C   UNL     1      -1.067  14.231  22.506  0.00  0.00    +0.000 A 
ATOM      8  C   UNL     1      -2.170  13.636  23.157  0.00  0.00    +0.000 A 
ATOM      9  C   UNL     1      -2.260  12.266  23.183  0.00  0.00    +0.000 A 
ATOM     10  C   UNL     1      -1.358  11.414  22.622  0.00  0.00    +0.000 A 
ATOM     11  N   UNL     1      -3.368  11.860  23.797  0.00  0.00    +0.000 NA
ATOM     12  C   UNL     1      -3.965  12.997  24.144  0.00  0.00    +0.000 A 
ATOM     13  N   UNL     1      -5.248  12.974  24.756  0.00  0.00    +0.000 N 
ATOM     14  N   UNL     1      -3.270  14.135  23.814  0.00  0.00    +0.000 N 
ATOM     15  H   UNL     1      -5.694  12.066  24.939  0.00  0.00    +0.000 HD
ATOM     16  H   UNL     1      -5.787  13.818  24.962  0.00  0.00    +0.000 HD
BRANCH  14  17
ATOM     17  C   UNL     1      -3.838  15.461  24.184  0.00  0.00    +0.000 C 
ATOM     18  C   UNL     1      -3.084  15.986  25.430  0.00  0.00    +0.000 C 
ATOM     19  C   UNL     1      -3.911  16.590  23.150  0.00  0.00    +0.000 C 
ENDBRANCH  14  17
ENDBRANCH   3   5
BRANCH   1  23
ATOM     20  C   UNL     1       2.563   7.018  18.668  0.00  0.00    +0.000 A 
ATOM     21  C   UNL     1       2.135   7.154  19.994  0.00  0.00    +0.000 A 
ATOM     22  C   UNL     1       1.427   8.286  20.393  0.00  0.00    +0.000 A 
ATOM     23  C   UNL     1       1.126   9.312  19.482  0.00  0.00    +0.000 A 
ATOM     24  C   UNL     1       1.579   9.169  18.143  0.00  0.00    +0.000 A 
ATOM     25  C   UNL     1       2.286   8.034  17.748  0.00  0.00    +0.000 A 
BRANCH  20  26
ATOM     26  C   UNL     1       3.304   5.793  18.228  0.00  0.00    +0.000 C 
BRANCH  26  27
ATOM     27  C   UNL     1       2.315   4.700  17.821  0.00  0.00    +0.000 C 
BRANCH  27  28
ATOM     28  C   UNL     1       2.377   3.552  18.818  0.00  0.00    +0.000 C 
BRANCH  28  30
ATOM     29  C   UNL     1       1.363   3.377  21.095  0.00  0.00    +0.000 C 
ATOM     30  C   UNL     1       1.072   3.433  19.600  0.00  0.00    +0.000 C 
ENDBRANCH  28  30
ENDBRANCH  27  28
ENDBRANCH  26  27
ENDBRANCH  20  26
ENDBRANCH   1  23
TORSDOF 7
ENDMDL
MODEL 2
REMARK VINA RESULT:      -7.3      3.513      5.242
REMARK  Name = 
REMARK  10 active torsions:
REMARK  status: ('A' for Active; 'I' for Inactive)
REMARK    1  A    between atoms: C_1  and  C_2
REMARK    2  A    between atoms: C_2  and  C_3
REMARK    3  A    between atoms: C_3  and  C_4
REMARK    4  A    between atoms: C_4  and  C_5
REMARK    5  A    between atoms: C_5  and  C_6
REMARK    6  A    between atoms: C_9  and  C_10
REMARK    7  A    between atoms: N_12  and  C_13
REMARK    8  A    between atoms: N_22  and  C_23
REMARK    9  A    between atoms: C_23  and  C_24
REMARK   10  A    between atoms: C_23  and  C_25
REMARK                            x       y       z     vdW  Elec       q    Type
REMARK                         _______ _______ _______ _____ _____    ______ ____
ROOT
ATOM      1  C   UNL     1       2.429   7.430  18.455  0.00  0.00    +0.000 C 
ATOM      2  O   UNL     1       2.077   7.098  19.577  0.00  0.00    +0.000 OA
ATOM      3  N   UNL     1       1.903   8.546  17.882  0.00  0.00    +0.000 N 
ATOM      4  H   UNL     1       2.267   8.829  16.963  0.00  0.00    +0.000 HD
ENDROOT
BRANCH   3   5
ATOM      5  C   UNL     1       1.039   9.499  18.507  0.00  0.00    +0.000 A 
ATOM      6  C   UNL     1       1.398  10.448  19.523  0.00  0.00    +0.000 A 
ATOM      7  C   UNL     1       0.448  11.416  19.994  0.00  0.00    +0.000 A 
ATOM      8  C   UNL     1      -0.835  11.420  19.404  0.00  0.00    +0.000 A 
ATOM      9  C   UNL     1      -1.123  10.479  18.446  0.00  0.00    +0.000 A 
ATOM     10  C   UNL     1      -0.259   9.523  18.006  0.00  0.00    +0.000 A 
ATOM     11  N   UNL     1      -2.352  10.634  17.962  0.00  0.00    +0.000 NA
ATOM     12  C   UNL     1      -2.817  11.687  18.628  0.00  0.00    +0.000 A 
ATOM     13  N   UNL     1      -4.097  12.224  18.315  0.00  0.00    +0.000 N 
ATOM     14  N   UNL     1      -1.951  12.206  19.560  0.00  0.00    +0.000 N 
ATOM     15  H   UNL     1      -4.658  11.773  17.581  0.00  0.00    +0.000 HD
ATOM     16  H   UNL     1      -4.463  13.082  18.735  0.00  0.00    +0.000 HD
BRANCH  14  17
ATOM     17  C   UNL     1      -2.387  13.370  20.381  0.00  0.00    +0.000 C 
ATOM     18  C   UNL     1      -2.736  12.864  21.802  0.00  0.00    +0.000 C 
ATOM     19  C   UNL     1      -1.490  14.605  20.514  0.00  0.00    +0.000 C 
ENDBRANCH  14  17
ENDBRANCH   3   5
BRANCH   1  23
ATOM     20  C   UNL     1       5.566   5.099  16.599  0.00  0.00    +0.000 A 
ATOM     21  C   UNL     1       4.568   4.491  17.370  0.00  0.00    +0.000 A 
ATOM     22  C   UNL     1       3.562   5.259  17.952  0.00  0.00    +0.000 A 
ATOM     23  C   UNL     1       3.524   6.653  17.781  0.00  0.00    +0.000 A 
ATOM     24  C   UNL     1       4.550   7.259  17.009  0.00  0.00    +0.000 A 
ATOM     25  C   UNL     1       5.555   6.486  16.428  0.00  0.00    +0.000 A 
BRANCH  20  26
ATOM     26  C   UNL     1       6.637   4.275  15.952  0.00  0.00    +0.000 C 
BRANCH  26  27
ATOM     27  C   UNL     1       6.677   4.555  14.449  0.00  0.00    +0.000 C 
BRANCH  27  28
ATOM     28  C   UNL     1       5.472   3.915  13.773  0.00  0.00    +0.000 C 
BRANCH  28  30
ATOM     29  C   UNL     1       4.573   3.223  11.548  0.00  0.00    +0.000 C 
ATOM     30  C   UNL     1       5.834   3.393  12.386  0.00  0.00    +0.000 C 
ENDBRANCH  28  30
ENDBRANCH  27  28
ENDBRANCH  26  27
ENDBRANCH  20  26
ENDBRANCH   1  23
TORSDOF 7
ENDMDL
MODEL 3
REMARK VINA RESULT:      -7.3      0.431      1.025
REMARK  Name = 
REMARK  10 active torsions:
REMARK  status: ('A' for Active; 'I' for Inactive)
REMARK    1  A    between atoms: C_1  and  C_2
REMARK    2  A    between atoms: C_2  and  C_3
REMARK    3  A    between atoms: C_3  and  C_4
REMARK    4  A    between atoms: C_4  and  C_5
REMARK    5  A    between atoms: C_5  and  C_6
REMARK    6  A    between atoms: C_9  and  C_10
REMARK    7  A    between atoms: N_12  and  C_13
REMARK    8  A    between atoms: N_22  and  C_23
REMARK    9  A    between atoms: C_23  and  C_24
REMARK   10  A    between atoms: C_23  and  C_25
REMARK                            x       y       z     vdW  Elec       q    Type
REMARK                         _______ _______ _______ _____ _____    ______ ____
ROOT
ATOM      1  C   UNL     1       0.216  10.621  20.199  0.00  0.00    +0.000 C 
ATOM      2  O   UNL     1      -0.618  11.113  19.452  0.00  0.00    +0.000 OA
ATOM      3  N   UNL     1       0.338  11.078  21.474  0.00  0.00    +0.000 N 
ATOM      4  H   UNL     1       1.006  10.600  22.092  0.00  0.00    +0.000 HD
ENDROOT
BRANCH   3   5
ATOM      5  C   UNL     1      -0.514  12.024  22.126  0.00  0.00    +0.000 A 
ATOM      6  C   UNL     1      -0.369  13.452  22.124  0.00  0.00    +0.000 A 
ATOM      7  C   UNL     1      -1.358  14.292  22.740  0.00  0.00    +0.000 A 
ATOM      8  C   UNL     1      -2.484  13.667  23.318  0.00  0.00    +0.000 A 
ATOM      9  C   UNL     1      -2.560  12.296  23.299  0.00  0.00    +0.000 A 
ATOM     10  C   UNL     1      -1.621  11.470  22.759  0.00  0.00    +0.000 A 
ATOM     11  N   UNL     1      -3.691  11.861  23.846  0.00  0.00    +0.000 NA
ATOM     12  C   UNL     1      -4.318  12.980  24.196  0.00  0.00    +0.000 A 
ATOM     13  N   UNL     1      -5.630  12.926  24.743  0.00  0.00    +0.000 N 
ATOM     14  N   UNL     1      -3.621  14.135  23.934  0.00  0.00    +0.000 N 
ATOM     15  H   UNL     1      -6.073  12.009  24.877  0.00  0.00    +0.000 HD
ATOM     16  H   UNL     1      -6.188  13.759  24.947  0.00  0.00    +0.000 HD
BRANCH  14  17
ATOM     17  C   UNL     1      -4.221  15.443  24.314  0.00  0.00    +0.000 C 
ATOM     18  C   UNL     1      -3.205  16.213  25.193  0.00  0.00    +0.000 C 
ATOM     19  C   UNL     1      -4.750  16.397  23.238  0.00  0.00    +0.000 C 
ENDBRANCH  14  17
ENDBRANCH   3   5
BRANCH   1  23
ATOM     20  C   UNL     1       2.467   7.247  18.692  0.00  0.00    +0.000 A 
ATOM     21  C   UNL     1       2.113   8.314  17.859  0.00  0.00    +0.000 A 
ATOM     22  C   UNL     1       1.395   9.396  18.366  0.00  0.00    +0.000 A 
ATOM     23  C   UNL     1       1.011   9.441  19.717  0.00  0.00    +0.000 A 
ATOM     24  C   UNL     1       1.363   8.344  20.548  0.00  0.00    +0.000 A 
ATOM     25  C   UNL     1       2.082   7.265  20.036  0.00  0.00    +0.000 A 
BRANCH  20  26
ATOM     26  C   UNL     1       3.258   6.093  18.157  0.00  0.00    +0.000 C 
BRANCH  26  27
ATOM     27  C   UNL     1       2.325   4.927  17.823  0.00  0.00    +0.000 C 
BRANCH  27  28
ATOM     28  C   UNL     1       2.747   3.691  18.605  0.00  0.00    +0.000 C 
BRANCH  28  30
ATOM     29  C   UNL     1       0.903   3.876  20.280  0.00  0.00    +0.000 C 
ATOM     30  C   UNL     1       1.538   2.989  19.217  0.00  0.00    +0.000 C 
ENDBRANCH  28  30
ENDBRANCH  27  28
ENDBRANCH  26  27
ENDBRANCH  20  26
ENDBRANCH   1  23
TORSDOF 7
ENDMDL
MODEL 4
REMARK VINA RESULT:      -7.2      3.399      5.067
REMARK  Name = 
REMARK  10 active torsions:
REMARK  status: ('A' for Active; 'I' for Inactive)
REMARK    1  A    between atoms: C_1  and  C_2
REMARK    2  A    between atoms: C_2  and  C_3
REMARK    3  A    between atoms: C_3  and  C_4
REMARK    4  A    between atoms: C_4  and  C_5
REMARK    5  A    between atoms: C_5  and  C_6
REMARK    6  A    between atoms: C_9  and  C_10
REMARK    7  A    between atoms: N_12  and  C_13
REMARK    8  A    between atoms: N_22  and  C_23
REMARK    9  A    between atoms: C_23  and  C_24
REMARK   10  A    between atoms: C_23  and  C_25
REMARK                            x       y       z     vdW  Elec       q    Type
REMARK                         _______ _______ _______ _____ _____    ______ ____
ROOT
ATOM      1  C   UNL     1       2.377   7.931  18.465  0.00  0.00    +0.000 C 
ATOM      2  O   UNL     1       2.125   7.850  19.658  0.00  0.00    +0.000 OA
ATOM      3  N   UNL     1       2.007   9.039  17.767  0.00  0.00    +0.000 N 
ATOM      4  H   UNL     1       2.289   9.099  16.781  0.00  0.00    +0.000 HD
ENDROOT
BRANCH   3   5
ATOM      5  C   UNL     1       1.441  10.236  18.306  0.00  0.00    +0.000 A 
ATOM      6  C   UNL     1       2.103  11.499  18.472  0.00  0.00    +0.000 A 
ATOM      7  C   UNL     1       1.382  12.651  18.939  0.00  0.00    +0.000 A 
ATOM      8  C   UNL     1       0.002  12.504  19.196  0.00  0.00    +0.000 A 
ATOM      9  C   UNL     1      -0.571  11.267  19.031  0.00  0.00    +0.000 A 
ATOM     10  C   UNL     1       0.091  10.146  18.629  0.00  0.00    +0.000 A 
ATOM     11  N   UNL     1      -1.878  11.296  19.277  0.00  0.00    +0.000 NA
ATOM     12  C   UNL     1      -2.107  12.568  19.588  0.00  0.00    +0.000 A 
ATOM     13  N   UNL     1      -3.434  13.019  19.832  0.00  0.00    +0.000 N 
ATOM     14  N   UNL     1      -0.990  13.368  19.595  0.00  0.00    +0.000 N 
ATOM     15  H   UNL     1      -4.205  12.342  19.778  0.00  0.00    +0.000 HD
ATOM     16  H   UNL     1      -3.673  14.001  19.989  0.00  0.00    +0.000 HD
BRANCH  14  17
ATOM     17  C   UNL     1      -1.132  14.805  19.960  0.00  0.00    +0.000 C 
ATOM     18  C   UNL     1      -0.628  14.994  21.412  0.00  0.00    +0.000 C 
ATOM     19  C   UNL     1      -0.505  15.894  19.084  0.00  0.00    +0.000 C 
ENDBRANCH  14  17
ENDBRANCH   3   5
BRANCH   1  23
ATOM     20  C   UNL     1       4.678   4.722  16.696  0.00  0.00    +0.000 A 
ATOM     21  C   UNL     1       3.470   4.471  17.358  0.00  0.00    +0.000 A 
ATOM     22  C   UNL     1       2.740   5.520  17.913  0.00  0.00    +0.000 A 
ATOM     23  C   UNL     1       3.195   6.846  17.824  0.00  0.00    +0.000 A 
ATOM     24  C   UNL     1       4.429   7.086  17.163  0.00  0.00    +0.000 A 
ATOM     25  C   UNL     1       5.156   6.033  16.608  0.00  0.00    +0.000 A 
BRANCH  20  26
ATOM     26  C   UNL     1       5.454   3.600  16.077  0.00  0.00    +0.000 C 
BRANCH  26  27
ATOM     27  C   UNL     1       6.274   4.120  14.895  0.00  0.00    +0.000 C 
BRANCH  27  28
ATOM     28  C   UNL     1       5.462   3.996  13.612  0.00  0.00    +0.000 C 
BRANCH  28  30
ATOM     29  C   UNL     1       5.588   2.432  11.668  0.00  0.00    +0.000 C 
ATOM     30  C   UNL     1       6.331   3.502  12.459  0.00  0.00    +0.000 C 
ENDBRANCH  28  30
ENDBRANCH  27  28
ENDBRANCH  26  27
ENDBRANCH  20  26
ENDBRANCH   1  23
TORSDOF 7
ENDMDL
MODEL 5
REMARK VINA RESULT:      -7.2      3.456      5.342
REMARK  Name = 
REMARK  10 active torsions:
REMARK  status: ('A' for Active; 'I' for Inactive)
REMARK    1  A    between atoms: C_1  and  C_2
REMARK    2  A    between atoms: C_2  and  C_3
REMARK    3  A    between atoms: C_3  and  C_4
REMARK    4  A    between atoms: C_4  and  C_5
REMARK    5  A    between atoms: C_5  and  C_6
REMARK    6  A    between atoms: C_9  and  C_10
REMARK    7  A    between atoms: N_12  and  C_13
REMARK    8  A    between atoms: N_22  and  C_23
REMARK    9  A    between atoms: C_23  and  C_24
REMARK   10  A    between atoms: C_23  and  C_25
REMARK                            x       y       z     vdW  Elec       q    Type
REMARK                         _______ _______ _______ _____ _____    ______ ____
ROOT
ATOM      1  C   UNL     1       2.532   6.950  18.711  0.00  0.00    +0.000 C 
ATOM      2  O   UNL     1       2.230   6.394  19.757  0.00  0.00    +0.000 OA
ATOM      3  N   UNL     1       2.011   8.172  18.417  0.00  0.00    +0.000 N 
ATOM      4  H   UNL     1       2.334   8.635  17.559  0.00  0.00    +0.000 HD
ENDROOT
BRANCH   3   5
ATOM      5  C   UNL     1       1.211   8.987  19.278  0.00  0.00    +0.000 A 
ATOM      6  C   UNL     1       1.263   9.029  20.712  0.00  0.00    +0.000 A 
ATOM      7  C   UNL     1       0.467   9.970  21.449  0.00  0.00    +0.000 A 
ATOM      8  C   UNL     1      -0.340  10.866  20.715  0.00  0.00    +0.000 A 
ATOM      9  C   UNL     1      -0.358  10.768  19.345  0.00  0.00    +0.000 A 
ATOM     10  C   UNL     1       0.354   9.862  18.619  0.00  0.00    +0.000 A 
ATOM     11  N   UNL     1      -1.133  11.699  18.797  0.00  0.00    +0.000 NA
ATOM     12  C   UNL     1      -1.589  12.379  19.845  0.00  0.00    +0.000 A 
ATOM     13  N   UNL     1      -2.397  13.534  19.654  0.00  0.00    +0.000 N 
ATOM     14  N   UNL     1      -1.172  11.903  21.065  0.00  0.00    +0.000 N 
ATOM     15  H   UNL     1      -2.633  13.820  18.695  0.00  0.00    +0.000 HD
ATOM     16  H   UNL     1      -2.700  14.140  20.419  0.00  0.00    +0.000 HD
BRANCH  14  17
ATOM     17  C   UNL     1      -1.650  12.576  22.304  0.00  0.00    +0.000 C 
ATOM     18  C   UNL     1      -1.980  11.489  23.356  0.00  0.00    +0.000 C 
ATOM     19  C   UNL     1      -0.800  13.659  22.978  0.00  0.00    +0.000 C 
ENDBRANCH  14  17
ENDBRANCH   3   5
BRANCH   1  23
ATOM     20  C   UNL     1       5.519   5.223  16.100  0.00  0.00    +0.000 A 
ATOM     21  C   UNL     1       5.443   6.606  16.303  0.00  0.00    +0.000 A 
ATOM     22  C   UNL     1       4.479   7.141  17.155  0.00  0.00    +0.000 A 
ATOM     23  C   UNL     1       3.565   6.312  17.826  0.00  0.00    +0.000 A 
ATOM     24  C   UNL     1       3.642   4.912  17.601  0.00  0.00    +0.000 A 
ATOM     25  C   UNL     1       4.610   4.381  16.748  0.00  0.00    +0.000 A 
BRANCH  20  26
ATOM     26  C   UNL     1       6.568   4.640  15.204  0.00  0.00    +0.000 C 
BRANCH  26  27
ATOM     27  C   UNL     1       5.949   3.581  14.291  0.00  0.00    +0.000 C 
BRANCH  27  28
ATOM     28  C   UNL     1       6.344   3.852  12.846  0.00  0.00    +0.000 C 
BRANCH  28  30
ATOM     29  C   UNL     1       5.865   1.814  11.483  0.00  0.00    +0.000 C 
ATOM     30  C   UNL     1       5.363   3.198  11.877  0.00  0.00    +0.000 C 
ENDBRANCH  28  30
ENDBRANCH  27  28
ENDBRANCH  26  27
ENDBRANCH  20  26
ENDBRANCH   1  23
TORSDOF 7
ENDMDL
MODEL 6
REMARK VINA RESULT:      -7.2      3.574      5.356
REMARK  Name = 
REMARK  10 active torsions:
REMARK  status: ('A' for Active; 'I' for Inactive)
REMARK    1  A    between atoms: C_1  and  C_2
REMARK    2  A    between atoms: C_2  and  C_3
REMARK    3  A    between atoms: C_3  and  C_4
REMARK    4  A    between atoms: C_4  and  C_5
REMARK    5  A    between atoms: C_5  and  C_6
REMARK    6  A    between atoms: C_9  and  C_10
REMARK    7  A    between atoms: N_12  and  C_13
REMARK    8  A    between atoms: N_22  and  C_23
REMARK    9  A    between atoms: C_23  and  C_24
REMARK   10  A    between atoms: C_23  and  C_25
REMARK                            x       y       z     vdW  Elec       q    Type
REMARK                         _______ _______ _______ _____ _____    ______ ____
ROOT
ATOM      1  C   UNL     1       2.453   7.535  18.427  0.00  0.00    +0.000 C 
ATOM      2  O   UNL     1       2.160   7.349  19.599  0.00  0.00    +0.000 OA
ATOM      3  N   UNL     1       1.990   8.637  17.778  0.00  0.00    +0.000 N 
ATOM      4  H   UNL     1       2.307   8.792  16.813  0.00  0.00    +0.000 HD
ENDROOT
BRANCH   3   5
ATOM      5  C   UNL     1       1.268   9.727  18.358  0.00  0.00    +0.000 A 
ATOM      6  C   UNL     1       1.827  10.874  19.016  0.00  0.00    +0.000 A 
ATOM      7  C   UNL     1       0.984  11.945  19.468  0.00  0.00    +0.000 A 
ATOM      8  C   UNL     1      -0.401  11.845  19.215  0.00  0.00    +0.000 A 
ATOM      9  C   UNL     1      -0.878  10.717  18.592  0.00  0.00    +0.000 A 
ATOM     10  C   UNL     1      -0.111   9.666  18.187  0.00  0.00    +0.000 A 
ATOM     11  N   UNL     1      -2.191  10.786  18.391  0.00  0.00    +0.000 NA
ATOM     12  C   UNL     1      -2.519  11.974  18.892  0.00  0.00    +0.000 A 
ATOM     13  N   UNL     1      -3.852  12.455  18.779  0.00  0.00    +0.000 N 
ATOM     14  N   UNL     1      -1.474  12.671  19.449  0.00  0.00    +0.000 N 
ATOM     15  H   UNL     1      -4.556  11.862  18.321  0.00  0.00    +0.000 HD
ATOM     16  H   UNL     1      -4.137  13.394  19.067  0.00  0.00    +0.000 HD
BRANCH  14  17
ATOM     17  C   UNL     1      -1.740  14.001  20.064  0.00  0.00    +0.000 C 
ATOM     18  C   UNL     1      -1.825  13.823  21.599  0.00  0.00    +0.000 C 
ATOM     19  C   UNL     1      -0.823  15.192  19.765  0.00  0.00    +0.000 C 
ENDBRANCH  14  17
ENDBRANCH   3   5
BRANCH   1  23
ATOM     20  C   UNL     1       5.253   4.906  16.435  0.00  0.00    +0.000 A 
ATOM     21  C   UNL     1       5.332   6.296  16.288  0.00  0.00    +0.000 A 
ATOM     22  C   UNL     1       4.425   7.125  16.945  0.00  0.00    +0.000 A 
ATOM     23  C   UNL     1       3.417   6.592  17.765  0.00  0.00    +0.000 A 
ATOM     24  C   UNL     1       3.339   5.179  17.893  0.00  0.00    +0.000 A 
ATOM     25  C   UNL     1       4.249   4.353  17.235  0.00  0.00    +0.000 A 
BRANCH  20  26
ATOM     26  C   UNL     1       6.240   4.011  15.749  0.00  0.00    +0.000 C 
BRANCH  26  27
ATOM     27  C   UNL     1       6.514   4.522  14.333  0.00  0.00    +0.000 C 
BRANCH  27  28
ATOM     28  C   UNL     1       5.565   3.850  13.351  0.00  0.00    +0.000 C 
BRANCH  28  30
ATOM     29  C   UNL     1       5.495   2.216  11.462  0.00  0.00    +0.000 C 
ATOM     30  C   UNL     1       6.322   3.298  12.146  0.00  0.00    +0.000 C 
ENDBRANCH  28  30
ENDBRANCH  27  28
ENDBRANCH  26  27
ENDBRANCH  20  26
ENDBRANCH   1  23
TORSDOF 7
ENDMDL
MODEL 7
REMARK VINA RESULT:      -7.1      3.425      5.349
REMARK  Name = 
REMARK  10 active torsions:
REMARK  status: ('A' for Active; 'I' for Inactive)
REMARK    1  A    between atoms: C_1  and  C_2
REMARK    2  A    between atoms: C_2  and  C_3
REMARK    3  A    between atoms: C_3  and  C_4
REMARK    4  A    between atoms: C_4  and  C_5
REMARK    5  A    between atoms: C_5  and  C_6
REMARK    6  A    between atoms: C_9  and  C_10
REMARK    7  A    between atoms: N_12  and  C_13
REMARK    8  A    between atoms: N_22  and  C_23
REMARK    9  A    between atoms: C_23  and  C_24
REMARK   10  A    between atoms: C_23  and  C_25
REMARK                            x       y       z     vdW  Elec       q    Type
REMARK                         _______ _______ _______ _____ _____    ______ ____
ROOT
ATOM      1  C   UNL     1       2.640   6.870  18.829  0.00  0.00    +0.000 C 
ATOM      2  O   UNL     1       2.291   6.315  19.860  0.00  0.00    +0.000 OA
ATOM      3  N   UNL     1       2.142   8.097  18.516  0.00  0.00    +0.000 N 
ATOM      4  H   UNL     1       2.503   8.559  17.672  0.00  0.00    +0.000 HD
ENDROOT
BRANCH   3   5
ATOM      5  C   UNL     1       1.314   8.917  19.344  0.00  0.00    +0.000 A 
ATOM      6  C   UNL     1       1.357   9.010  20.776  0.00  0.00    +0.000 A 
ATOM      7  C   UNL     1       0.530   9.952  21.476  0.00  0.00    +0.000 A 
ATOM      8  C   UNL     1      -0.299  10.799  20.709  0.00  0.00    +0.000 A 
ATOM      9  C   UNL     1      -0.306  10.653  19.343  0.00  0.00    +0.000 A 
ATOM     10  C   UNL     1       0.436   9.743  18.651  0.00  0.00    +0.000 A 
ATOM     11  N   UNL     1      -1.105  11.542  18.759  0.00  0.00    +0.000 NA
ATOM     12  C   UNL     1      -1.586  12.244  19.781  0.00  0.00    +0.000 A 
ATOM     13  N   UNL     1      -2.426  13.367  19.546  0.00  0.00    +0.000 N 
ATOM     14  N   UNL     1      -1.162  11.822  21.018  0.00  0.00    +0.000 N 
ATOM     15  H   UNL     1      -2.666  13.613  18.577  0.00  0.00    +0.000 HD
ATOM     16  H   UNL     1      -2.751  13.991  20.289  0.00  0.00    +0.000 HD
BRANCH  14  17
ATOM     17  C   UNL     1      -1.667  12.523  22.232  0.00  0.00    +0.000 C 
ATOM     18  C   UNL     1      -2.057  11.459  23.286  0.00  0.00    +0.000 C 
ATOM     19  C   UNL     1      -0.815  13.596  22.920  0.00  0.00    +0.000 C 
ENDBRANCH  14  17
ENDBRANCH   3   5
BRANCH   1  23
ATOM     20  C   UNL     1       5.660   4.898  16.438  0.00  0.00    +0.000 A 
ATOM     21  C   UNL     1       4.479   4.241  16.803  0.00  0.00    +0.000 A 
ATOM     22  C   UNL     1       3.515   4.897  17.566  0.00  0.00    +0.000 A 
ATOM     23  C   UNL     1       3.703   6.225  17.986  0.00  0.00    +0.000 A 
ATOM     24  C   UNL     1       4.912   6.875  17.621  0.00  0.00    +0.000 A 
ATOM     25  C   UNL     1       5.873   6.215  16.856  0.00  0.00    +0.000 A 
BRANCH  20  26
ATOM     26  C   UNL     1       6.688   4.205  15.598  0.00  0.00    +0.000 C 
BRANCH  26  27
ATOM     27  C   UNL     1       6.586   4.679  14.147  0.00  0.00    +0.000 C 
BRANCH  27  28
ATOM     28  C   UNL     1       5.706   3.722  13.354  0.00  0.00    +0.000 C 
BRANCH  28  30
ATOM     29  C   UNL     1       5.657   2.097  11.457  0.00  0.00    +0.000 C 
ATOM     30  C   UNL     1       6.394   3.285  12.064  0.00  0.00    +0.000 C 
ENDBRANCH  28  30
ENDBRANCH  27  28
ENDBRANCH  26  27
ENDBRANCH  20  26
ENDBRANCH   1  23
TORSDOF 7
ENDMDL
MODEL 8
REMARK VINA RESULT:      -7.1      1.399      2.259
REMARK  Name = 
REMARK  10 active torsions:
REMARK  status: ('A' for Active; 'I' for Inactive)
REMARK    1  A    between atoms: C_1  and  C_2
REMARK    2  A    between atoms: C_2  and  C_3
REMARK    3  A    between atoms: C_3  and  C_4
REMARK    4  A    between atoms: C_4  and  C_5
REMARK    5  A    between atoms: C_5  and  C_6
REMARK    6  A    between atoms: C_9  and  C_10
REMARK    7  A    between atoms: N_12  and  C_13
REMARK    8  A    between atoms: N_22  and  C_23
REMARK    9  A    between atoms: C_23  and  C_24
REMARK   10  A    between atoms: C_23  and  C_25
REMARK                            x       y       z     vdW  Elec       q    Type
REMARK                         _______ _______ _______ _____ _____    ______ ____
ROOT
ATOM      1  C   UNL     1       0.455  10.441  19.928  0.00  0.00    +0.000 C 
ATOM      2  O   UNL     1      -0.387  10.948  19.201  0.00  0.00    +0.000 OA
ATOM      3  N   UNL     1       0.609  10.889  21.203  0.00  0.00    +0.000 N 
ATOM      4  H   UNL     1       1.284  10.399  21.804  0.00  0.00    +0.000 HD
ENDROOT
BRANCH   3   5
ATOM      5  C   UNL     1      -0.215  11.844  21.876  0.00  0.00    +0.000 A 
ATOM      6  C   UNL     1      -0.083  13.272  21.835  0.00  0.00    +0.000 A 
ATOM      7  C   UNL     1      -1.045  14.119  22.483  0.00  0.00    +0.000 A 
ATOM      8  C   UNL     1      -2.135  13.499  23.132  0.00  0.00    +0.000 A 
ATOM      9  C   UNL     1      -2.200  12.127  23.148  0.00  0.00    +0.000 A 
ATOM     10  C   UNL     1      -1.284  11.296  22.577  0.00  0.00    +0.000 A 
ATOM     11  N   UNL     1      -3.298  11.696  23.762  0.00  0.00    +0.000 NA
ATOM     12  C   UNL     1      -3.915  12.819  24.119  0.00  0.00    +0.000 A 
ATOM     13  N   UNL     1      -5.196  12.768  24.734  0.00  0.00    +0.000 N 
ATOM     14  N   UNL     1      -3.242  13.972  23.795  0.00  0.00    +0.000 N 
ATOM     15  H   UNL     1      -5.625  11.850  24.911  0.00  0.00    +0.000 HD
ATOM     16  H   UNL     1      -5.750  13.601  24.948  0.00  0.00    +0.000 HD
BRANCH  14  17
ATOM     17  C   UNL     1      -3.833  15.285  24.178  0.00  0.00    +0.000 C 
ATOM     18  C   UNL     1      -2.940  15.926  25.267  0.00  0.00    +0.000 C 
ATOM     19  C   UNL     1      -4.130  16.343  23.110  0.00  0.00    +0.000 C 
ENDBRANCH  14  17
ENDBRANCH   3   5
BRANCH   1  23
ATOM     20  C   UNL     1       2.700   6.990  18.594  0.00  0.00    +0.000 A 
ATOM     21  C   UNL     1       2.217   7.080  19.905  0.00  0.00    +0.000 A 
ATOM     22  C   UNL     1       1.489   8.196  20.312  0.00  0.00    +0.000 A 
ATOM     23  C   UNL     1       1.223   9.252  19.423  0.00  0.00    +0.000 A 
ATOM     24  C   UNL     1       1.732   9.155  18.101  0.00  0.00    +0.000 A 
ATOM     25  C   UNL     1       2.459   8.036  17.698  0.00  0.00    +0.000 A 
BRANCH  20  26
ATOM     26  C   UNL     1       3.464   5.782  18.145  0.00  0.00    +0.000 C 
BRANCH  26  27
ATOM     27  C   UNL     1       4.451   6.166  17.042  0.00  0.00    +0.000 C 
BRANCH  27  28
ATOM     28  C   UNL     1       4.910   4.916  16.304  0.00  0.00    +0.000 C 
BRANCH  28  30
ATOM     29  C   UNL     1       5.856   4.130  14.129  0.00  0.00    +0.000 C 
ATOM     30  C   UNL     1       5.825   5.273  15.136  0.00  0.00    +0.000 C 
ENDBRANCH  28  30
ENDBRANCH  27  28
ENDBRANCH  26  27
ENDBRANCH  20  26
ENDBRANCH   1  23
TORSDOF 7
ENDMDL
MODEL 9
REMARK VINA RESULT:      -7.0      1.331      2.273
REMARK  Name = 
REMARK  10 active torsions:
REMARK  status: ('A' for Active; 'I' for Inactive)
REMARK    1  A    between atoms: C_1  and  C_2
REMARK    2  A    between atoms: C_2  and  C_3
REMARK    3  A    between atoms: C_3  and  C_4
REMARK    4  A    between atoms: C_4  and  C_5
REMARK    5  A    between atoms: C_5  and  C_6
REMARK    6  A    between atoms: C_9  and  C_10
REMARK    7  A    between atoms: N_12  and  C_13
REMARK    8  A    between atoms: N_22  and  C_23
REMARK    9  A    between atoms: C_23  and  C_24
REMARK   10  A    between atoms: C_23  and  C_25
REMARK                            x       y       z     vdW  Elec       q    Type
REMARK                         _______ _______ _______ _____ _____    ______ ____
ROOT
ATOM      1  C   UNL     1       0.269  10.373  20.034  0.00  0.00    +0.000 C 
ATOM      2  O   UNL     1      -0.823  10.545  19.511  0.00  0.00    +0.000 OA
ATOM      3  N   UNL     1       0.620  11.102  21.127  0.00  0.00    +0.000 N 
ATOM      4  H   UNL     1       1.520  10.888  21.576  0.00  0.00    +0.000 HD
ENDROOT
BRANCH   3   5
ATOM      5  C   UNL     1      -0.219  12.002  21.857  0.00  0.00    +0.000 A 
ATOM      6  C   UNL     1      -0.124  13.434  21.882  0.00  0.00    +0.000 A 
ATOM      7  C   UNL     1      -1.097  14.223  22.583  0.00  0.00    +0.000 A 
ATOM      8  C   UNL     1      -2.162  13.545  23.216  0.00  0.00    +0.000 A 
ATOM      9  C   UNL     1      -2.191  12.173  23.168  0.00  0.00    +0.000 A 
ATOM     10  C   UNL     1      -1.263  11.394  22.546  0.00  0.00    +0.000 A 
ATOM     11  N   UNL     1      -3.268  11.684  23.775  0.00  0.00    +0.000 NA
ATOM     12  C   UNL     1      -3.908  12.772  24.194  0.00  0.00    +0.000 A 
ATOM     13  N   UNL     1      -5.179  12.659  24.823  0.00  0.00    +0.000 N 
ATOM     14  N   UNL     1      -3.270  13.957  23.917  0.00  0.00    +0.000 N 
ATOM     15  H   UNL     1      -5.581  11.723  24.962  0.00  0.00    +0.000 HD
ATOM     16  H   UNL     1      -5.750  13.466  25.084  0.00  0.00    +0.000 HD
BRANCH  14  17
ATOM     17  C   UNL     1      -3.889  15.234  24.369  0.00  0.00    +0.000 C 
ATOM     18  C   UNL     1      -2.898  15.948  25.321  0.00  0.00    +0.000 C 
ATOM     19  C   UNL     1      -4.399  16.254  23.346  0.00  0.00    +0.000 C 
ENDBRANCH  14  17
ENDBRANCH   3   5
BRANCH   1  23
ATOM     20  C   UNL     1       2.782   7.240  18.424  0.00  0.00    +0.000 A 
ATOM     21  C   UNL     1       2.424   8.353  17.653  0.00  0.00    +0.000 A 
ATOM     22  C   UNL     1       1.621   9.355  18.193  0.00  0.00    +0.000 A 
ATOM     23  C   UNL     1       1.153   9.274  19.516  0.00  0.00    +0.000 A 
ATOM     24  C   UNL     1       1.510   8.133  20.282  0.00  0.00    +0.000 A 
ATOM     25  C   UNL     1       2.315   7.133  19.737  0.00  0.00    +0.000 A 
BRANCH  20  26
ATOM     26  C   UNL     1       3.664   6.171  17.855  0.00  0.00    +0.000 C 
BRANCH  26  27
ATOM     27  C   UNL     1       4.624   6.776  16.829  0.00  0.00    +0.000 C 
BRANCH  27  28
ATOM     28  C   UNL     1       5.244   5.668  15.988  0.00  0.00    +0.000 C 
BRANCH  28  30
ATOM     29  C   UNL     1       7.237   4.580  17.030  0.00  0.00    +0.000 C 
ATOM     30  C   UNL     1       5.723   4.516  16.866  0.00  0.00    +0.000 C 
ENDBRANCH  28  30
ENDBRANCH  27  28
ENDBRANCH  26  27
ENDBRANCH  20  26
ENDBRANCH   1  23
TORSDOF 7
ENDMDL
