MODEL 1
REMARK VINA RESULT:      -7.1      0.000      0.000
REMARK  Name = 
REMARK  5 active torsions:
REMARK  status: ('A' for Active; 'I' for Inactive)
REMARK    1  A    between atoms: C_1  and  O_2
REMARK    2  A    between atoms: O_2  and  C_3
REMARK    3  A    between atoms: C_5  and  O_6
REMARK    4  A    between atoms: O_6  and  C_7
REMARK    5  A    between atoms: C_13  and  N_14
REMARK                            x       y       z     vdW  Elec       q    Type
REMARK                         _______ _______ _______ _____ _____    ______ ____
ROOT
ATOM      1  C   UNL     1       0.213  10.182  22.010  0.00  0.00    +0.000 A 
ATOM      2  C   UNL     1       0.347  10.912  20.828  0.00  0.00    +0.000 A 
ATOM      3  C   UNL     1       0.957  10.346  19.702  0.00  0.00    +0.000 A 
ATOM      4  C   UNL     1       1.448   9.028  19.780  0.00  0.00    +0.000 A 
ATOM      5  C   UNL     1       2.086   8.346  18.608  0.00  0.00    +0.000 A 
ATOM      6  O   UNL     1       2.230   8.889  17.519  0.00  0.00    +0.000 OA
ATOM      7  C   UNL     1       2.573   6.954  18.761  0.00  0.00    +0.000 A 
ATOM      8  C   UNL     1       3.141   6.295  17.661  0.00  0.00    +0.000 A 
ATOM      9  C   UNL     1       3.633   4.995  17.787  0.00  0.00    +0.000 A 
ATOM     10  C   UNL     1       3.468   4.345  19.025  0.00  0.00    +0.000 A 
ATOM     11 CL   UNL     1       3.998   2.710  19.232  0.00  0.00    +0.000 Cl
ATOM     12  C   UNL     1       2.896   5.001  20.123  0.00  0.00    +0.000 A 
ATOM     13  C   UNL     1       2.450   6.318  20.000  0.00  0.00    +0.000 A 
ATOM     14  N   UNL     1       1.822   6.978  21.063  0.00  0.00    +0.000 N 
ATOM     15  C   UNL     1       1.355   8.301  20.984  0.00  0.00    +0.000 A 
ATOM     16  C   UNL     1       0.731   8.890  22.091  0.00  0.00    +0.000 A 
ATOM     17  H   UNL     1       1.843   6.540  21.976  0.00  0.00    +0.000 HD
ENDROOT
BRANCH   9  18
ATOM     18  N   UNL     1       4.055   4.315  16.633  0.00  0.00    +0.000 N 
ATOM     19  H   UNL     1       3.441   3.560  16.341  0.00  0.00    +0.000 HD
ATOM     20  H   UNL     1       4.310   4.939  15.869  0.00  0.00    +0.000 HD
ENDBRANCH   9  18
BRANCH   1  22
ATOM     21  C   UNL     1      -1.525  11.480  22.953  0.00  0.00    +0.000 C 
ATOM     22  O   UNL     1      -0.381  10.654  23.152  0.00  0.00    +0.000 OA
ENDBRANCH   1  22
BRANCH   3  23
ATOM     23  O   UNL     1       1.102  11.013  18.516  0.00  0.00    +0.000 OA
ATOM     24  C   UNL     1       1.670  12.314  18.521  0.00  0.00    +0.000 C 
ENDBRANCH   3  23
TORSDOF 3
ENDMDL
MODEL 2
REMARK VINA RESULT:      -7.1      3.565      7.292
REMARK  Name = 
REMARK  5 active torsions:
REMARK  status: ('A' for Active; 'I' for Inactive)
REMARK    1  A    between atoms: C_1  and  O_2
REMARK    2  A    between atoms: O_2  and  C_3
REMARK    3  A    between atoms: C_5  and  O_6
REMARK    4  A    between atoms: O_6  and  C_7
REMARK    5  A    between atoms: C_13  and  N_14
REMARK                            x       y       z     vdW  Elec       q    Type
REMARK                         _______ _______ _______ _____ _____    ______ ____
ROOT
ATOM      1  C   UNL     1       5.537   5.484  16.147  0.00  0.00    +0.000 A 
ATOM      2  C   UNL     1       5.514   4.490  17.126  0.00  0.00    +0.000 A 
ATOM      3  C   UNL     1       4.710   4.624  18.265  0.00  0.00    +0.000 A 
ATOM      4  C   UNL     1       3.929   5.787  18.418  0.00  0.00    +0.000 A 
ATOM      5  C   UNL     1       3.023   5.987  19.594  0.00  0.00    +0.000 A 
ATOM      6  O   UNL     1       2.910   5.166  20.496  0.00  0.00    +0.000 OA
ATOM      7  C   UNL     1       2.224   7.234  19.684  0.00  0.00    +0.000 A 
ATOM      8  C   UNL     1       1.347   7.416  20.763  0.00  0.00    +0.000 A 
ATOM      9  C   UNL     1       0.606   8.593  20.886  0.00  0.00    +0.000 A 
ATOM     10  C   UNL     1       0.708   9.546  19.856  0.00  0.00    +0.000 A 
ATOM     11 CL   UNL     1      -0.231  10.999  19.913  0.00  0.00    +0.000 Cl
ATOM     12  C   UNL     1       1.580   9.362  18.774  0.00  0.00    +0.000 A 
ATOM     13  C   UNL     1       2.353   8.203  18.685  0.00  0.00    +0.000 A 
ATOM     14  N   UNL     1       3.188   7.966  17.586  0.00  0.00    +0.000 N 
ATOM     15  C   UNL     1       3.981   6.813  17.453  0.00  0.00    +0.000 A 
ATOM     16  C   UNL     1       4.788   6.647  16.320  0.00  0.00    +0.000 A 
ATOM     17  H   UNL     1       3.348   8.726  16.936  0.00  0.00    +0.000 HD
ENDROOT
BRANCH   9  18
ATOM     18  N   UNL     1      -0.370   8.677  21.893  0.00  0.00    +0.000 N 
ATOM     19  H   UNL     1      -0.346   7.917  22.566  0.00  0.00    +0.000 HD
ATOM     20  H   UNL     1      -0.419   9.596  22.330  0.00  0.00    +0.000 HD
ENDBRANCH   9  18
BRANCH   1  22
ATOM     21  C   UNL     1       6.255   4.180  14.309  0.00  0.00    +0.000 C 
ATOM     22  O   UNL     1       6.283   5.427  14.999  0.00  0.00    +0.000 OA
ENDBRANCH   1  22
BRANCH   3  23
ATOM     23  O   UNL     1       4.642   3.675  19.248  0.00  0.00    +0.000 OA
ATOM     24  C   UNL     1       4.046   2.420  18.954  0.00  0.00    +0.000 C 
ENDBRANCH   3  23
TORSDOF 3
ENDMDL
MODEL 3
REMARK VINA RESULT:      -6.9      0.976      1.021
REMARK  Name = 
REMARK  5 active torsions:
REMARK  status: ('A' for Active; 'I' for Inactive)
REMARK    1  A    between atoms: C_1  and  O_2
REMARK    2  A    between atoms: O_2  and  C_3
REMARK    3  A    between atoms: C_5  and  O_6
REMARK    4  A    between atoms: O_6  and  C_7
REMARK    5  A    between atoms: C_13  and  N_14
REMARK                            x       y       z     vdW  Elec       q    Type
REMARK                         _______ _______ _______ _____ _____    ______ ____
ROOT
ATOM      1  C   UNL     1       0.191   9.802  21.083  0.00  0.00    +0.000 A 
ATOM      2  C   UNL     1       0.598  10.449  19.916  0.00  0.00    +0.000 A 
ATOM      3  C   UNL     1       1.417   9.800  18.985  0.00  0.00    +0.000 A 
ATOM      4  C   UNL     1       1.839   8.481  19.247  0.00  0.00    +0.000 A 
ATOM      5  C   UNL     1       2.692   7.712  18.283  0.00  0.00    +0.000 A 
ATOM      6  O   UNL     1       3.083   8.179  17.220  0.00  0.00    +0.000 OA
ATOM      7  C   UNL     1       3.091   6.325  18.623  0.00  0.00    +0.000 A 
ATOM      8  C   UNL     1       3.860   5.585  17.713  0.00  0.00    +0.000 A 
ATOM      9  C   UNL     1       4.273   4.288  18.022  0.00  0.00    +0.000 A 
ATOM     10  C   UNL     1       3.827   3.724  19.231  0.00  0.00    +0.000 A 
ATOM     11 CL   UNL     1       4.249   2.098  19.647  0.00  0.00    +0.000 Cl
ATOM     12  C   UNL     1       3.053   4.461  20.138  0.00  0.00    +0.000 A 
ATOM     13  C   UNL     1       2.685   5.775  19.842  0.00  0.00    +0.000 A 
ATOM     14  N   UNL     1       1.865   6.514  20.703  0.00  0.00    +0.000 N 
ATOM     15  C   UNL     1       1.467   7.837  20.444  0.00  0.00    +0.000 A 
ATOM     16  C   UNL     1       0.640   8.509  21.353  0.00  0.00    +0.000 A 
ATOM     17  H   UNL     1       1.676   6.137  21.624  0.00  0.00    +0.000 HD
ENDROOT
BRANCH   9  18
ATOM     18  N   UNL     1       4.911   3.526  17.029  0.00  0.00    +0.000 N 
ATOM     19  H   UNL     1       4.766   2.524  17.110  0.00  0.00    +0.000 HD
ATOM     20  H   UNL     1       4.749   3.877  16.086  0.00  0.00    +0.000 HD
ENDBRANCH   9  18
BRANCH   1  22
ATOM     21  C   UNL     1      -0.493   9.804  23.347  0.00  0.00    +0.000 C 
ATOM     22  O   UNL     1      -0.618  10.358  22.039  0.00  0.00    +0.000 OA
ENDBRANCH   1  22
BRANCH   3  23
ATOM     23  O   UNL     1       1.834  10.384  17.820  0.00  0.00    +0.000 OA
ATOM     24  C   UNL     1       2.406  11.683  17.866  0.00  0.00    +0.000 C 
ENDBRANCH   3  23
TORSDOF 3
ENDMDL
MODEL 4
REMARK VINA RESULT:      -6.9      3.410      6.181
REMARK  Name = 
REMARK  5 active torsions:
REMARK  status: ('A' for Active; 'I' for Inactive)
REMARK    1  A    between atoms: C_1  and  O_2
REMARK    2  A    between atoms: O_2  and  C_3
REMARK    3  A    between atoms: C_5  and  O_6
REMARK    4  A    between atoms: O_6  and  C_7
REMARK    5  A    between atoms: C_13  and  N_14
REMARK                            x       y       z     vdW  Elec       q    Type
REMARK                         _______ _______ _______ _____ _____    ______ ____
ROOT
ATOM      1  C   UNL     1       2.906   3.976  20.265  0.00  0.00    +0.000 A 
ATOM      2  C   UNL     1       3.459   4.078  18.988  0.00  0.00    +0.000 A 
ATOM      3  C   UNL     1       3.380   5.276  18.268  0.00  0.00    +0.000 A 
ATOM      4  C   UNL     1       2.722   6.380  18.845  0.00  0.00    +0.000 A 
ATOM      5  C   UNL     1       2.624   7.702  18.147  0.00  0.00    +0.000 A 
ATOM      6  O   UNL     1       3.096   7.905  17.035  0.00  0.00    +0.000 OA
ATOM      7  C   UNL     1       1.923   8.822  18.820  0.00  0.00    +0.000 A 
ATOM      8  C   UNL     1       1.855  10.074  18.190  0.00  0.00    +0.000 A 
ATOM      9  C   UNL     1       1.175  11.135  18.789  0.00  0.00    +0.000 A 
ATOM     10  C   UNL     1       0.635  10.931  20.073  0.00  0.00    +0.000 A 
ATOM     11 CL   UNL     1      -0.165  12.224  20.901  0.00  0.00    +0.000 Cl
ATOM     12  C   UNL     1       0.707   9.683  20.706  0.00  0.00    +0.000 A 
ATOM     13  C   UNL     1       1.348   8.613  20.077  0.00  0.00    +0.000 A 
ATOM     14  N   UNL     1       1.486   7.372  20.710  0.00  0.00    +0.000 N 
ATOM     15  C   UNL     1       2.124   6.269  20.117  0.00  0.00    +0.000 A 
ATOM     16  C   UNL     1       2.227   5.061  20.817  0.00  0.00    +0.000 A 
ATOM     17  H   UNL     1       0.969   7.213  21.566  0.00  0.00    +0.000 HD
ENDROOT
BRANCH   9  18
ATOM     18  N   UNL     1       1.257  12.409  18.203  0.00  0.00    +0.000 N 
ATOM     19  H   UNL     1       0.419  12.974  18.306  0.00  0.00    +0.000 HD
ATOM     20  H   UNL     1       2.109  12.910  18.448  0.00  0.00    +0.000 HD
ENDBRANCH   9  18
BRANCH   1  22
ATOM     21  C   UNL     1       1.735   2.517  21.712  0.00  0.00    +0.000 C 
ATOM     22  O   UNL     1       2.950   2.848  21.043  0.00  0.00    +0.000 OA
ENDBRANCH   1  22
BRANCH   3  23
ATOM     23  O   UNL     1       3.915   5.434  17.018  0.00  0.00    +0.000 OA
ATOM     24  C   UNL     1       4.817   4.454  16.525  0.00  0.00    +0.000 C 
ENDBRANCH   3  23
TORSDOF 3
ENDMDL
MODEL 5
REMARK VINA RESULT:      -6.9      3.506      7.366
REMARK  Name = 
REMARK  5 active torsions:
REMARK  status: ('A' for Active; 'I' for Inactive)
REMARK    1  A    between atoms: C_1  and  O_2
REMARK    2  A    between atoms: O_2  and  C_3
REMARK    3  A    between atoms: C_5  and  O_6
REMARK    4  A    between atoms: O_6  and  C_7
REMARK    5  A    between atoms: C_13  and  N_14
REMARK                            x       y       z     vdW  Elec       q    Type
REMARK                         _______ _______ _______ _____ _____    ______ ____
ROOT
ATOM      1  C   UNL     1       5.133   4.210  16.663  0.00  0.00    +0.000 A 
ATOM      2  C   UNL     1       4.817   3.476  17.806  0.00  0.00    +0.000 A 
ATOM      3  C   UNL     1       4.014   4.028  18.812  0.00  0.00    +0.000 A 
ATOM      4  C   UNL     1       3.536   5.345  18.661  0.00  0.00    +0.000 A 
ATOM      5  C   UNL     1       2.647   5.991  19.680  0.00  0.00    +0.000 A 
ATOM      6  O   UNL     1       2.291   5.426  20.707  0.00  0.00    +0.000 OA
ATOM      7  C   UNL     1       2.176   7.378  19.450  0.00  0.00    +0.000 A 
ATOM      8  C   UNL     1       1.317   7.980  20.381  0.00  0.00    +0.000 A 
ATOM      9  C   UNL     1       0.884   9.294  20.202  0.00  0.00    +0.000 A 
ATOM     10  C   UNL     1       1.269   9.961  19.024  0.00  0.00    +0.000 A 
ATOM     11 CL   UNL     1       0.715  11.570  18.708  0.00  0.00    +0.000 Cl
ATOM     12  C   UNL     1       2.123   9.359  18.090  0.00  0.00    +0.000 A 
ATOM     13  C   UNL     1       2.590   8.060  18.302  0.00  0.00    +0.000 A 
ATOM     14  N   UNL     1       3.397   7.412  17.358  0.00  0.00    +0.000 N 
ATOM     15  C   UNL     1       3.888   6.106  17.528  0.00  0.00    +0.000 A 
ATOM     16  C   UNL     1       4.686   5.525  16.534  0.00  0.00    +0.000 A 
ATOM     17  H   UNL     1       3.772   7.961  16.594  0.00  0.00    +0.000 HD
ENDROOT
BRANCH   9  18
ATOM     18  N   UNL     1      -0.092   9.810  21.071  0.00  0.00    +0.000 N 
ATOM     19  H   UNL     1      -0.808  10.368  20.616  0.00  0.00    +0.000 HD
ATOM     20  H   UNL     1      -0.474   9.111  21.706  0.00  0.00    +0.000 HD
ENDBRANCH   9  18
BRANCH   1  22
ATOM     21  C   UNL     1       6.749   4.708  15.008  0.00  0.00    +0.000 C 
ATOM     22  O   UNL     1       5.901   3.744  15.627  0.00  0.00    +0.000 OA
ENDBRANCH   1  22
BRANCH   3  23
ATOM     23  O   UNL     1       3.663   3.348  19.946  0.00  0.00    +0.000 OA
ATOM     24  C   UNL     1       4.405   2.196  20.317  0.00  0.00    +0.000 C 
ENDBRANCH   3  23
TORSDOF 3
ENDMDL
MODEL 6
REMARK VINA RESULT:      -6.8      3.318      6.449
REMARK  Name = 
REMARK  5 active torsions:
REMARK  status: ('A' for Active; 'I' for Inactive)
REMARK    1  A    between atoms: C_1  and  O_2
REMARK    2  A    between atoms: O_2  and  C_3
REMARK    3  A    between atoms: C_5  and  O_6
REMARK    4  A    between atoms: O_6  and  C_7
REMARK    5  A    between atoms: C_13  and  N_14
REMARK                            x       y       z     vdW  Elec       q    Type
REMARK                         _______ _______ _______ _____ _____    ______ ____
ROOT
ATOM      1  C   UNL     1       4.679   3.928  19.147  0.00  0.00    +0.000 A 
ATOM      2  C   UNL     1       5.025   4.346  17.862  0.00  0.00    +0.000 A 
ATOM      3  C   UNL     1       4.528   5.547  17.341  0.00  0.00    +0.000 A 
ATOM      4  C   UNL     1       3.659   6.327  18.128  0.00  0.00    +0.000 A 
ATOM      5  C   UNL     1       3.111   7.637  17.650  0.00  0.00    +0.000 A 
ATOM      6  O   UNL     1       3.372   8.106  16.548  0.00  0.00    +0.000 OA
ATOM      7  C   UNL     1       2.207   8.407  18.537  0.00  0.00    +0.000 A 
ATOM      8  C   UNL     1       1.716   9.651  18.112  0.00  0.00    +0.000 A 
ATOM      9  C   UNL     1       0.840  10.381  18.916  0.00  0.00    +0.000 A 
ATOM     10  C   UNL     1       0.534   9.870  20.192  0.00  0.00    +0.000 A 
ATOM     11 CL   UNL     1      -0.495  10.756  21.266  0.00  0.00    +0.000 Cl
ATOM     12  C   UNL     1       1.029   8.631  20.619  0.00  0.00    +0.000 A 
ATOM     13  C   UNL     1       1.866   7.884  19.788  0.00  0.00    +0.000 A 
ATOM     14  N   UNL     1       2.421   6.671  20.212  0.00  0.00    +0.000 N 
ATOM     15  C   UNL     1       3.270   5.888  19.411  0.00  0.00    +0.000 A 
ATOM     16  C   UNL     1       3.791   4.687  19.909  0.00  0.00    +0.000 A 
ATOM     17  H   UNL     1       2.075   6.262  21.071  0.00  0.00    +0.000 HD
ENDROOT
BRANCH   9  18
ATOM     18  N   UNL     1       0.490  11.685  18.527  0.00  0.00    +0.000 N 
ATOM     19  H   UNL     1       0.370  11.807  17.525  0.00  0.00    +0.000 HD
ATOM     20  H   UNL     1      -0.278  12.075  19.071  0.00  0.00    +0.000 HD
ENDBRANCH   9  18
BRANCH   1  22
ATOM     21  C   UNL     1       4.193   2.115  20.587  0.00  0.00    +0.000 C 
ATOM     22  O   UNL     1       5.129   2.776  19.739  0.00  0.00    +0.000 OA
ENDBRANCH   1  22
BRANCH   3  23
ATOM     23  O   UNL     1       4.847   6.009  16.092  0.00  0.00    +0.000 OA
ATOM     24  C   UNL     1       5.687   5.223  15.260  0.00  0.00    +0.000 C 
ENDBRANCH   3  23
TORSDOF 3
ENDMDL
MODEL 7
REMARK VINA RESULT:      -6.8      2.047      3.273
REMARK  Name = 
REMARK  5 active torsions:
REMARK  status: ('A' for Active; 'I' for Inactive)
REMARK    1  A    between atoms: C_1  and  O_2
REMARK    2  A    between atoms: O_2  and  C_3
REMARK    3  A    between atoms: C_5  and  O_6
REMARK    4  A    between atoms: O_6  and  C_7
REMARK    5  A    between atoms: C_13  and  N_14
REMARK                            x       y       z     vdW  Elec       q    Type
REMARK                         _______ _______ _______ _____ _____    ______ ____
ROOT
ATOM      1  C   UNL     1       0.696  10.869  18.916  0.00  0.00    +0.000 A 
ATOM      2  C   UNL     1       0.223  10.300  20.098  0.00  0.00    +0.000 A 
ATOM      3  C   UNL     1       0.649   9.029  20.502  0.00  0.00    +0.000 A 
ATOM      4  C   UNL     1       1.556   8.321  19.688  0.00  0.00    +0.000 A 
ATOM      5  C   UNL     1       2.079   6.969  20.069  0.00  0.00    +0.000 A 
ATOM      6  O   UNL     1       1.747   6.392  21.097  0.00  0.00    +0.000 OA
ATOM      7  C   UNL     1       3.038   6.287  19.167  0.00  0.00    +0.000 A 
ATOM      8  C   UNL     1       3.560   5.037  19.530  0.00  0.00    +0.000 A 
ATOM      9  C   UNL     1       4.440   4.361  18.684  0.00  0.00    +0.000 A 
ATOM     10  C   UNL     1       4.847   5.009  17.503  0.00  0.00    +0.000 A 
ATOM     11 CL   UNL     1       5.987   4.255  16.440  0.00  0.00    +0.000 Cl
ATOM     12  C   UNL     1       4.331   6.260  17.141  0.00  0.00    +0.000 A 
ATOM     13  C   UNL     1       3.413   6.907  17.971  0.00  0.00    +0.000 A 
ATOM     14  N   UNL     1       2.925   8.183  17.664  0.00  0.00    +0.000 N 
ATOM     15  C   UNL     1       2.003   8.873  18.470  0.00  0.00    +0.000 A 
ATOM     16  C   UNL     1       1.567  10.150  18.098  0.00  0.00    +0.000 A 
ATOM     17  H   UNL     1       3.124   8.562  16.746  0.00  0.00    +0.000 HD
ENDROOT
BRANCH   9  18
ATOM     18  N   UNL     1       5.058   3.187  19.147  0.00  0.00    +0.000 N 
ATOM     19  H   UNL     1       6.073   3.211  19.132  0.00  0.00    +0.000 HD
ATOM     20  H   UNL     1       4.679   2.857  20.033  0.00  0.00    +0.000 HD
ENDBRANCH   9  18
BRANCH   1  22
ATOM     21  C   UNL     1      -1.060  12.356  18.365  0.00  0.00    +0.000 C 
ATOM     22  O   UNL     1       0.341  12.111  18.454  0.00  0.00    +0.000 OA
ENDBRANCH   1  22
BRANCH   3  23
ATOM     23  O   UNL     1       0.227   8.430  21.658  0.00  0.00    +0.000 OA
ATOM     24  C   UNL     1      -0.156   9.245  22.756  0.00  0.00    +0.000 C 
ENDBRANCH   3  23
TORSDOF 3
ENDMDL
MODEL 8
REMARK VINA RESULT:      -6.8      5.347      7.769
REMARK  Name = 
REMARK  5 active torsions:
REMARK  status: ('A' for Active; 'I' for Inactive)
REMARK    1  A    between atoms: C_1  and  O_2
REMARK    2  A    between atoms: O_2  and  C_3
REMARK    3  A    between atoms: C_5  and  O_6
REMARK    4  A    between atoms: O_6  and  C_7
REMARK    5  A    between atoms: C_13  and  N_14
REMARK                            x       y       z     vdW  Elec       q    Type
REMARK                         _______ _______ _______ _____ _____    ______ ____
ROOT
ATOM      1  C   UNL     1       6.780   4.731  14.305  0.00  0.00    +0.000 A 
ATOM      2  C   UNL     1       7.529   5.447  15.240  0.00  0.00    +0.000 A 
ATOM      3  C   UNL     1       7.097   5.562  16.567  0.00  0.00    +0.000 A 
ATOM      4  C   UNL     1       5.883   4.956  16.946  0.00  0.00    +0.000 A 
ATOM      5  C   UNL     1       5.371   5.012  18.354  0.00  0.00    +0.000 A 
ATOM      6  O   UNL     1       5.964   5.593  19.255  0.00  0.00    +0.000 OA
ATOM      7  C   UNL     1       4.090   4.342  18.682  0.00  0.00    +0.000 A 
ATOM      8  C   UNL     1       3.619   4.360  20.003  0.00  0.00    +0.000 A 
ATOM      9  C   UNL     1       2.401   3.763  20.331  0.00  0.00    +0.000 A 
ATOM     10  C   UNL     1       1.707   3.078  19.316  0.00  0.00    +0.000 A 
ATOM     11 CL   UNL     1       0.223   2.261  19.669  0.00  0.00    +0.000 Cl
ATOM     12  C   UNL     1       2.180   3.055  17.997  0.00  0.00    +0.000 A 
ATOM     13  C   UNL     1       3.376   3.696  17.668  0.00  0.00    +0.000 A 
ATOM     14  N   UNL     1       3.901   3.640  16.371  0.00  0.00    +0.000 N 
ATOM     15  C   UNL     1       5.101   4.268  15.996  0.00  0.00    +0.000 A 
ATOM     16  C   UNL     1       5.564   4.161  14.679  0.00  0.00    +0.000 A 
ATOM     17  H   UNL     1       3.316   3.264  15.635  0.00  0.00    +0.000 HD
ENDROOT
BRANCH   9  18
ATOM     18  N   UNL     1       2.036   3.669  21.685  0.00  0.00    +0.000 N 
ATOM     19  H   UNL     1       1.858   2.722  22.008  0.00  0.00    +0.000 HD
ATOM     20  H   UNL     1       2.651   4.192  22.304  0.00  0.00    +0.000 HD
ENDBRANCH   9  18
BRANCH   1  22
ATOM     21  C   UNL     1       6.425   3.538  12.294  0.00  0.00    +0.000 C 
ATOM     22  O   UNL     1       7.136   4.557  12.993  0.00  0.00    +0.000 OA
ENDBRANCH   1  22
BRANCH   3  23
ATOM     23  O   UNL     1       7.799   6.241  17.525  0.00  0.00    +0.000 OA
ATOM     24  C   UNL     1       7.779   7.661  17.519  0.00  0.00    +0.000 C 
ENDBRANCH   3  23
TORSDOF 3
ENDMDL
MODEL 9
REMARK VINA RESULT:      -6.7      3.144      6.407
REMARK  Name = 
REMARK  5 active torsions:
REMARK  status: ('A' for Active; 'I' for Inactive)
REMARK    1  A    between atoms: C_1  and  O_2
REMARK    2  A    between atoms: O_2  and  C_3
REMARK    3  A    between atoms: C_5  and  O_6
REMARK    4  A    between atoms: O_6  and  C_7
REMARK    5  A    between atoms: C_13  and  N_14
REMARK                            x       y       z     vdW  Elec       q    Type
REMARK                         _______ _______ _______ _____ _____    ______ ____
ROOT
ATOM      1  C   UNL     1       3.768   3.730  19.255  0.00  0.00    +0.000 A 
ATOM      2  C   UNL     1       4.153   4.309  18.045  0.00  0.00    +0.000 A 
ATOM      3  C   UNL     1       3.784   5.622  17.730  0.00  0.00    +0.000 A 
ATOM      4  C   UNL     1       3.005   6.354  18.648  0.00  0.00    +0.000 A 
ATOM      5  C   UNL     1       2.598   7.773  18.394  0.00  0.00    +0.000 A 
ATOM      6  O   UNL     1       2.905   8.381  17.375  0.00  0.00    +0.000 OA
ATOM      7  C   UNL     1       1.784   8.483  19.410  0.00  0.00    +0.000 A 
ATOM      8  C   UNL     1       1.427   9.822  19.196  0.00  0.00    +0.000 A 
ATOM      9  C   UNL     1       0.636  10.503  20.123  0.00  0.00    +0.000 A 
ATOM     10  C   UNL     1       0.282   9.831  21.308  0.00  0.00    +0.000 A 
ATOM     11 CL   UNL     1      -0.643  10.637  22.529  0.00  0.00    +0.000 Cl
ATOM     12  C   UNL     1       0.643   8.494  21.525  0.00  0.00    +0.000 A 
ATOM     13  C   UNL     1       1.394   7.806  20.569  0.00  0.00    +0.000 A 
ATOM     14  N   UNL     1       1.818   6.489  20.785  0.00  0.00    +0.000 N 
ATOM     15  C   UNL     1       2.577   5.759  19.853  0.00  0.00    +0.000 A 
ATOM     16  C   UNL     1       2.968   4.447  20.145  0.00  0.00    +0.000 A 
ATOM     17  H   UNL     1       1.433   5.987  21.575  0.00  0.00    +0.000 HD
ENDROOT
BRANCH   9  18
ATOM     18  N   UNL     1       0.426  11.882  19.951  0.00  0.00    +0.000 N 
ATOM     19  H   UNL     1       0.944  12.294  19.182  0.00  0.00    +0.000 HD
ATOM     20  H   UNL     1      -0.559  12.141  19.953  0.00  0.00    +0.000 HD
ENDBRANCH   9  18
BRANCH   1  22
ATOM     21  C   UNL     1       3.718   1.421  18.746  0.00  0.00    +0.000 C 
ATOM     22  O   UNL     1       4.095   2.458  19.648  0.00  0.00    +0.000 OA
ENDBRANCH   1  22
BRANCH   3  23
ATOM     23  O   UNL     1       4.146   6.241  16.565  0.00  0.00    +0.000 OA
ATOM     24  C   UNL     1       5.510   6.226  16.170  0.00  0.00    +0.000 C 
ENDBRANCH   3  23
TORSDOF 3
ENDMDL
