MODEL 1
REMARK VINA RESULT:      -6.6      0.000      0.000
REMARK  Name = 
REMARK  11 active torsions:
REMARK  status: ('A' for Active; 'I' for Inactive)
REMARK    1  A    between atoms: C_1  and  C_2
REMARK    2  A    between atoms: C_2  and  C_3
REMARK    3  A    between atoms: C_2  and  C_4
REMARK    4  A    between atoms: C_4  and  C_5
REMARK    5  A    between atoms: C_4  and  N_12
REMARK    6  A    between atoms: N_12  and  C_13
REMARK    7  A    between atoms: N_12  and  C_14
REMARK    8  A    between atoms: C_14  and  C_15
REMARK    9  A    between atoms: C_15  and  C_16
REMARK   10  A    between atoms: C_16  and  C_17
REMARK   11  A    between atoms: C_17  and  C_18
REMARK                            x       y       z     vdW  Elec       q    Type
REMARK                         _______ _______ _______ _____ _____    ______ ____
ROOT
ATOM      1  N   UNL     1       3.336   6.855  18.275  0.00  0.00    +0.000 NA
ATOM      2  C   UNL     1       4.075   7.688  17.329  0.00  0.00    +0.000 C 
ENDROOT
BRANCH   1   3
ATOM      3  C   UNL     1       3.148   5.452  17.828  0.00  0.00    +0.000 C 
BRANCH   3   4
ATOM      4  C   UNL     1       2.492   4.647  18.982  0.00  0.00    +0.000 A 
ATOM      5  C   UNL     1       1.424   3.757  18.766  0.00  0.00    +0.000 A 
ATOM      6  C   UNL     1       0.841   3.056  19.825  0.00  0.00    +0.000 A 
ATOM      7  C   UNL     1       1.335   3.225  21.112  0.00  0.00    +0.000 A 
ATOM      8  F   UNL     1       0.769   2.558  22.126  0.00  0.00    +0.000 F 
ATOM      9  C   UNL     1       2.411   4.065  21.355  0.00  0.00    +0.000 A 
ATOM     10  C   UNL     1       2.992   4.764  20.293  0.00  0.00    +0.000 A 
ENDBRANCH   3   4
BRANCH   3  12
ATOM     11  C   UNL     1       5.522   4.541  18.167  0.00  0.00    +0.000 C 
ATOM     12  C   UNL     1       4.365   4.695  17.161  0.00  0.00    +0.000 C 
ATOM     13  C   UNL     1       4.087   3.292  16.608  0.00  0.00    +0.000 C 
ENDBRANCH   3  12
ENDBRANCH   1   3
BRANCH   1  14
ATOM     14  C   UNL     1       2.168   7.574  18.779  0.00  0.00    +0.000 C 
BRANCH  14  15
ATOM     15  C   UNL     1       1.577   8.596  17.814  0.00  0.00    +0.000 C 
BRANCH  15  16
ATOM     16  C   UNL     1       1.602  10.012  18.404  0.00  0.00    +0.000 C 
BRANCH  16  17
ATOM     17  C   UNL     1       0.248  10.451  19.006  0.00  0.00    +0.000 C 
ATOM     18  C   UNL     1      -0.113   9.736  20.323  0.00  0.00    +0.000 C 
ATOM     19  C   UNL     1       0.801  10.174  21.457  0.00  0.00    +0.000 C 
ATOM     20  O   UNL     1       0.739  11.587  21.629  0.00  0.00    +0.000 OA
ATOM     21  C   UNL     1       1.136  12.319  20.470  0.00  0.00    +0.000 C 
ATOM     22  C   UNL     1       0.251  11.968  19.276  0.00  0.00    +0.000 C 
BRANCH  17  23
ATOM     23  C   UNL     1      -0.807  10.120  17.963  0.00  0.00    +0.000 C 
ATOM     24  N   UNL     1      -1.682   9.847  17.098  0.00  0.00    +0.000 NA
ENDBRANCH  17  23
ENDBRANCH  16  17
ENDBRANCH  15  16
ENDBRANCH  14  15
ENDBRANCH   1  14
TORSDOF 8
ENDMDL
MODEL 2
REMARK VINA RESULT:      -6.6      4.667      7.412
REMARK  Name = 
REMARK  11 active torsions:
REMARK  status: ('A' for Active; 'I' for Inactive)
REMARK    1  A    between atoms: C_1  and  C_2
REMARK    2  A    between atoms: C_2  and  C_3
REMARK    3  A    between atoms: C_2  and  C_4
REMARK    4  A    between atoms: C_4  and  C_5
REMARK    5  A    between atoms: C_4  and  N_12
REMARK    6  A    between atoms: N_12  and  C_13
REMARK    7  A    between atoms: N_12  and  C_14
REMARK    8  A    between atoms: C_14  and  C_15
REMARK    9  A    between atoms: C_15  and  C_16
REMARK   10  A    between atoms: C_16  and  C_17
REMARK   11  A    between atoms: C_17  and  C_18
REMARK                            x       y       z     vdW  Elec       q    Type
REMARK                         _______ _______ _______ _____ _____    ______ ____
ROOT
ATOM      1  N   UNL     1       5.050   6.333  17.707  0.00  0.00    +0.000 NA
ATOM      2  C   UNL     1       3.836   7.123  17.513  0.00  0.00    +0.000 C 
ENDROOT
BRANCH   1   3
ATOM      3  C   UNL     1       6.173   6.717  16.816  0.00  0.00    +0.000 C 
BRANCH   3   4
ATOM      4  C   UNL     1       6.214   5.734  15.616  0.00  0.00    +0.000 A 
ATOM      5  C   UNL     1       5.045   5.212  15.031  0.00  0.00    +0.000 A 
ATOM      6  C   UNL     1       5.111   4.316  13.961  0.00  0.00    +0.000 A 
ATOM      7  C   UNL     1       6.348   3.946  13.452  0.00  0.00    +0.000 A 
ATOM      8  F   UNL     1       6.408   3.081  12.431  0.00  0.00    +0.000 F 
ATOM      9  C   UNL     1       7.519   4.471  13.979  0.00  0.00    +0.000 A 
ATOM     10  C   UNL     1       7.450   5.368  15.049  0.00  0.00    +0.000 A 
ENDBRANCH   3   4
BRANCH   3  12
ATOM     11  C   UNL     1       7.827   8.482  17.672  0.00  0.00    +0.000 C 
ATOM     12  C   UNL     1       7.597   6.974  17.454  0.00  0.00    +0.000 C 
ATOM     13  C   UNL     1       7.883   6.298  18.800  0.00  0.00    +0.000 C 
ENDBRANCH   3  12
ENDBRANCH   1   3
BRANCH   1  14
ATOM     14  C   UNL     1       4.719   4.913  17.816  0.00  0.00    +0.000 C 
BRANCH  14  15
ATOM     15  C   UNL     1       4.914   4.312  19.204  0.00  0.00    +0.000 C 
BRANCH  15  16
ATOM     16  C   UNL     1       3.586   4.198  19.963  0.00  0.00    +0.000 C 
BRANCH  16  17
ATOM     17  C   UNL     1       3.138   2.738  20.202  0.00  0.00    +0.000 C 
ATOM     18  C   UNL     1       1.977   2.596  21.206  0.00  0.00    +0.000 C 
ATOM     19  C   UNL     1       0.681   3.147  20.631  0.00  0.00    +0.000 C 
ATOM     20  O   UNL     1       0.360   2.491  19.407  0.00  0.00    +0.000 OA
ATOM     21  C   UNL     1       1.360   2.645  18.400  0.00  0.00    +0.000 C 
ATOM     22  C   UNL     1       2.700   2.089  18.875  0.00  0.00    +0.000 C 
BRANCH  17  23
ATOM     23  C   UNL     1       4.353   2.008  20.750  0.00  0.00    +0.000 C 
ATOM     24  N   UNL     1       5.361   1.402  21.206  0.00  0.00    +0.000 NA
ENDBRANCH  17  23
ENDBRANCH  16  17
ENDBRANCH  15  16
ENDBRANCH  14  15
ENDBRANCH   1  14
TORSDOF 8
ENDMDL
MODEL 3
REMARK VINA RESULT:      -6.5      0.462      1.067
REMARK  Name = 
REMARK  11 active torsions:
REMARK  status: ('A' for Active; 'I' for Inactive)
REMARK    1  A    between atoms: C_1  and  C_2
REMARK    2  A    between atoms: C_2  and  C_3
REMARK    3  A    between atoms: C_2  and  C_4
REMARK    4  A    between atoms: C_4  and  C_5
REMARK    5  A    between atoms: C_4  and  N_12
REMARK    6  A    between atoms: N_12  and  C_13
REMARK    7  A    between atoms: N_12  and  C_14
REMARK    8  A    between atoms: C_14  and  C_15
REMARK    9  A    between atoms: C_15  and  C_16
REMARK   10  A    between atoms: C_16  and  C_17
REMARK   11  A    between atoms: C_17  and  C_18
REMARK                            x       y       z     vdW  Elec       q    Type
REMARK                         _______ _______ _______ _____ _____    ______ ____
ROOT
ATOM      1  N   UNL     1       3.374   6.871  17.977  0.00  0.00    +0.000 NA
ATOM      2  C   UNL     1       4.461   7.626  17.360  0.00  0.00    +0.000 C 
ENDROOT
BRANCH   1   3
ATOM      3  C   UNL     1       3.406   5.415  17.688  0.00  0.00    +0.000 C 
BRANCH   3   4
ATOM      4  C   UNL     1       2.690   4.664  18.843  0.00  0.00    +0.000 A 
ATOM      5  C   UNL     1       2.839   5.039  20.191  0.00  0.00    +0.000 A 
ATOM      6  C   UNL     1       2.196   4.336  21.213  0.00  0.00    +0.000 A 
ATOM      7  C   UNL     1       1.380   3.259  20.894  0.00  0.00    +0.000 A 
ATOM      8  F   UNL     1       0.771   2.582  21.876  0.00  0.00    +0.000 F 
ATOM      9  C   UNL     1       1.180   2.885  19.574  0.00  0.00    +0.000 A 
ATOM     10  C   UNL     1       1.825   3.591  18.554  0.00  0.00    +0.000 A 
ENDBRANCH   3   4
BRANCH   3  12
ATOM     11  C   UNL     1       5.515   4.214  18.522  0.00  0.00    +0.000 C 
ATOM     12  C   UNL     1       4.781   4.751  17.277  0.00  0.00    +0.000 C 
ATOM     13  C   UNL     1       4.714   3.585  16.283  0.00  0.00    +0.000 C 
ENDBRANCH   3  12
ENDBRANCH   1   3
BRANCH   1  14
ATOM     14  C   UNL     1       2.104   7.574  17.800  0.00  0.00    +0.000 C 
BRANCH  14  15
ATOM     15  C   UNL     1       1.750   8.550  18.918  0.00  0.00    +0.000 C 
BRANCH  15  16
ATOM     16  C   UNL     1       1.442   9.949  18.371  0.00  0.00    +0.000 C 
BRANCH  16  17
ATOM     17  C   UNL     1       0.137  10.555  18.934  0.00  0.00    +0.000 C 
ATOM     18  C   UNL     1      -0.256  10.018  20.323  0.00  0.00    +0.000 C 
ATOM     19  C   UNL     1       0.709  10.503  21.395  0.00  0.00    +0.000 C 
ATOM     20  O   UNL     1       0.759  11.927  21.412  0.00  0.00    +0.000 OA
ATOM     21  C   UNL     1       1.190  12.495  20.176  0.00  0.00    +0.000 C 
ATOM     22  C   UNL     1       0.261  12.088  19.036  0.00  0.00    +0.000 C 
BRANCH  17  23
ATOM     23  C   UNL     1      -0.959  10.198  17.942  0.00  0.00    +0.000 C 
ATOM     24  N   UNL     1      -1.867   9.900  17.119  0.00  0.00    +0.000 NA
ENDBRANCH  17  23
ENDBRANCH  16  17
ENDBRANCH  15  16
ENDBRANCH  14  15
ENDBRANCH   1  14
TORSDOF 8
ENDMDL
MODEL 4
REMARK VINA RESULT:      -6.5      1.568      2.127
REMARK  Name = 
REMARK  11 active torsions:
REMARK  status: ('A' for Active; 'I' for Inactive)
REMARK    1  A    between atoms: C_1  and  C_2
REMARK    2  A    between atoms: C_2  and  C_3
REMARK    3  A    between atoms: C_2  and  C_4
REMARK    4  A    between atoms: C_4  and  C_5
REMARK    5  A    between atoms: C_4  and  N_12
REMARK    6  A    between atoms: N_12  and  C_13
REMARK    7  A    between atoms: N_12  and  C_14
REMARK    8  A    between atoms: C_14  and  C_15
REMARK    9  A    between atoms: C_15  and  C_16
REMARK   10  A    between atoms: C_16  and  C_17
REMARK   11  A    between atoms: C_17  and  C_18
REMARK                            x       y       z     vdW  Elec       q    Type
REMARK                         _______ _______ _______ _____ _____    ______ ____
ROOT
ATOM      1  N   UNL     1       3.662   6.473  17.758  0.00  0.00    +0.000 NA
ATOM      2  C   UNL     1       4.434   7.223  16.770  0.00  0.00    +0.000 C 
ENDROOT
BRANCH   1   3
ATOM      3  C   UNL     1       3.631   5.009  17.520  0.00  0.00    +0.000 C 
BRANCH   3   4
ATOM      4  C   UNL     1       2.811   4.338  18.654  0.00  0.00    +0.000 A 
ATOM      5  C   UNL     1       1.667   3.560  18.396  0.00  0.00    +0.000 A 
ATOM      6  C   UNL     1       0.937   2.980  19.437  0.00  0.00    +0.000 A 
ATOM      7  C   UNL     1       1.357   3.157  20.749  0.00  0.00    +0.000 A 
ATOM      8  F   UNL     1       0.651   2.607  21.745  0.00  0.00    +0.000 F 
ATOM      9  C   UNL     1       2.501   3.885  21.037  0.00  0.00    +0.000 A 
ATOM     10  C   UNL     1       3.229   4.464  19.992  0.00  0.00    +0.000 A 
ENDBRANCH   3   4
BRANCH   3  12
ATOM     11  C   UNL     1       5.259   4.233  15.694  0.00  0.00    +0.000 C 
ATOM     12  C   UNL     1       4.989   4.259  17.212  0.00  0.00    +0.000 C 
ATOM     13  C   UNL     1       6.255   4.828  17.863  0.00  0.00    +0.000 C 
ENDBRANCH   3  12
ENDBRANCH   1   3
BRANCH   1  14
ATOM     14  C   UNL     1       2.394   7.149  18.029  0.00  0.00    +0.000 C 
BRANCH  14  15
ATOM     15  C   UNL     1       2.489   8.665  18.159  0.00  0.00    +0.000 C 
BRANCH  15  16
ATOM     16  C   UNL     1       1.118   9.334  17.991  0.00  0.00    +0.000 C 
BRANCH  16  17
ATOM     17  C   UNL     1       0.619  10.041  19.272  0.00  0.00    +0.000 C 
ATOM     18  C   UNL     1       1.280  11.409  19.530  0.00  0.00    +0.000 C 
ATOM     19  C   UNL     1       0.834  12.439  18.505  0.00  0.00    +0.000 C 
ATOM     20  O   UNL     1      -0.585  12.567  18.511  0.00  0.00    +0.000 OA
ATOM     21  C   UNL     1      -1.267  11.353  18.203  0.00  0.00    +0.000 C 
ATOM     22  C   UNL     1      -0.906  10.257  19.202  0.00  0.00    +0.000 C 
BRANCH  17  23
ATOM     23  C   UNL     1       0.950   9.109  20.426  0.00  0.00    +0.000 C 
ATOM     24  N   UNL     1       1.224   8.336  21.383  0.00  0.00    +0.000 NA
ENDBRANCH  17  23
ENDBRANCH  16  17
ENDBRANCH  15  16
ENDBRANCH  14  15
ENDBRANCH   1  14
TORSDOF 8
ENDMDL
MODEL 5
REMARK VINA RESULT:      -6.5      1.594      2.378
REMARK  Name = 
REMARK  11 active torsions:
REMARK  status: ('A' for Active; 'I' for Inactive)
REMARK    1  A    between atoms: C_1  and  C_2
REMARK    2  A    between atoms: C_2  and  C_3
REMARK    3  A    between atoms: C_2  and  C_4
REMARK    4  A    between atoms: C_4  and  C_5
REMARK    5  A    between atoms: C_4  and  N_12
REMARK    6  A    between atoms: N_12  and  C_13
REMARK    7  A    between atoms: N_12  and  C_14
REMARK    8  A    between atoms: C_14  and  C_15
REMARK    9  A    between atoms: C_15  and  C_16
REMARK   10  A    between atoms: C_16  and  C_17
REMARK   11  A    between atoms: C_17  and  C_18
REMARK                            x       y       z     vdW  Elec       q    Type
REMARK                         _______ _______ _______ _____ _____    ______ ____
ROOT
ATOM      1  N   UNL     1       3.383   7.016  18.018  0.00  0.00    +0.000 NA
ATOM      2  C   UNL     1       4.505   7.756  17.446  0.00  0.00    +0.000 C 
ENDROOT
BRANCH   1   3
ATOM      3  C   UNL     1       3.373   5.571  17.679  0.00  0.00    +0.000 C 
BRANCH   3   4
ATOM      4  C   UNL     1       2.656   4.798  18.819  0.00  0.00    +0.000 A 
ATOM      5  C   UNL     1       2.838   5.120  20.176  0.00  0.00    +0.000 A 
ATOM      6  C   UNL     1       2.192   4.398  21.183  0.00  0.00    +0.000 A 
ATOM      7  C   UNL     1       1.341   3.357  20.841  0.00  0.00    +0.000 A 
ATOM      8  F   UNL     1       0.729   2.661  21.808  0.00  0.00    +0.000 F 
ATOM      9  C   UNL     1       1.108   3.037  19.511  0.00  0.00    +0.000 A 
ATOM     10  C   UNL     1       1.756   3.761  18.506  0.00  0.00    +0.000 A 
ENDBRANCH   3   4
BRANCH   3  12
ATOM     11  C   UNL     1       5.474   4.311  18.439  0.00  0.00    +0.000 C 
ATOM     12  C   UNL     1       4.723   4.887  17.223  0.00  0.00    +0.000 C 
ATOM     13  C   UNL     1       4.610   3.743  16.208  0.00  0.00    +0.000 C 
ENDBRANCH   3  12
ENDBRANCH   1   3
BRANCH   1  14
ATOM     14  C   UNL     1       2.140   7.767  17.846  0.00  0.00    +0.000 C 
BRANCH  14  15
ATOM     15  C   UNL     1       1.694   8.560  19.070  0.00  0.00    +0.000 C 
BRANCH  15  16
ATOM     16  C   UNL     1       1.403  10.025  18.719  0.00  0.00    +0.000 C 
BRANCH  16  17
ATOM     17  C   UNL     1       0.423  10.709  19.699  0.00  0.00    +0.000 C 
ATOM     18  C   UNL     1       0.473  12.249  19.662  0.00  0.00    +0.000 C 
ATOM     19  C   UNL     1      -0.090  12.787  18.355  0.00  0.00    +0.000 C 
ATOM     20  O   UNL     1      -1.426  12.331  18.162  0.00  0.00    +0.000 OA
ATOM     21  C   UNL     1      -1.539  10.909  18.109  0.00  0.00    +0.000 C 
ATOM     22  C   UNL     1      -1.024  10.274  19.398  0.00  0.00    +0.000 C 
BRANCH  17  23
ATOM     23  C   UNL     1       0.818  10.238  21.089  0.00  0.00    +0.000 C 
ATOM     24  N   UNL     1       1.145   9.849  22.243  0.00  0.00    +0.000 NA
ENDBRANCH  17  23
ENDBRANCH  16  17
ENDBRANCH  15  16
ENDBRANCH  14  15
ENDBRANCH   1  14
TORSDOF 8
ENDMDL
MODEL 6
REMARK VINA RESULT:      -6.4      2.164      3.656
REMARK  Name = 
REMARK  11 active torsions:
REMARK  status: ('A' for Active; 'I' for Inactive)
REMARK    1  A    between atoms: C_1  and  C_2
REMARK    2  A    between atoms: C_2  and  C_3
REMARK    3  A    between atoms: C_2  and  C_4
REMARK    4  A    between atoms: C_4  and  C_5
REMARK    5  A    between atoms: C_4  and  N_12
REMARK    6  A    between atoms: N_12  and  C_13
REMARK    7  A    between atoms: N_12  and  C_14
REMARK    8  A    between atoms: C_14  and  C_15
REMARK    9  A    between atoms: C_15  and  C_16
REMARK   10  A    between atoms: C_16  and  C_17
REMARK   11  A    between atoms: C_17  and  C_18
REMARK                            x       y       z     vdW  Elec       q    Type
REMARK                         _______ _______ _______ _____ _____    ______ ____
ROOT
ATOM      1  N   UNL     1       2.143   6.134  19.578  0.00  0.00    +0.000 NA
ATOM      2  C   UNL     1       1.485   6.587  20.802  0.00  0.00    +0.000 C 
ENDROOT
BRANCH   1   3
ATOM      3  C   UNL     1       3.069   4.990  19.775  0.00  0.00    +0.000 C 
BRANCH   3   4
ATOM      4  C   UNL     1       4.191   5.070  18.705  0.00  0.00    +0.000 A 
ATOM      5  C   UNL     1       5.497   5.491  19.014  0.00  0.00    +0.000 A 
ATOM      6  C   UNL     1       6.484   5.568  18.028  0.00  0.00    +0.000 A 
ATOM      7  C   UNL     1       6.179   5.206  16.723  0.00  0.00    +0.000 A 
ATOM      8  F   UNL     1       7.125   5.289  15.779  0.00  0.00    +0.000 F 
ATOM      9  C   UNL     1       4.912   4.750  16.390  0.00  0.00    +0.000 A 
ATOM     10  C   UNL     1       3.927   4.673  17.379  0.00  0.00    +0.000 A 
ENDBRANCH   3   4
BRANCH   3  12
ATOM     11  C   UNL     1       2.341   3.160  21.418  0.00  0.00    +0.000 C 
ATOM     12  C   UNL     1       2.463   3.538  19.929  0.00  0.00    +0.000 C 
ATOM     13  C   UNL     1       1.080   3.298  19.310  0.00  0.00    +0.000 C 
ENDBRANCH   3  12
ENDBRANCH   1   3
BRANCH   1  14
ATOM     14  C   UNL     1       2.626   7.280  18.809  0.00  0.00    +0.000 C 
BRANCH  14  15
ATOM     15  C   UNL     1       1.539   8.086  18.106  0.00  0.00    +0.000 C 
BRANCH  15  16
ATOM     16  C   UNL     1       1.710   9.592  18.342  0.00  0.00    +0.000 C 
BRANCH  16  17
ATOM     17  C   UNL     1       0.429  10.282  18.861  0.00  0.00    +0.000 C 
ATOM     18  C   UNL     1      -0.028   9.793  20.250  0.00  0.00    +0.000 C 
ATOM     19  C   UNL     1       0.936  10.242  21.337  0.00  0.00    +0.000 C 
ATOM     20  O   UNL     1       1.068  11.661  21.331  0.00  0.00    +0.000 OA
ATOM     21  C   UNL     1       1.561  12.182  20.098  0.00  0.00    +0.000 C 
ATOM     22  C   UNL     1       0.638  11.807  18.941  0.00  0.00    +0.000 C 
BRANCH  17  23
ATOM     23  C   UNL     1      -0.661   9.969  17.848  0.00  0.00    +0.000 C 
ATOM     24  N   UNL     1      -1.564   9.709  17.008  0.00  0.00    +0.000 NA
ENDBRANCH  17  23
ENDBRANCH  16  17
ENDBRANCH  15  16
ENDBRANCH  14  15
ENDBRANCH   1  14
TORSDOF 8
ENDMDL
MODEL 7
REMARK VINA RESULT:      -6.4      3.892      6.925
REMARK  Name = 
REMARK  11 active torsions:
REMARK  status: ('A' for Active; 'I' for Inactive)
REMARK    1  A    between atoms: C_1  and  C_2
REMARK    2  A    between atoms: C_2  and  C_3
REMARK    3  A    between atoms: C_2  and  C_4
REMARK    4  A    between atoms: C_4  and  C_5
REMARK    5  A    between atoms: C_4  and  N_12
REMARK    6  A    between atoms: N_12  and  C_13
REMARK    7  A    between atoms: N_12  and  C_14
REMARK    8  A    between atoms: C_14  and  C_15
REMARK    9  A    between atoms: C_15  and  C_16
REMARK   10  A    between atoms: C_16  and  C_17
REMARK   11  A    between atoms: C_17  and  C_18
REMARK                            x       y       z     vdW  Elec       q    Type
REMARK                         _______ _______ _______ _____ _____    ______ ____
ROOT
ATOM      1  N   UNL     1       3.750   3.922  19.929  0.00  0.00    +0.000 NA
ATOM      2  C   UNL     1       4.047   2.499  20.078  0.00  0.00    +0.000 C 
ENDROOT
BRANCH   1   3
ATOM      3  C   UNL     1       2.425   4.205  19.324  0.00  0.00    +0.000 C 
BRANCH   3   4
ATOM      4  C   UNL     1       2.230   5.744  19.254  0.00  0.00    +0.000 A 
ATOM      5  C   UNL     1       2.369   6.465  18.054  0.00  0.00    +0.000 A 
ATOM      6  C   UNL     1       2.203   7.852  18.021  0.00  0.00    +0.000 A 
ATOM      7  C   UNL     1       1.878   8.531  19.187  0.00  0.00    +0.000 A 
ATOM      8  F   UNL     1       1.728   9.861  19.154  0.00  0.00    +0.000 F 
ATOM      9  C   UNL     1       1.696   7.847  20.380  0.00  0.00    +0.000 A 
ATOM     10  C   UNL     1       1.861   6.459  20.409  0.00  0.00    +0.000 A 
ENDBRANCH   3   4
BRANCH   3  12
ATOM     11  C   UNL     1       0.748   2.304  18.932  0.00  0.00    +0.000 C 
ATOM     12  C   UNL     1       1.155   3.446  19.883  0.00  0.00    +0.000 C 
ATOM     13  C   UNL     1       1.283   2.819  21.276  0.00  0.00    +0.000 C 
ENDBRANCH   3  12
ENDBRANCH   1   3
BRANCH   1  14
ATOM     14  C   UNL     1       4.912   4.627  19.391  0.00  0.00    +0.000 C 
BRANCH  14  15
ATOM     15  C   UNL     1       5.368   4.158  18.013  0.00  0.00    +0.000 C 
BRANCH  15  16
ATOM     16  C   UNL     1       6.743   4.730  17.648  0.00  0.00    +0.000 C 
BRANCH  16  17
ATOM     17  C   UNL     1       6.702   5.721  16.463  0.00  0.00    +0.000 C 
ATOM     18  C   UNL     1       7.514   5.265  15.235  0.00  0.00    +0.000 C 
ATOM     19  C   UNL     1       6.866   4.066  14.560  0.00  0.00    +0.000 C 
ATOM     20  O   UNL     1       5.527   4.371  14.181  0.00  0.00    +0.000 OA
ATOM     21  C   UNL     1       4.692   4.729  15.281  0.00  0.00    +0.000 C 
ATOM     22  C   UNL     1       5.247   5.951  16.009  0.00  0.00    +0.000 C 
BRANCH  17  23
ATOM     23  C   UNL     1       7.286   7.025  16.981  0.00  0.00    +0.000 C 
ATOM     24  N   UNL     1       7.769   8.107  17.411  0.00  0.00    +0.000 NA
ENDBRANCH  17  23
ENDBRANCH  16  17
ENDBRANCH  15  16
ENDBRANCH  14  15
ENDBRANCH   1  14
TORSDOF 8
ENDMDL
MODEL 8
REMARK VINA RESULT:      -6.4      4.257      6.267
REMARK  Name = 
REMARK  11 active torsions:
REMARK  status: ('A' for Active; 'I' for Inactive)
REMARK    1  A    between atoms: C_1  and  C_2
REMARK    2  A    between atoms: C_2  and  C_3
REMARK    3  A    between atoms: C_2  and  C_4
REMARK    4  A    between atoms: C_4  and  C_5
REMARK    5  A    between atoms: C_4  and  N_12
REMARK    6  A    between atoms: N_12  and  C_13
REMARK    7  A    between atoms: N_12  and  C_14
REMARK    8  A    between atoms: C_14  and  C_15
REMARK    9  A    between atoms: C_15  and  C_16
REMARK   10  A    between atoms: C_16  and  C_17
REMARK   11  A    between atoms: C_17  and  C_18
REMARK                            x       y       z     vdW  Elec       q    Type
REMARK                         _______ _______ _______ _____ _____    ______ ____
ROOT
ATOM      1  N   UNL     1       4.465   4.185  16.431  0.00  0.00    +0.000 NA
ATOM      2  C   UNL     1       4.261   2.973  17.221  0.00  0.00    +0.000 C 
ENDROOT
BRANCH   1   3
ATOM      3  C   UNL     1       5.840   4.334  15.892  0.00  0.00    +0.000 C 
BRANCH   3   4
ATOM      4  C   UNL     1       6.632   5.303  16.810  0.00  0.00    +0.000 A 
ATOM      5  C   UNL     1       6.684   6.689  16.573  0.00  0.00    +0.000 A 
ATOM      6  C   UNL     1       7.417   7.537  17.407  0.00  0.00    +0.000 A 
ATOM      7  C   UNL     1       8.093   7.009  18.499  0.00  0.00    +0.000 A 
ATOM      8  F   UNL     1       8.801   7.824  19.291  0.00  0.00    +0.000 F 
ATOM      9  C   UNL     1       8.032   5.653  18.784  0.00  0.00    +0.000 A 
ATOM     10  C   UNL     1       7.297   4.807  17.948  0.00  0.00    +0.000 A 
ENDBRANCH   3   4
BRANCH   3  12
ATOM     11  C   UNL     1       7.511   4.891  14.026  0.00  0.00    +0.000 C 
ATOM     12  C   UNL     1       6.024   4.650  14.353  0.00  0.00    +0.000 C 
ATOM     13  C   UNL     1       5.534   3.585  13.366  0.00  0.00    +0.000 C 
ENDBRANCH   3  12
ENDBRANCH   1   3
BRANCH   1  14
ATOM     14  C   UNL     1       3.868   5.336  17.107  0.00  0.00    +0.000 C 
BRANCH  14  15
ATOM     15  C   UNL     1       2.721   5.001  18.054  0.00  0.00    +0.000 C 
BRANCH  15  16
ATOM     16  C   UNL     1       3.145   5.126  19.523  0.00  0.00    +0.000 C 
BRANCH  16  17
ATOM     17  C   UNL     1       1.967   5.004  20.515  0.00  0.00    +0.000 C 
ATOM     18  C   UNL     1       0.744   4.257  19.948  0.00  0.00    +0.000 C 
ATOM     19  C   UNL     1       1.042   2.778  19.755  0.00  0.00    +0.000 C 
ATOM     20  O   UNL     1       1.454   2.188  20.985  0.00  0.00    +0.000 OA
ATOM     21  C   UNL     1       2.630   2.781  21.534  0.00  0.00    +0.000 C 
ATOM     22  C   UNL     1       2.419   4.270  21.793  0.00  0.00    +0.000 C 
BRANCH  17  23
ATOM     23  C   UNL     1       1.557   6.426  20.862  0.00  0.00    +0.000 C 
ATOM     24  N   UNL     1       1.218   7.605  21.151  0.00  0.00    +0.000 NA
ENDBRANCH  17  23
ENDBRANCH  16  17
ENDBRANCH  15  16
ENDBRANCH  14  15
ENDBRANCH   1  14
TORSDOF 8
ENDMDL
MODEL 9
REMARK VINA RESULT:      -6.4      2.808      4.305
REMARK  Name = 
REMARK  11 active torsions:
REMARK  status: ('A' for Active; 'I' for Inactive)
REMARK    1  A    between atoms: C_1  and  C_2
REMARK    2  A    between atoms: C_2  and  C_3
REMARK    3  A    between atoms: C_2  and  C_4
REMARK    4  A    between atoms: C_4  and  C_5
REMARK    5  A    between atoms: C_4  and  N_12
REMARK    6  A    between atoms: N_12  and  C_13
REMARK    7  A    between atoms: N_12  and  C_14
REMARK    8  A    between atoms: C_14  and  C_15
REMARK    9  A    between atoms: C_15  and  C_16
REMARK   10  A    between atoms: C_16  and  C_17
REMARK   11  A    between atoms: C_17  and  C_18
REMARK                            x       y       z     vdW  Elec       q    Type
REMARK                         _______ _______ _______ _____ _____    ______ ____
ROOT
ATOM      1  N   UNL     1       2.257   5.312  19.752  0.00  0.00    +0.000 NA
ATOM      2  C   UNL     1       1.991   5.033  21.161  0.00  0.00    +0.000 C 
ENDROOT
BRANCH   1   3
ATOM      3  C   UNL     1       3.147   4.321  19.095  0.00  0.00    +0.000 C 
BRANCH   3   4
ATOM      4  C   UNL     1       4.384   5.066  18.525  0.00  0.00    +0.000 A 
ATOM      5  C   UNL     1       5.620   5.096  19.197  0.00  0.00    +0.000 A 
ATOM      6  C   UNL     1       6.713   5.788  18.669  0.00  0.00    +0.000 A 
ATOM      7  C   UNL     1       6.587   6.442  17.452  0.00  0.00    +0.000 A 
ATOM      8  F   UNL     1       7.634   7.111  16.952  0.00  0.00    +0.000 F 
ATOM      9  C   UNL     1       5.395   6.401  16.743  0.00  0.00    +0.000 A 
ATOM     10  C   UNL     1       4.303   5.708  17.274  0.00  0.00    +0.000 A 
ENDBRANCH   3   4
BRANCH   3  12
ATOM     11  C   UNL     1       3.475   2.107  17.841  0.00  0.00    +0.000 C 
ATOM     12  C   UNL     1       2.518   3.294  18.071  0.00  0.00    +0.000 C 
ATOM     13  C   UNL     1       1.163   2.685  18.449  0.00  0.00    +0.000 C 
ENDBRANCH   3  12
ENDBRANCH   1   3
BRANCH   1  14
ATOM     14  C   UNL     1       2.557   6.730  19.564  0.00  0.00    +0.000 C 
BRANCH  14  15
ATOM     15  C   UNL     1       1.636   7.686  20.314  0.00  0.00    +0.000 C 
BRANCH  15  16
ATOM     16  C   UNL     1       1.654   9.090  19.697  0.00  0.00    +0.000 C 
BRANCH  16  17
ATOM     17  C   UNL     1       0.731  10.094  20.423  0.00  0.00    +0.000 C 
ATOM     18  C   UNL     1       1.082  11.571  20.163  0.00  0.00    +0.000 C 
ATOM     19  C   UNL     1       0.774  11.966  18.727  0.00  0.00    +0.000 C 
ATOM     20  O   UNL     1      -0.599  11.725  18.427  0.00  0.00    +0.000 OA
ATOM     21  C   UNL     1      -0.980  10.358  18.573  0.00  0.00    +0.000 C 
ATOM     22  C   UNL     1      -0.735   9.873  20.000  0.00  0.00    +0.000 C 
BRANCH  17  23
ATOM     23  C   UNL     1       0.880   9.808  21.909  0.00  0.00    +0.000 C 
ATOM     24  N   UNL     1       1.006   9.572  23.141  0.00  0.00    +0.000 NA
ENDBRANCH  17  23
ENDBRANCH  16  17
ENDBRANCH  15  16
ENDBRANCH  14  15
ENDBRANCH   1  14
TORSDOF 8
ENDMDL
