MODEL 1
REMARK VINA RESULT:      -8.2      0.000      0.000
REMARK  Name = 
REMARK  8 active torsions:
REMARK  status: ('A' for Active; 'I' for Inactive)
REMARK    1  A    between atoms: C_1  and  O_2
REMARK    2  A    between atoms: O_2  and  C_3
REMARK    3  A    between atoms: C_6  and  C_7
REMARK    4  A    between atoms: C_7  and  C_8
REMARK    5  A    between atoms: C_8  and  N_9
REMARK    6  A    between atoms: C_10  and  C_12
REMARK    7  A    between atoms: C_14  and  C_15
REMARK    8  A    between atoms: C_24  and  C_25
REMARK                            x       y       z     vdW  Elec       q    Type
REMARK                         _______ _______ _______ _____ _____    ______ ____
ROOT
ATOM      1  N   UNL     1       6.568   5.878  15.962  0.00  0.00    +0.000 N 
ATOM      2  C   UNL     1       6.108   6.853  16.826  0.00  0.00    +0.000 C 
ATOM      3  O   UNL     1       4.914   7.071  16.996  0.00  0.00    +0.000 OA
ATOM      4  H   UNL     1       7.548   5.638  15.961  0.00  0.00    +0.000 HD
ENDROOT
BRANCH   2   5
ATOM      5  C   UNL     1       7.146   7.599  17.529  0.00  0.00    +0.000 A 
ATOM      6  C   UNL     1       7.535   8.964  17.398  0.00  0.00    +0.000 A 
ATOM      7  C   UNL     1       8.531   9.205  18.322  0.00  0.00    +0.000 A 
ATOM      8  O   UNL     1       8.804   8.055  19.000  0.00  0.00    +0.000 OA
ATOM      9  C   UNL     1       7.965   7.089  18.526  0.00  0.00    +0.000 A 
ATOM     10  C   UNL     1       8.091   5.758  19.162  0.00  0.00    +0.000 C 
BRANCH   7  11
ATOM     11  C   UNL     1       9.275  10.400  18.709  0.00  0.00    +0.000 A 
ATOM     12  C   UNL     1      10.146  11.050  17.824  0.00  0.00    +0.000 A 
ATOM     13  C   UNL     1      10.876  12.172  18.235  0.00  0.00    +0.000 A 
ATOM     14  C   UNL     1      10.746  12.661  19.537  0.00  0.00    +0.000 A 
ATOM     15 CL   UNL     1      11.690  14.035  19.986  0.00  0.00    +0.000 Cl
ATOM     16  C   UNL     1       9.874  12.029  20.425  0.00  0.00    +0.000 A 
ATOM     17 CL   UNL     1       9.653  12.565  22.054  0.00  0.00    +0.000 Cl
ATOM     18  C   UNL     1       9.144  10.910  20.010  0.00  0.00    +0.000 A 
ENDBRANCH   7  11
ENDBRANCH   2   5
BRANCH   1  19
ATOM     19  C   UNL     1       5.636   5.031  15.242  0.00  0.00    +0.000 C 
BRANCH  19  20
ATOM     20  C   UNL     1       5.476   3.649  15.876  0.00  0.00    +0.000 C 
BRANCH  20  24
ATOM     21  C   UNL     1       2.994   3.890  19.409  0.00  0.00    +0.000 A 
ATOM     22  C   UNL     1       2.423   3.936  18.138  0.00  0.00    +0.000 A 
ATOM     23  C   UNL     1       3.218   3.836  16.993  0.00  0.00    +0.000 A 
ATOM     24  C   UNL     1       4.606   3.702  17.108  0.00  0.00    +0.000 A 
ATOM     25  C   UNL     1       5.179   3.673  18.387  0.00  0.00    +0.000 A 
ATOM     26  C   UNL     1       4.378   3.766  19.531  0.00  0.00    +0.000 A 
BRANCH  21  28
ATOM     27  C   UNL     1       0.879   3.323  20.308  0.00  0.00    +0.000 C 
ATOM     28  O   UNL     1       2.113   4.018  20.448  0.00  0.00    +0.000 OA
ENDBRANCH  21  28
ENDBRANCH  20  24
ENDBRANCH  19  20
ENDBRANCH   1  19
TORSDOF 6
ENDMDL
MODEL 2
REMARK VINA RESULT:      -8.0      2.746      3.365
REMARK  Name = 
REMARK  8 active torsions:
REMARK  status: ('A' for Active; 'I' for Inactive)
REMARK    1  A    between atoms: C_1  and  O_2
REMARK    2  A    between atoms: O_2  and  C_3
REMARK    3  A    between atoms: C_6  and  C_7
REMARK    4  A    between atoms: C_7  and  C_8
REMARK    5  A    between atoms: C_8  and  N_9
REMARK    6  A    between atoms: C_10  and  C_12
REMARK    7  A    between atoms: C_14  and  C_15
REMARK    8  A    between atoms: C_24  and  C_25
REMARK                            x       y       z     vdW  Elec       q    Type
REMARK                         _______ _______ _______ _____ _____    ______ ____
ROOT
ATOM      1  N   UNL     1       5.206   5.933  17.729  0.00  0.00    +0.000 N 
ATOM      2  C   UNL     1       6.071   6.633  16.910  0.00  0.00    +0.000 C 
ATOM      3  O   UNL     1       5.969   6.629  15.688  0.00  0.00    +0.000 OA
ATOM      4  H   UNL     1       5.239   6.079  18.726  0.00  0.00    +0.000 HD
ENDROOT
BRANCH   2   5
ATOM      5  C   UNL     1       7.111   7.385  17.604  0.00  0.00    +0.000 A 
ATOM      6  C   UNL     1       7.471   8.759  17.490  0.00  0.00    +0.000 A 
ATOM      7  C   UNL     1       8.483   9.002  18.396  0.00  0.00    +0.000 A 
ATOM      8  O   UNL     1       8.792   7.845  19.047  0.00  0.00    +0.000 OA
ATOM      9  C   UNL     1       7.961   6.872  18.573  0.00  0.00    +0.000 A 
ATOM     10  C   UNL     1       8.126   5.532  19.181  0.00  0.00    +0.000 C 
BRANCH   7  11
ATOM     11  C   UNL     1       9.213  10.203  18.790  0.00  0.00    +0.000 A 
ATOM     12  C   UNL     1       9.425  10.535  20.136  0.00  0.00    +0.000 A 
ATOM     13  C   UNL     1      10.096  11.713  20.485  0.00  0.00    +0.000 A 
ATOM     14  C   UNL     1      10.566  12.578  19.494  0.00  0.00    +0.000 A 
ATOM     15 CL   UNL     1      11.367  14.024  19.991  0.00  0.00    +0.000 Cl
ATOM     16  C   UNL     1      10.371  12.254  18.149  0.00  0.00    +0.000 A 
ATOM     17 CL   UNL     1      10.917  13.267  16.859  0.00  0.00    +0.000 Cl
ATOM     18  C   UNL     1       9.702  11.075  17.805  0.00  0.00    +0.000 A 
ENDBRANCH   7  11
ENDBRANCH   2   5
BRANCH   1  19
ATOM     19  C   UNL     1       4.098   5.187  17.164  0.00  0.00    +0.000 C 
BRANCH  19  20
ATOM     20  C   UNL     1       2.896   5.102  18.106  0.00  0.00    +0.000 C 
BRANCH  20  24
ATOM     21  C   UNL     1       1.542   8.998  19.405  0.00  0.00    +0.000 A 
ATOM     22  C   UNL     1       1.717   7.966  20.326  0.00  0.00    +0.000 A 
ATOM     23  C   UNL     1       2.176   6.711  19.914  0.00  0.00    +0.000 A 
ATOM     24  C   UNL     1       2.453   6.470  18.564  0.00  0.00    +0.000 A 
ATOM     25  C   UNL     1       2.260   7.504  17.639  0.00  0.00    +0.000 A 
ATOM     26  C   UNL     1       1.808   8.761  18.057  0.00  0.00    +0.000 A 
BRANCH  21  28
ATOM     27  C   UNL     1       0.559  10.100  21.255  0.00  0.00    +0.000 C 
ATOM     28  O   UNL     1       1.070  10.170  19.928  0.00  0.00    +0.000 OA
ENDBRANCH  21  28
ENDBRANCH  20  24
ENDBRANCH  19  20
ENDBRANCH   1  19
TORSDOF 6
ENDMDL
MODEL 3
REMARK VINA RESULT:      -8.0      4.444      7.288
REMARK  Name = 
REMARK  8 active torsions:
REMARK  status: ('A' for Active; 'I' for Inactive)
REMARK    1  A    between atoms: C_1  and  O_2
REMARK    2  A    between atoms: O_2  and  C_3
REMARK    3  A    between atoms: C_6  and  C_7
REMARK    4  A    between atoms: C_7  and  C_8
REMARK    5  A    between atoms: C_8  and  N_9
REMARK    6  A    between atoms: C_10  and  C_12
REMARK    7  A    between atoms: C_14  and  C_15
REMARK    8  A    between atoms: C_24  and  C_25
REMARK                            x       y       z     vdW  Elec       q    Type
REMARK                         _______ _______ _______ _____ _____    ______ ____
ROOT
ATOM      1  N   UNL     1       3.624   4.104  17.554  0.00  0.00    +0.000 N 
ATOM      2  C   UNL     1       3.845   4.242  18.911  0.00  0.00    +0.000 C 
ATOM      3  O   UNL     1       4.693   3.590  19.509  0.00  0.00    +0.000 OA
ATOM      4  H   UNL     1       3.020   4.759  17.081  0.00  0.00    +0.000 HD
ENDROOT
BRANCH   2   5
ATOM      5  C   UNL     1       3.002   5.226  19.580  0.00  0.00    +0.000 A 
ATOM      6  C   UNL     1       2.821   6.612  19.301  0.00  0.00    +0.000 A 
ATOM      7  C   UNL     1       1.878   7.097  20.184  0.00  0.00    +0.000 A 
ATOM      8  O   UNL     1       1.485   6.094  21.018  0.00  0.00    +0.000 OA
ATOM      9  C   UNL     1       2.158   4.965  20.651  0.00  0.00    +0.000 A 
ATOM     10  C   UNL     1       1.845   3.746  21.430  0.00  0.00    +0.000 C 
BRANCH   7  11
ATOM     11  C   UNL     1       1.236   8.396  20.356  0.00  0.00    +0.000 A 
ATOM     12  C   UNL     1       1.305   9.394  19.372  0.00  0.00    +0.000 A 
ATOM     13  C   UNL     1       0.711  10.645  19.580  0.00  0.00    +0.000 A 
ATOM     14  C   UNL     1       0.040  10.918  20.773  0.00  0.00    +0.000 A 
ATOM     15 CL   UNL     1      -0.652  12.487  20.975  0.00  0.00    +0.000 Cl
ATOM     16  C   UNL     1      -0.046   9.930  21.757  0.00  0.00    +0.000 A 
ATOM     17 CL   UNL     1      -0.856  10.182  23.263  0.00  0.00    +0.000 Cl
ATOM     18  C   UNL     1       0.546   8.681  21.544  0.00  0.00    +0.000 A 
ENDBRANCH   7  11
ENDBRANCH   2   5
BRANCH   1  19
ATOM     19  C   UNL     1       4.433   3.196  16.764  0.00  0.00    +0.000 C 
BRANCH  19  20
ATOM     20  C   UNL     1       5.384   3.921  15.811  0.00  0.00    +0.000 C 
BRANCH  20  24
ATOM     21  C   UNL     1       7.615   6.960  17.930  0.00  0.00    +0.000 A 
ATOM     22  C   UNL     1       7.899   5.609  18.123  0.00  0.00    +0.000 A 
ATOM     23  C   UNL     1       7.196   4.623  17.424  0.00  0.00    +0.000 A 
ATOM     24  C   UNL     1       6.184   4.981  16.527  0.00  0.00    +0.000 A 
ATOM     25  C   UNL     1       5.889   6.340  16.348  0.00  0.00    +0.000 A 
ATOM     26  C   UNL     1       6.601   7.323  17.045  0.00  0.00    +0.000 A 
BRANCH  21  28
ATOM     27  C   UNL     1       8.408   9.170  18.226  0.00  0.00    +0.000 C 
ATOM     28  O   UNL     1       8.357   7.824  18.686  0.00  0.00    +0.000 OA
ENDBRANCH  21  28
ENDBRANCH  20  24
ENDBRANCH  19  20
ENDBRANCH   1  19
TORSDOF 6
ENDMDL
MODEL 4
REMARK VINA RESULT:      -7.8      4.331      7.340
REMARK  Name = 
REMARK  8 active torsions:
REMARK  status: ('A' for Active; 'I' for Inactive)
REMARK    1  A    between atoms: C_1  and  O_2
REMARK    2  A    between atoms: O_2  and  C_3
REMARK    3  A    between atoms: C_6  and  C_7
REMARK    4  A    between atoms: C_7  and  C_8
REMARK    5  A    between atoms: C_8  and  N_9
REMARK    6  A    between atoms: C_10  and  C_12
REMARK    7  A    between atoms: C_14  and  C_15
REMARK    8  A    between atoms: C_24  and  C_25
REMARK                            x       y       z     vdW  Elec       q    Type
REMARK                         _______ _______ _______ _____ _____    ______ ____
ROOT
ATOM      1  N   UNL     1       3.450   4.055  17.611  0.00  0.00    +0.000 N 
ATOM      2  C   UNL     1       3.688   4.163  18.968  0.00  0.00    +0.000 C 
ATOM      3  O   UNL     1       4.556   3.511  19.538  0.00  0.00    +0.000 OA
ATOM      4  H   UNL     1       2.828   4.710  17.163  0.00  0.00    +0.000 HD
ENDROOT
BRANCH   2   5
ATOM      5  C   UNL     1       2.837   5.115  19.674  0.00  0.00    +0.000 A 
ATOM      6  C   UNL     1       2.834   6.539  19.632  0.00  0.00    +0.000 A 
ATOM      7  C   UNL     1       1.803   6.979  20.437  0.00  0.00    +0.000 A 
ATOM      8  O   UNL     1       1.184   5.904  21.002  0.00  0.00    +0.000 OA
ATOM      9  C   UNL     1       1.803   4.781  20.537  0.00  0.00    +0.000 A 
ATOM     10  C   UNL     1       1.252   3.494  21.020  0.00  0.00    +0.000 C 
BRANCH   7  11
ATOM     11  C   UNL     1       1.263   8.298  20.748  0.00  0.00    +0.000 A 
ATOM     12  C   UNL     1       0.792   8.624  22.029  0.00  0.00    +0.000 A 
ATOM     13  C   UNL     1       0.244   9.886  22.289  0.00  0.00    +0.000 A 
ATOM     14  C   UNL     1       0.157  10.842  21.274  0.00  0.00    +0.000 A 
ATOM     15 CL   UNL     1      -0.548  12.370  21.655  0.00  0.00    +0.000 Cl
ATOM     16  C   UNL     1       0.632  10.533  19.997  0.00  0.00    +0.000 A 
ATOM     17 CL   UNL     1       0.563  11.653  18.681  0.00  0.00    +0.000 Cl
ATOM     18  C   UNL     1       1.181   9.272  19.742  0.00  0.00    +0.000 A 
ENDBRANCH   7  11
ENDBRANCH   2   5
BRANCH   1  19
ATOM     19  C   UNL     1       4.264   3.181  16.788  0.00  0.00    +0.000 C 
BRANCH  19  20
ATOM     20  C   UNL     1       5.149   3.946  15.802  0.00  0.00    +0.000 C 
BRANCH  20  24
ATOM     21  C   UNL     1       7.525   6.898  17.886  0.00  0.00    +0.000 A 
ATOM     22  C   UNL     1       7.819   5.540  18.003  0.00  0.00    +0.000 A 
ATOM     23  C   UNL     1       7.068   4.583  17.315  0.00  0.00    +0.000 A 
ATOM     24  C   UNL     1       5.997   4.977  16.505  0.00  0.00    +0.000 A 
ATOM     25  C   UNL     1       5.694   6.341  16.402  0.00  0.00    +0.000 A 
ATOM     26  C   UNL     1       6.453   7.296  17.087  0.00  0.00    +0.000 A 
BRANCH  21  28
ATOM     27  C   UNL     1       8.363   9.089  18.198  0.00  0.00    +0.000 C 
ATOM     28  O   UNL     1       8.318   7.731  18.624  0.00  0.00    +0.000 OA
ENDBRANCH  21  28
ENDBRANCH  20  24
ENDBRANCH  19  20
ENDBRANCH   1  19
TORSDOF 6
ENDMDL
MODEL 5
REMARK VINA RESULT:      -7.8      5.234      7.643
REMARK  Name = 
REMARK  8 active torsions:
REMARK  status: ('A' for Active; 'I' for Inactive)
REMARK    1  A    between atoms: C_1  and  O_2
REMARK    2  A    between atoms: O_2  and  C_3
REMARK    3  A    between atoms: C_6  and  C_7
REMARK    4  A    between atoms: C_7  and  C_8
REMARK    5  A    between atoms: C_8  and  N_9
REMARK    6  A    between atoms: C_10  and  C_12
REMARK    7  A    between atoms: C_14  and  C_15
REMARK    8  A    between atoms: C_24  and  C_25
REMARK                            x       y       z     vdW  Elec       q    Type
REMARK                         _______ _______ _______ _____ _____    ______ ____
ROOT
ATOM      1  N   UNL     1       2.582   4.637  18.970  0.00  0.00    +0.000 N 
ATOM      2  C   UNL     1       2.346   5.139  20.236  0.00  0.00    +0.000 C 
ATOM      3  O   UNL     1       2.514   4.472  21.251  0.00  0.00    +0.000 OA
ATOM      4  H   UNL     1       2.569   5.261  18.179  0.00  0.00    +0.000 HD
ENDROOT
BRANCH   2   5
ATOM      5  C   UNL     1       1.891   6.524  20.279  0.00  0.00    +0.000 A 
ATOM      6  C   UNL     1       1.115   7.199  21.266  0.00  0.00    +0.000 A 
ATOM      7  C   UNL     1       0.994   8.516  20.874  0.00  0.00    +0.000 A 
ATOM      8  O   UNL     1       1.627   8.691  19.680  0.00  0.00    +0.000 OA
ATOM      9  C   UNL     1       2.172   7.492  19.325  0.00  0.00    +0.000 A 
ATOM     10  C   UNL     1       2.933   7.481  18.054  0.00  0.00    +0.000 C 
BRANCH   7  11
ATOM     11  C   UNL     1       0.383   9.694  21.483  0.00  0.00    +0.000 A 
ATOM     12  C   UNL     1      -0.476   9.597  22.587  0.00  0.00    +0.000 A 
ATOM     13  C   UNL     1      -1.078  10.740  23.127  0.00  0.00    +0.000 A 
ATOM     14  C   UNL     1      -0.832  11.997  22.571  0.00  0.00    +0.000 A 
ATOM     15 CL   UNL     1      -1.622  13.363  23.270  0.00  0.00    +0.000 Cl
ATOM     16  C   UNL     1       0.029  12.109  21.477  0.00  0.00    +0.000 A 
ATOM     17 CL   UNL     1       0.389  13.624  20.725  0.00  0.00    +0.000 Cl
ATOM     18  C   UNL     1       0.631  10.965  20.942  0.00  0.00    +0.000 A 
ENDBRANCH   7  11
ENDBRANCH   2   5
BRANCH   1  19
ATOM     19  C   UNL     1       3.089   3.289  18.795  0.00  0.00    +0.000 C 
BRANCH  19  20
ATOM     20  C   UNL     1       3.899   3.120  17.509  0.00  0.00    +0.000 C 
BRANCH  20  24
ATOM     21  C   UNL     1       6.901   6.196  17.030  0.00  0.00    +0.000 A 
ATOM     22  C   UNL     1       5.955   5.967  16.031  0.00  0.00    +0.000 A 
ATOM     23  C   UNL     1       4.969   4.989  16.190  0.00  0.00    +0.000 A 
ATOM     24  C   UNL     1       4.927   4.214  17.354  0.00  0.00    +0.000 A 
ATOM     25  C   UNL     1       5.889   4.435  18.349  0.00  0.00    +0.000 A 
ATOM     26  C   UNL     1       6.870   5.420  18.188  0.00  0.00    +0.000 A 
BRANCH  21  28
ATOM     27  C   UNL     1       7.819   8.301  17.603  0.00  0.00    +0.000 C 
ATOM     28  O   UNL     1       7.824   7.164  16.746  0.00  0.00    +0.000 OA
ENDBRANCH  21  28
ENDBRANCH  20  24
ENDBRANCH  19  20
ENDBRANCH   1  19
TORSDOF 6
ENDMDL
MODEL 6
REMARK VINA RESULT:      -7.7      1.201      1.876
REMARK  Name = 
REMARK  8 active torsions:
REMARK  status: ('A' for Active; 'I' for Inactive)
REMARK    1  A    between atoms: C_1  and  O_2
REMARK    2  A    between atoms: O_2  and  C_3
REMARK    3  A    between atoms: C_6  and  C_7
REMARK    4  A    between atoms: C_7  and  C_8
REMARK    5  A    between atoms: C_8  and  N_9
REMARK    6  A    between atoms: C_10  and  C_12
REMARK    7  A    between atoms: C_14  and  C_15
REMARK    8  A    between atoms: C_24  and  C_25
REMARK                            x       y       z     vdW  Elec       q    Type
REMARK                         _______ _______ _______ _____ _____    ______ ____
ROOT
ATOM      1  N   UNL     1       5.538   6.499  16.518  0.00  0.00    +0.000 N 
ATOM      2  C   UNL     1       6.913   6.361  16.525  0.00  0.00    +0.000 C 
ATOM      3  O   UNL     1       7.499   5.572  15.792  0.00  0.00    +0.000 OA
ATOM      4  H   UNL     1       5.112   7.256  17.029  0.00  0.00    +0.000 HD
ENDROOT
BRANCH   2   5
ATOM      5  C   UNL     1       7.619   7.230  17.460  0.00  0.00    +0.000 A 
ATOM      6  C   UNL     1       7.943   8.613  17.352  0.00  0.00    +0.000 A 
ATOM      7  C   UNL     1       8.569   8.989  18.523  0.00  0.00    +0.000 A 
ATOM      8  O   UNL     1       8.679   7.905  19.342  0.00  0.00    +0.000 OA
ATOM      9  C   UNL     1       8.102   6.847  18.704  0.00  0.00    +0.000 A 
ATOM     10  C   UNL     1       8.098   5.568  19.450  0.00  0.00    +0.000 C 
BRANCH   7  11
ATOM     11  C   UNL     1       9.071  10.262  19.032  0.00  0.00    +0.000 A 
ATOM     12  C   UNL     1       9.340  10.462  20.393  0.00  0.00    +0.000 A 
ATOM     13  C   UNL     1       9.785  11.706  20.858  0.00  0.00    +0.000 A 
ATOM     14  C   UNL     1       9.967  12.768  19.970  0.00  0.00    +0.000 A 
ATOM     15 CL   UNL     1      10.497  14.280  20.611  0.00  0.00    +0.000 Cl
ATOM     16  C   UNL     1       9.712  12.579  18.610  0.00  0.00    +0.000 A 
ATOM     17 CL   UNL     1       9.909  13.837  17.441  0.00  0.00    +0.000 Cl
ATOM     18  C   UNL     1       9.271  11.334  18.149  0.00  0.00    +0.000 A 
ENDBRANCH   7  11
ENDBRANCH   2   5
BRANCH   1  19
ATOM     19  C   UNL     1       4.726   5.729  15.595  0.00  0.00    +0.000 C 
BRANCH  19  20
ATOM     20  C   UNL     1       4.527   4.280  16.042  0.00  0.00    +0.000 C 
BRANCH  20  24
ATOM     21  C   UNL     1       2.889   3.976  20.032  0.00  0.00    +0.000 A 
ATOM     22  C   UNL     1       4.244   3.743  19.804  0.00  0.00    +0.000 A 
ATOM     23  C   UNL     1       4.783   3.862  18.520  0.00  0.00    +0.000 A 
ATOM     24  C   UNL     1       3.963   4.204  17.439  0.00  0.00    +0.000 A 
ATOM     25  C   UNL     1       2.597   4.421  17.670  0.00  0.00    +0.000 A 
ATOM     26  C   UNL     1       2.063   4.308  18.959  0.00  0.00    +0.000 A 
BRANCH  21  28
ATOM     27  C   UNL     1       1.542   2.761  21.554  0.00  0.00    +0.000 C 
ATOM     28  O   UNL     1       2.480   3.809  21.327  0.00  0.00    +0.000 OA
ENDBRANCH  21  28
ENDBRANCH  20  24
ENDBRANCH  19  20
ENDBRANCH   1  19
TORSDOF 6
ENDMDL
MODEL 7
REMARK VINA RESULT:      -7.6      5.167      7.638
REMARK  Name = 
REMARK  8 active torsions:
REMARK  status: ('A' for Active; 'I' for Inactive)
REMARK    1  A    between atoms: C_1  and  O_2
REMARK    2  A    between atoms: O_2  and  C_3
REMARK    3  A    between atoms: C_6  and  C_7
REMARK    4  A    between atoms: C_7  and  C_8
REMARK    5  A    between atoms: C_8  and  N_9
REMARK    6  A    between atoms: C_10  and  C_12
REMARK    7  A    between atoms: C_14  and  C_15
REMARK    8  A    between atoms: C_24  and  C_25
REMARK                            x       y       z     vdW  Elec       q    Type
REMARK                         _______ _______ _______ _____ _____    ______ ____
ROOT
ATOM      1  N   UNL     1       2.560   4.657  18.566  0.00  0.00    +0.000 N 
ATOM      2  C   UNL     1       2.438   5.124  19.861  0.00  0.00    +0.000 C 
ATOM      3  O   UNL     1       2.691   4.430  20.838  0.00  0.00    +0.000 OA
ATOM      4  H   UNL     1       2.480   5.303  17.796  0.00  0.00    +0.000 HD
ENDROOT
BRANCH   2   5
ATOM      5  C   UNL     1       1.994   6.509  19.981  0.00  0.00    +0.000 A 
ATOM      6  C   UNL     1       1.183   7.123  20.979  0.00  0.00    +0.000 A 
ATOM      7  C   UNL     1       1.091   8.466  20.676  0.00  0.00    +0.000 A 
ATOM      8  O   UNL     1       1.777   8.715  19.525  0.00  0.00    +0.000 OA
ATOM      9  C   UNL     1       2.326   7.537  19.110  0.00  0.00    +0.000 A 
ATOM     10  C   UNL     1       3.140   7.605  17.875  0.00  0.00    +0.000 C 
BRANCH   7  11
ATOM     11  C   UNL     1       0.465   9.606  21.339  0.00  0.00    +0.000 A 
ATOM     12  C   UNL     1      -0.303   9.457  22.502  0.00  0.00    +0.000 A 
ATOM     13  C   UNL     1      -0.923  10.564  23.095  0.00  0.00    +0.000 A 
ATOM     14  C   UNL     1      -0.785  11.835  22.535  0.00  0.00    +0.000 A 
ATOM     15 CL   UNL     1      -1.592  13.154  23.303  0.00  0.00    +0.000 Cl
ATOM     16  C   UNL     1      -0.014  11.999  21.382  0.00  0.00    +0.000 A 
ATOM     17 CL   UNL     1       0.210  13.535  20.620  0.00  0.00    +0.000 Cl
ATOM     18  C   UNL     1       0.607  10.891  20.794  0.00  0.00    +0.000 A 
ENDBRANCH   7  11
ENDBRANCH   2   5
BRANCH   1  19
ATOM     19  C   UNL     1       3.043   3.313  18.311  0.00  0.00    +0.000 C 
BRANCH  19  20
ATOM     20  C   UNL     1       4.504   3.119  18.717  0.00  0.00    +0.000 C 
BRANCH  20  24
ATOM     21  C   UNL     1       6.964   6.278  17.082  0.00  0.00    +0.000 A 
ATOM     22  C   UNL     1       6.942   6.036  18.455  0.00  0.00    +0.000 A 
ATOM     23  C   UNL     1       6.166   5.002  18.986  0.00  0.00    +0.000 A 
ATOM     24  C   UNL     1       5.387   4.201  18.144  0.00  0.00    +0.000 A 
ATOM     25  C   UNL     1       5.398   4.458  16.766  0.00  0.00    +0.000 A 
ATOM     26  C   UNL     1       6.182   5.490  16.238  0.00  0.00    +0.000 A 
BRANCH  21  28
ATOM     27  C   UNL     1       7.889   8.387  17.633  0.00  0.00    +0.000 C 
ATOM     28  O   UNL     1       7.745   7.330  16.690  0.00  0.00    +0.000 OA
ENDBRANCH  21  28
ENDBRANCH  20  24
ENDBRANCH  19  20
ENDBRANCH   1  19
TORSDOF 6
ENDMDL
MODEL 8
REMARK VINA RESULT:      -7.6      2.265      2.633
REMARK  Name = 
REMARK  8 active torsions:
REMARK  status: ('A' for Active; 'I' for Inactive)
REMARK    1  A    between atoms: C_1  and  O_2
REMARK    2  A    between atoms: O_2  and  C_3
REMARK    3  A    between atoms: C_6  and  C_7
REMARK    4  A    between atoms: C_7  and  C_8
REMARK    5  A    between atoms: C_8  and  N_9
REMARK    6  A    between atoms: C_10  and  C_12
REMARK    7  A    between atoms: C_14  and  C_15
REMARK    8  A    between atoms: C_24  and  C_25
REMARK                            x       y       z     vdW  Elec       q    Type
REMARK                         _______ _______ _______ _____ _____    ______ ____
ROOT
ATOM      1  N   UNL     1       5.497   4.945  17.980  0.00  0.00    +0.000 N 
ATOM      2  C   UNL     1       6.231   5.653  17.047  0.00  0.00    +0.000 C 
ATOM      3  O   UNL     1       6.165   5.422  15.845  0.00  0.00    +0.000 OA
ATOM      4  H   UNL     1       5.473   5.261  18.937  0.00  0.00    +0.000 HD
ENDROOT
BRANCH   2   5
ATOM      5  C   UNL     1       7.083   6.702  17.595  0.00  0.00    +0.000 A 
ATOM      6  C   UNL     1       7.189   8.075  17.228  0.00  0.00    +0.000 A 
ATOM      7  C   UNL     1       8.099   8.666  18.080  0.00  0.00    +0.000 A 
ATOM      8  O   UNL     1       8.588   7.727  18.939  0.00  0.00    +0.000 OA
ATOM      9  C   UNL     1       7.971   6.545  18.650  0.00  0.00    +0.000 A 
ATOM     10  C   UNL     1       8.353   5.395  19.500  0.00  0.00    +0.000 C 
BRANCH   7  11
ATOM     11  C   UNL     1       8.579  10.035  18.247  0.00  0.00    +0.000 A 
ATOM     12  C   UNL     1       8.101  11.089  17.455  0.00  0.00    +0.000 A 
ATOM     13  C   UNL     1       8.606  12.386  17.611  0.00  0.00    +0.000 A 
ATOM     14  C   UNL     1       9.597  12.648  18.560  0.00  0.00    +0.000 A 
ATOM     15 CL   UNL     1      10.192  14.263  18.687  0.00  0.00    +0.000 Cl
ATOM     16  C   UNL     1      10.074  11.609  19.361  0.00  0.00    +0.000 A 
ATOM     17 CL   UNL     1      11.300  11.843  20.558  0.00  0.00    +0.000 Cl
ATOM     18  C   UNL     1       9.565  10.316  19.204  0.00  0.00    +0.000 A 
ENDBRANCH   7  11
ENDBRANCH   2   5
BRANCH   1  19
ATOM     19  C   UNL     1       4.571   3.910  17.558  0.00  0.00    +0.000 C 
BRANCH  19  20
ATOM     20  C   UNL     1       3.168   4.447  17.272  0.00  0.00    +0.000 C 
BRANCH  20  24
ATOM     21  C   UNL     1       1.822   7.270  20.258  0.00  0.00    +0.000 A 
ATOM     22  C   UNL     1       1.848   5.904  20.536  0.00  0.00    +0.000 A 
ATOM     23  C   UNL     1       2.303   4.989  19.582  0.00  0.00    +0.000 A 
ATOM     24  C   UNL     1       2.728   5.434  18.325  0.00  0.00    +0.000 A 
ATOM     25  C   UNL     1       2.685   6.806  18.043  0.00  0.00    +0.000 A 
ATOM     26  C   UNL     1       2.235   7.719  19.005  0.00  0.00    +0.000 A 
BRANCH  21  28
ATOM     27  C   UNL     1       0.704   9.268  20.860  0.00  0.00    +0.000 C 
ATOM     28  O   UNL     1       1.338   8.059  21.265  0.00  0.00    +0.000 OA
ENDBRANCH  21  28
ENDBRANCH  20  24
ENDBRANCH  19  20
ENDBRANCH   1  19
TORSDOF 6
ENDMDL
MODEL 9
REMARK VINA RESULT:      -7.4      2.232      2.535
REMARK  Name = 
REMARK  8 active torsions:
REMARK  status: ('A' for Active; 'I' for Inactive)
REMARK    1  A    between atoms: C_1  and  O_2
REMARK    2  A    between atoms: O_2  and  C_3
REMARK    3  A    between atoms: C_6  and  C_7
REMARK    4  A    between atoms: C_7  and  C_8
REMARK    5  A    between atoms: C_8  and  N_9
REMARK    6  A    between atoms: C_10  and  C_12
REMARK    7  A    between atoms: C_14  and  C_15
REMARK    8  A    between atoms: C_24  and  C_25
REMARK                            x       y       z     vdW  Elec       q    Type
REMARK                         _______ _______ _______ _____ _____    ______ ____
ROOT
ATOM      1  N   UNL     1       5.399   5.269  17.407  0.00  0.00    +0.000 N 
ATOM      2  C   UNL     1       6.558   5.664  16.766  0.00  0.00    +0.000 C 
ATOM      3  O   UNL     1       6.932   5.161  15.713  0.00  0.00    +0.000 OA
ATOM      4  H   UNL     1       5.057   5.806  18.190  0.00  0.00    +0.000 HD
ENDROOT
BRANCH   2   5
ATOM      5  C   UNL     1       7.300   6.731  17.429  0.00  0.00    +0.000 A 
ATOM      6  C   UNL     1       7.477   8.092  17.046  0.00  0.00    +0.000 A 
ATOM      7  C   UNL     1       8.219   8.711  18.032  0.00  0.00    +0.000 A 
ATOM      8  O   UNL     1       8.539   7.800  18.993  0.00  0.00    +0.000 OA
ATOM      9  C   UNL     1       7.980   6.608  18.633  0.00  0.00    +0.000 A 
ATOM     10  C   UNL     1       8.196   5.485  19.573  0.00  0.00    +0.000 C 
BRANCH   7  11
ATOM     11  C   UNL     1       8.665  10.085  18.241  0.00  0.00    +0.000 A 
ATOM     12  C   UNL     1       8.127  11.158  17.517  0.00  0.00    +0.000 A 
ATOM     13  C   UNL     1       8.601  12.461  17.712  0.00  0.00    +0.000 A 
ATOM     14  C   UNL     1       9.620  12.712  18.633  0.00  0.00    +0.000 A 
ATOM     15 CL   UNL     1      10.174  14.337  18.810  0.00  0.00    +0.000 Cl
ATOM     16  C   UNL     1      10.158  11.653  19.368  0.00  0.00    +0.000 A 
ATOM     17 CL   UNL     1      11.422  11.871  20.527  0.00  0.00    +0.000 Cl
ATOM     18  C   UNL     1       9.680  10.353  19.173  0.00  0.00    +0.000 A 
ENDBRANCH   7  11
ENDBRANCH   2   5
BRANCH   1  19
ATOM     19  C   UNL     1       4.544   4.254  16.823  0.00  0.00    +0.000 C 
BRANCH  19  20
ATOM     20  C   UNL     1       3.383   3.856  17.735  0.00  0.00    +0.000 C 
BRANCH  20  24
ATOM     21  C   UNL     1       1.951   7.263  19.981  0.00  0.00    +0.000 A 
ATOM     22  C   UNL     1       2.418   7.420  18.677  0.00  0.00    +0.000 A 
ATOM     23  C   UNL     1       2.861   6.319  17.939  0.00  0.00    +0.000 A 
ATOM     24  C   UNL     1       2.854   5.040  18.507  0.00  0.00    +0.000 A 
ATOM     25  C   UNL     1       2.399   4.888  19.824  0.00  0.00    +0.000 A 
ATOM     26  C   UNL     1       1.950   5.993  20.557  0.00  0.00    +0.000 A 
BRANCH  21  28
ATOM     27  C   UNL     1       0.889   9.369  19.789  0.00  0.00    +0.000 C 
ATOM     28  O   UNL     1       1.565   8.418  20.604  0.00  0.00    +0.000 OA
ENDBRANCH  21  28
ENDBRANCH  20  24
ENDBRANCH  19  20
ENDBRANCH   1  19
TORSDOF 6
ENDMDL
