MODEL 1
REMARK VINA RESULT:      -8.9      0.000      0.000
REMARK  Name = 
REMARK  9 active torsions:
REMARK  status: ('A' for Active; 'I' for Inactive)
REMARK    1  A    between atoms: C_1  and  C_2
REMARK    2  A    between atoms: C_2  and  O_3
REMARK    3  A    between atoms: C_2  and  C_31
REMARK    4  A    between atoms: O_3  and  C_4
REMARK    5  A    between atoms: N_13  and  C_14
REMARK    6  A    between atoms: N_21  and  C_22
REMARK    7  A    between atoms: C_22  and  C_23
REMARK    8  A    between atoms: N_33  and  C_34
REMARK    9  A    between atoms: N_33  and  C_35
REMARK                            x       y       z     vdW  Elec       q    Type
REMARK                         _______ _______ _______ _____ _____    ______ ____
ROOT
ATOM      1  C   UNL     1       3.797   4.679  17.702  0.00  0.00    +0.000 A 
ATOM      2  C   UNL     1       4.233   3.531  17.018  0.00  0.00    +0.000 A 
ATOM      3  C   UNL     1       4.065   2.279  17.589  0.00  0.00    +0.000 A 
ATOM      4  C   UNL     1       3.416   2.176  18.809  0.00  0.00    +0.000 A 
ATOM      5  C   UNL     1       2.888   3.282  19.460  0.00  0.00    +0.000 A 
ATOM      6  N   UNL     1       2.253   3.009  20.596  0.00  0.00    +0.000 NA
ATOM      7  C   UNL     1       1.709   4.039  21.239  0.00  0.00    +0.000 A 
ATOM      8  N   UNL     1       1.738   5.306  20.844  0.00  0.00    +0.000 NA
ATOM      9  C   UNL     1       2.385   5.595  19.695  0.00  0.00    +0.000 A 
ATOM     10  N   UNL     1       2.328   6.940  19.249  0.00  0.00    +0.000 N 
ATOM     11  C   UNL     1       3.031   4.577  18.919  0.00  0.00    +0.000 A 
ATOM     12  H   UNL     1       3.194   7.211  18.786  0.00  0.00    +0.000 HD
ENDROOT
BRANCH  10  13
ATOM     13  C   UNL     1       1.597   8.044  19.776  0.00  0.00    +0.000 A 
ATOM     14  C   UNL     1       1.280   9.200  19.038  0.00  0.00    +0.000 A 
ATOM     15  C   UNL     1       0.672  10.340  19.613  0.00  0.00    +0.000 A 
ATOM     16  C   UNL     1       0.391  10.300  20.984  0.00  0.00    +0.000 A 
ATOM     17  C   UNL     1       0.615   9.148  21.733  0.00  0.00    +0.000 A 
ATOM     18  C   UNL     1       0.131   9.462  23.019  0.00  0.00    +0.000 A 
ATOM     19  N   UNL     1      -0.285  10.726  23.127  0.00  0.00    +0.000 NA
ATOM     20  N   UNL     1      -0.046  11.247  21.894  0.00  0.00    +0.000 N 
ATOM     21  C   UNL     1       1.229   8.025  21.133  0.00  0.00    +0.000 A 
BRANCH  20  22
ATOM     22  C   UNL     1       0.045  12.700  21.769  0.00  0.00    +0.000 C 
BRANCH  22  23
ATOM     23  C   UNL     1      -1.065  13.441  22.466  0.00  0.00    +0.000 A 
ATOM     24  C   UNL     1      -2.392  13.328  22.051  0.00  0.00    +0.000 A 
ATOM     25  C   UNL     1      -3.375  14.059  22.714  0.00  0.00    +0.000 A 
ATOM     26  C   UNL     1      -3.021  14.851  23.798  0.00  0.00    +0.000 A 
ATOM     27  C   UNL     1      -1.695  14.858  24.192  0.00  0.00    +0.000 A 
ATOM     28  N   UNL     1      -0.716  14.178  23.555  0.00  0.00    +0.000 NA
ENDBRANCH  22  23
ENDBRANCH  20  22
ENDBRANCH  10  13
BRANCH   1  29
ATOM     29  O   UNL     1       4.099   5.930  17.207  0.00  0.00    +0.000 OA
BRANCH  29  31
ATOM     30  C   UNL     1       5.006   6.799  15.152  0.00  0.00    +0.000 C 
ATOM     31  C   UNL     1       5.318   6.005  16.418  0.00  0.00    +0.000 C 
BRANCH  31  32
ATOM     32  C   UNL     1       6.380   6.701  17.292  0.00  0.00    +0.000 C 
ATOM     33  O   UNL     1       6.292   7.912  17.521  0.00  0.00    +0.000 OA
ATOM     34  N   UNL     1       7.387   5.925  17.867  0.00  0.00    +0.000 N 
ATOM     35  C   UNL     1       7.620   4.507  17.627  0.00  0.00    +0.000 C 
ATOM     36  C   UNL     1       8.174   6.511  18.944  0.00  0.00    +0.000 C 
ENDBRANCH  31  32
ENDBRANCH  29  31
ENDBRANCH   1  29
TORSDOF 6
ENDMDL
MODEL 2
REMARK VINA RESULT:      -8.9      2.144      3.029
REMARK  Name = 
REMARK  9 active torsions:
REMARK  status: ('A' for Active; 'I' for Inactive)
REMARK    1  A    between atoms: C_1  and  C_2
REMARK    2  A    between atoms: C_2  and  O_3
REMARK    3  A    between atoms: C_2  and  C_31
REMARK    4  A    between atoms: O_3  and  C_4
REMARK    5  A    between atoms: N_13  and  C_14
REMARK    6  A    between atoms: N_21  and  C_22
REMARK    7  A    between atoms: C_22  and  C_23
REMARK    8  A    between atoms: N_33  and  C_34
REMARK    9  A    between atoms: N_33  and  C_35
REMARK                            x       y       z     vdW  Elec       q    Type
REMARK                         _______ _______ _______ _____ _____    ______ ____
ROOT
ATOM      1  C   UNL     1       3.733   3.886  17.642  0.00  0.00    +0.000 A 
ATOM      2  C   UNL     1       3.961   2.582  17.166  0.00  0.00    +0.000 A 
ATOM      3  C   UNL     1       3.701   1.492  17.981  0.00  0.00    +0.000 A 
ATOM      4  C   UNL     1       3.167   1.705  19.241  0.00  0.00    +0.000 A 
ATOM      5  C   UNL     1       2.839   2.973  19.700  0.00  0.00    +0.000 A 
ATOM      6  N   UNL     1       2.291   3.004  20.911  0.00  0.00    +0.000 NA
ATOM      7  C   UNL     1       1.938   4.198  21.378  0.00  0.00    +0.000 A 
ATOM      8  N   UNL     1       2.080   5.355  20.742  0.00  0.00    +0.000 NA
ATOM      9  C   UNL     1       2.642   5.336  19.515  0.00  0.00    +0.000 A 
ATOM     10  N   UNL     1       2.702   6.572  18.819  0.00  0.00    +0.000 N 
ATOM     11  C   UNL     1       3.083   4.115  18.907  0.00  0.00    +0.000 A 
ATOM     12  H   UNL     1       3.546   6.632  18.250  0.00  0.00    +0.000 HD
ENDROOT
BRANCH  10  13
ATOM     13  C   UNL     1       2.163   7.842  19.172  0.00  0.00    +0.000 A 
ATOM     14  C   UNL     1       1.333   8.061  20.287  0.00  0.00    +0.000 A 
ATOM     15  C   UNL     1       0.700   9.299  20.546  0.00  0.00    +0.000 A 
ATOM     16  C   UNL     1       0.913  10.338  19.633  0.00  0.00    +0.000 A 
ATOM     17  C   UNL     1       1.790  10.188  18.562  0.00  0.00    +0.000 A 
ATOM     18  C   UNL     1       1.808  11.453  17.940  0.00  0.00    +0.000 A 
ATOM     19  N   UNL     1       0.957  12.320  18.494  0.00  0.00    +0.000 NA
ATOM     20  N   UNL     1       0.361  11.598  19.478  0.00  0.00    +0.000 N 
ATOM     21  C   UNL     1       2.405   8.938  18.324  0.00  0.00    +0.000 A 
BRANCH  20  22
ATOM     22  C   UNL     1      -0.924  12.069  19.993  0.00  0.00    +0.000 C 
BRANCH  22  23
ATOM     23  C   UNL     1      -2.108  11.603  19.189  0.00  0.00    +0.000 A 
ATOM     24  C   UNL     1      -2.010  10.536  18.296  0.00  0.00    +0.000 A 
ATOM     25  C   UNL     1      -3.132  10.166  17.556  0.00  0.00    +0.000 A 
ATOM     26  C   UNL     1      -4.331  10.837  17.753  0.00  0.00    +0.000 A 
ATOM     27  C   UNL     1      -4.365  11.840  18.705  0.00  0.00    +0.000 A 
ATOM     28  N   UNL     1      -3.289  12.236  19.421  0.00  0.00    +0.000 NA
ENDBRANCH  22  23
ENDBRANCH  20  22
ENDBRANCH  10  13
BRANCH   1  29
ATOM     29  O   UNL     1       4.133   4.971  16.891  0.00  0.00    +0.000 OA
BRANCH  29  31
ATOM     30  C   UNL     1       5.252   4.803  14.766  0.00  0.00    +0.000 C 
ATOM     31  C   UNL     1       5.446   4.850  16.279  0.00  0.00    +0.000 C 
BRANCH  31  32
ATOM     32  C   UNL     1       6.266   6.077  16.721  0.00  0.00    +0.000 C 
ATOM     33  O   UNL     1       5.936   7.207  16.344  0.00  0.00    +0.000 OA
ATOM     34  N   UNL     1       7.332   5.889  17.602  0.00  0.00    +0.000 N 
ATOM     35  C   UNL     1       7.842   4.607  18.069  0.00  0.00    +0.000 C 
ATOM     36  C   UNL     1       7.882   7.059  18.273  0.00  0.00    +0.000 C 
ENDBRANCH  31  32
ENDBRANCH  29  31
ENDBRANCH   1  29
TORSDOF 6
ENDMDL
MODEL 3
REMARK VINA RESULT:      -8.7      3.125      9.781
REMARK  Name = 
REMARK  9 active torsions:
REMARK  status: ('A' for Active; 'I' for Inactive)
REMARK    1  A    between atoms: C_1  and  C_2
REMARK    2  A    between atoms: C_2  and  O_3
REMARK    3  A    between atoms: C_2  and  C_31
REMARK    4  A    between atoms: O_3  and  C_4
REMARK    5  A    between atoms: N_13  and  C_14
REMARK    6  A    between atoms: N_21  and  C_22
REMARK    7  A    between atoms: C_22  and  C_23
REMARK    8  A    between atoms: N_33  and  C_34
REMARK    9  A    between atoms: N_33  and  C_35
REMARK                            x       y       z     vdW  Elec       q    Type
REMARK                         _______ _______ _______ _____ _____    ______ ____
ROOT
ATOM      1  C   UNL     1      -1.785  12.800  20.817  0.00  0.00    +0.000 A 
ATOM      2  C   UNL     1      -2.806  13.629  21.315  0.00  0.00    +0.000 A 
ATOM      3  C   UNL     1      -4.044  13.654  20.692  0.00  0.00    +0.000 A 
ATOM      4  C   UNL     1      -4.272  12.814  19.613  0.00  0.00    +0.000 A 
ATOM      5  C   UNL     1      -3.317  11.914  19.163  0.00  0.00    +0.000 A 
ATOM      6  N   UNL     1      -3.709  11.146  18.151  0.00  0.00    +0.000 NA
ATOM      7  C   UNL     1      -2.832  10.251  17.704  0.00  0.00    +0.000 A 
ATOM      8  N   UNL     1      -1.609  10.054  18.183  0.00  0.00    +0.000 NA
ATOM      9  C   UNL     1      -1.199  10.833  19.206  0.00  0.00    +0.000 A 
ATOM     10  N   UNL     1       0.077  10.547  19.758  0.00  0.00    +0.000 N 
ATOM     11  C   UNL     1      -2.042  11.850  19.765  0.00  0.00    +0.000 A 
ATOM     12  H   UNL     1       0.543  11.399  20.067  0.00  0.00    +0.000 HD
ENDROOT
BRANCH  10  13
ATOM     13  C   UNL     1       0.976   9.481  19.466  0.00  0.00    +0.000 A 
ATOM     14  C   UNL     1       1.719   9.384  18.275  0.00  0.00    +0.000 A 
ATOM     15  C   UNL     1       2.503   8.254  17.945  0.00  0.00    +0.000 A 
ATOM     16  C   UNL     1       2.519   7.190  18.854  0.00  0.00    +0.000 A 
ATOM     17  C   UNL     1       1.863   7.279  20.079  0.00  0.00    +0.000 A 
ATOM     18  C   UNL     1       2.182   6.074  20.738  0.00  0.00    +0.000 A 
ATOM     19  N   UNL     1       2.900   5.239  19.984  0.00  0.00    +0.000 NA
ATOM     20  N   UNL     1       3.030   5.905  18.807  0.00  0.00    +0.000 N 
ATOM     21  C   UNL     1       1.082   8.417  20.380  0.00  0.00    +0.000 A 
BRANCH  20  22
ATOM     22  C   UNL     1       3.361   5.129  17.612  0.00  0.00    +0.000 C 
BRANCH  22  23
ATOM     23  C   UNL     1       4.840   4.944  17.397  0.00  0.00    +0.000 A 
ATOM     24  C   UNL     1       5.352   4.517  16.172  0.00  0.00    +0.000 A 
ATOM     25  C   UNL     1       6.727   4.334  16.038  0.00  0.00    +0.000 A 
ATOM     26  C   UNL     1       7.560   4.622  17.110  0.00  0.00    +0.000 A 
ATOM     27  C   UNL     1       6.983   5.107  18.270  0.00  0.00    +0.000 A 
ATOM     28  N   UNL     1       5.652   5.272  18.438  0.00  0.00    +0.000 NA
ENDBRANCH  22  23
ENDBRANCH  20  22
ENDBRANCH  10  13
BRANCH   1  29
ATOM     29  O   UNL     1      -0.512  12.887  21.340  0.00  0.00    +0.000 OA
BRANCH  29  31
ATOM     30  C   UNL     1       0.379  14.895  22.325  0.00  0.00    +0.000 C 
ATOM     31  C   UNL     1       0.202  14.113  21.026  0.00  0.00    +0.000 C 
BRANCH  31  32
ATOM     32  C   UNL     1       1.554  13.703  20.408  0.00  0.00    +0.000 C 
ATOM     33  O   UNL     1       2.135  12.691  20.814  0.00  0.00    +0.000 OA
ATOM     34  N   UNL     1       2.058  14.454  19.345  0.00  0.00    +0.000 N 
ATOM     35  C   UNL     1       1.490  15.689  18.821  0.00  0.00    +0.000 C 
ATOM     36  C   UNL     1       3.140  13.881  18.554  0.00  0.00    +0.000 C 
ENDBRANCH  31  32
ENDBRANCH  29  31
ENDBRANCH   1  29
TORSDOF 6
ENDMDL
MODEL 4
REMARK VINA RESULT:      -8.7      1.479      2.354
REMARK  Name = 
REMARK  9 active torsions:
REMARK  status: ('A' for Active; 'I' for Inactive)
REMARK    1  A    between atoms: C_1  and  C_2
REMARK    2  A    between atoms: C_2  and  O_3
REMARK    3  A    between atoms: C_2  and  C_31
REMARK    4  A    between atoms: O_3  and  C_4
REMARK    5  A    between atoms: N_13  and  C_14
REMARK    6  A    between atoms: N_21  and  C_22
REMARK    7  A    between atoms: C_22  and  C_23
REMARK    8  A    between atoms: N_33  and  C_34
REMARK    9  A    between atoms: N_33  and  C_35
REMARK                            x       y       z     vdW  Elec       q    Type
REMARK                         _______ _______ _______ _____ _____    ______ ____
ROOT
ATOM      1  C   UNL     1       4.112   4.737  17.995  0.00  0.00    +0.000 A 
ATOM      2  C   UNL     1       4.659   3.638  17.310  0.00  0.00    +0.000 A 
ATOM      3  C   UNL     1       4.237   2.352  17.613  0.00  0.00    +0.000 A 
ATOM      4  C   UNL     1       3.237   2.177  18.556  0.00  0.00    +0.000 A 
ATOM      5  C   UNL     1       2.609   3.248  19.176  0.00  0.00    +0.000 A 
ATOM      6  N   UNL     1       1.638   2.913  20.019  0.00  0.00    +0.000 NA
ATOM      7  C   UNL     1       0.993   3.912  20.616  0.00  0.00    +0.000 A 
ATOM      8  N   UNL     1       1.229   5.206  20.440  0.00  0.00    +0.000 NA
ATOM      9  C   UNL     1       2.219   5.557  19.591  0.00  0.00    +0.000 A 
ATOM     10  N   UNL     1       2.395   6.945  19.351  0.00  0.00    +0.000 N 
ATOM     11  C   UNL     1       3.002   4.575  18.900  0.00  0.00    +0.000 A 
ATOM     12  H   UNL     1       3.379   7.171  19.212  0.00  0.00    +0.000 HD
ENDROOT
BRANCH  10  13
ATOM     13  C   UNL     1       1.615   8.052  19.794  0.00  0.00    +0.000 A 
ATOM     14  C   UNL     1       1.177   9.091  18.953  0.00  0.00    +0.000 A 
ATOM     15  C   UNL     1       0.519  10.247  19.432  0.00  0.00    +0.000 A 
ATOM     16  C   UNL     1       0.313  10.347  20.813  0.00  0.00    +0.000 A 
ATOM     17  C   UNL     1       0.657   9.306  21.671  0.00  0.00    +0.000 A 
ATOM     18  C   UNL     1       0.219   9.735  22.941  0.00  0.00    +0.000 A 
ATOM     19  N   UNL     1      -0.281  10.972  22.932  0.00  0.00    +0.000 NA
ATOM     20  N   UNL     1      -0.144  11.362  21.637  0.00  0.00    +0.000 N 
ATOM     21  C   UNL     1       1.319   8.165  21.165  0.00  0.00    +0.000 A 
BRANCH  20  22
ATOM     22  C   UNL     1      -0.165  12.794  21.345  0.00  0.00    +0.000 C 
BRANCH  22  23
ATOM     23  C   UNL     1       1.095  13.301  20.694  0.00  0.00    +0.000 A 
ATOM     24  C   UNL     1       1.128  13.656  19.346  0.00  0.00    +0.000 A 
ATOM     25  C   UNL     1       2.329  14.091  18.788  0.00  0.00    +0.000 A 
ATOM     26  C   UNL     1       3.454  14.201  19.594  0.00  0.00    +0.000 A 
ATOM     27  C   UNL     1       3.325  13.895  20.936  0.00  0.00    +0.000 A 
ATOM     28  N   UNL     1       2.180  13.449  21.501  0.00  0.00    +0.000 NA
ENDBRANCH  22  23
ENDBRANCH  20  22
ENDBRANCH  10  13
BRANCH   1  29
ATOM     29  O   UNL     1       4.637   5.997  17.803  0.00  0.00    +0.000 OA
BRANCH  29  31
ATOM     30  C   UNL     1       4.952   6.664  15.511  0.00  0.00    +0.000 C 
ATOM     31  C   UNL     1       5.636   6.097  16.751  0.00  0.00    +0.000 C 
BRANCH  31  32
ATOM     32  C   UNL     1       6.752   7.023  17.273  0.00  0.00    +0.000 C 
ATOM     33  O   UNL     1       6.787   8.206  16.918  0.00  0.00    +0.000 OA
ATOM     34  N   UNL     1       7.664   6.516  18.200  0.00  0.00    +0.000 N 
ATOM     35  C   UNL     1       7.752   5.133  18.648  0.00  0.00    +0.000 C 
ATOM     36  C   UNL     1       8.493   7.462  18.935  0.00  0.00    +0.000 C 
ENDBRANCH  31  32
ENDBRANCH  29  31
ENDBRANCH   1  29
TORSDOF 6
ENDMDL
MODEL 5
REMARK VINA RESULT:      -8.6      0.706      1.311
REMARK  Name = 
REMARK  9 active torsions:
REMARK  status: ('A' for Active; 'I' for Inactive)
REMARK    1  A    between atoms: C_1  and  C_2
REMARK    2  A    between atoms: C_2  and  O_3
REMARK    3  A    between atoms: C_2  and  C_31
REMARK    4  A    between atoms: O_3  and  C_4
REMARK    5  A    between atoms: N_13  and  C_14
REMARK    6  A    between atoms: N_21  and  C_22
REMARK    7  A    between atoms: C_22  and  C_23
REMARK    8  A    between atoms: N_33  and  C_34
REMARK    9  A    between atoms: N_33  and  C_35
REMARK                            x       y       z     vdW  Elec       q    Type
REMARK                         _______ _______ _______ _____ _____    ______ ____
ROOT
ATOM      1  C   UNL     1       3.688   4.723  17.630  0.00  0.00    +0.000 A 
ATOM      2  C   UNL     1       4.020   3.616  16.829  0.00  0.00    +0.000 A 
ATOM      3  C   UNL     1       3.733   2.333  17.268  0.00  0.00    +0.000 A 
ATOM      4  C   UNL     1       3.070   2.166  18.473  0.00  0.00    +0.000 A 
ATOM      5  C   UNL     1       2.642   3.243  19.237  0.00  0.00    +0.000 A 
ATOM      6  N   UNL     1       1.978   2.914  20.341  0.00  0.00    +0.000 NA
ATOM      7  C   UNL     1       1.528   3.918  21.089  0.00  0.00    +0.000 A 
ATOM      8  N   UNL     1       1.676   5.211  20.827  0.00  0.00    +0.000 NA
ATOM      9  C   UNL     1       2.354   5.555  19.712  0.00  0.00    +0.000 A 
ATOM     10  N   UNL     1       2.425   6.939  19.407  0.00  0.00    +0.000 N 
ATOM     11  C   UNL     1       2.909   4.568  18.832  0.00  0.00    +0.000 A 
ATOM     12  H   UNL     1       3.316   7.174  18.972  0.00  0.00    +0.000 HD
ENDROOT
BRANCH  10  13
ATOM     13  C   UNL     1       1.797   8.046  20.048  0.00  0.00    +0.000 A 
ATOM     14  C   UNL     1       1.753   8.223  21.443  0.00  0.00    +0.000 A 
ATOM     15  C   UNL     1       1.012   9.254  22.067  0.00  0.00    +0.000 A 
ATOM     16  C   UNL     1       0.287  10.121  21.240  0.00  0.00    +0.000 A 
ATOM     17  C   UNL     1       0.369  10.029  19.853  0.00  0.00    +0.000 A 
ATOM     18  C   UNL     1      -0.410  11.106  19.382  0.00  0.00    +0.000 A 
ATOM     19  N   UNL     1      -1.015  11.782  20.361  0.00  0.00    +0.000 NA
ATOM     20  N   UNL     1      -0.640  11.118  21.485  0.00  0.00    +0.000 N 
ATOM     21  C   UNL     1       1.112   8.985  19.257  0.00  0.00    +0.000 A 
BRANCH  20  22
ATOM     22  C   UNL     1      -1.455  11.290  22.687  0.00  0.00    +0.000 C 
BRANCH  22  23
ATOM     23  C   UNL     1      -1.808  12.723  22.983  0.00  0.00    +0.000 A 
ATOM     24  C   UNL     1      -3.102  13.210  22.796  0.00  0.00    +0.000 A 
ATOM     25  C   UNL     1      -3.366  14.553  23.058  0.00  0.00    +0.000 A 
ATOM     26  C   UNL     1      -2.348  15.366  23.538  0.00  0.00    +0.000 A 
ATOM     27  C   UNL     1      -1.109  14.794  23.761  0.00  0.00    +0.000 A 
ATOM     28  N   UNL     1      -0.817  13.501  23.495  0.00  0.00    +0.000 NA
ENDBRANCH  22  23
ENDBRANCH  20  22
ENDBRANCH  10  13
BRANCH   1  29
ATOM     29  O   UNL     1       4.108   5.985  17.266  0.00  0.00    +0.000 OA
BRANCH  29  31
ATOM     30  C   UNL     1       4.908   6.772  15.136  0.00  0.00    +0.000 C 
ATOM     31  C   UNL     1       5.283   6.023  16.412  0.00  0.00    +0.000 C 
BRANCH  31  32
ATOM     32  C   UNL     1       6.394   6.743  17.202  0.00  0.00    +0.000 C 
ATOM     33  O   UNL     1       6.389   7.976  17.288  0.00  0.00    +0.000 OA
ATOM     34  N   UNL     1       7.349   5.973  17.867  0.00  0.00    +0.000 N 
ATOM     35  C   UNL     1       7.485   4.524  17.794  0.00  0.00    +0.000 C 
ATOM     36  C   UNL     1       8.179   6.627  18.870  0.00  0.00    +0.000 C 
ENDBRANCH  31  32
ENDBRANCH  29  31
ENDBRANCH   1  29
TORSDOF 6
ENDMDL
MODEL 6
REMARK VINA RESULT:      -8.6      3.438     10.373
REMARK  Name = 
REMARK  9 active torsions:
REMARK  status: ('A' for Active; 'I' for Inactive)
REMARK    1  A    between atoms: C_1  and  C_2
REMARK    2  A    between atoms: C_2  and  O_3
REMARK    3  A    between atoms: C_2  and  C_31
REMARK    4  A    between atoms: O_3  and  C_4
REMARK    5  A    between atoms: N_13  and  C_14
REMARK    6  A    between atoms: N_21  and  C_22
REMARK    7  A    between atoms: C_22  and  C_23
REMARK    8  A    between atoms: N_33  and  C_34
REMARK    9  A    between atoms: N_33  and  C_35
REMARK                            x       y       z     vdW  Elec       q    Type
REMARK                         _______ _______ _______ _____ _____    ______ ____
ROOT
ATOM      1  C   UNL     1      -3.038  12.800  20.410  0.00  0.00    +0.000 A 
ATOM      2  C   UNL     1      -4.216  13.454  20.811  0.00  0.00    +0.000 A 
ATOM      3  C   UNL     1      -5.368  13.336  20.050  0.00  0.00    +0.000 A 
ATOM      4  C   UNL     1      -5.353  12.524  18.927  0.00  0.00    +0.000 A 
ATOM      5  C   UNL     1      -4.234  11.788  18.563  0.00  0.00    +0.000 A 
ATOM      6  N   UNL     1      -4.397  11.021  17.489  0.00  0.00    +0.000 NA
ATOM      7  C   UNL     1      -3.356  10.279  17.120  0.00  0.00    +0.000 A 
ATOM      8  N   UNL     1      -2.178  10.232  17.731  0.00  0.00    +0.000 NA
ATOM      9  C   UNL     1      -2.001  11.012  18.819  0.00  0.00    +0.000 A 
ATOM     10  N   UNL     1      -0.766  10.881  19.506  0.00  0.00    +0.000 N 
ATOM     11  C   UNL     1      -3.038  11.874  19.306  0.00  0.00    +0.000 A 
ATOM     12  H   UNL     1      -0.464  11.774  19.893  0.00  0.00    +0.000 HD
ENDROOT
BRANCH  10  13
ATOM     13  C   UNL     1       0.304   9.965  19.289  0.00  0.00    +0.000 A 
ATOM     14  C   UNL     1       1.054   9.903  18.100  0.00  0.00    +0.000 A 
ATOM     15  C   UNL     1       2.022   8.902  17.850  0.00  0.00    +0.000 A 
ATOM     16  C   UNL     1       2.220   7.932  18.840  0.00  0.00    +0.000 A 
ATOM     17  C   UNL     1       1.557   8.005  20.062  0.00  0.00    +0.000 A 
ATOM     18  C   UNL     1       2.078   6.929  20.810  0.00  0.00    +0.000 A 
ATOM     19  N   UNL     1       2.930   6.173  20.116  0.00  0.00    +0.000 NA
ATOM     20  N   UNL     1       2.945   6.755  18.888  0.00  0.00    +0.000 N 
ATOM     21  C   UNL     1       0.591   9.012  20.282  0.00  0.00    +0.000 A 
BRANCH  20  22
ATOM     22  C   UNL     1       3.406   5.955  17.754  0.00  0.00    +0.000 C 
BRANCH  22  23
ATOM     23  C   UNL     1       3.178   4.476  17.922  0.00  0.00    +0.000 A 
ATOM     24  C   UNL     1       1.903   3.919  17.831  0.00  0.00    +0.000 A 
ATOM     25  C   UNL     1       1.746   2.548  18.023  0.00  0.00    +0.000 A 
ATOM     26  C   UNL     1       2.864   1.760  18.258  0.00  0.00    +0.000 A 
ATOM     27  C   UNL     1       4.103   2.376  18.266  0.00  0.00    +0.000 A 
ATOM     28  N   UNL     1       4.284   3.706  18.106  0.00  0.00    +0.000 NA
ENDBRANCH  22  23
ENDBRANCH  20  22
ENDBRANCH  10  13
BRANCH   1  29
ATOM     29  O   UNL     1      -1.857  13.039  21.080  0.00  0.00    +0.000 OA
BRANCH  29  31
ATOM     30  C   UNL     1      -1.381  11.466  22.841  0.00  0.00    +0.000 C 
ATOM     31  C   UNL     1      -1.917  12.859  22.522  0.00  0.00    +0.000 C 
BRANCH  31  32
ATOM     32  C   UNL     1      -1.054  13.970  23.152  0.00  0.00    +0.000 C 
ATOM     33  O   UNL     1       0.078  14.197  22.709  0.00  0.00    +0.000 OA
ATOM     34  N   UNL     1      -1.604  14.748  24.172  0.00  0.00    +0.000 N 
ATOM     35  C   UNL     1      -2.898  14.539  24.806  0.00  0.00    +0.000 C 
ATOM     36  C   UNL     1      -0.930  15.990  24.526  0.00  0.00    +0.000 C 
ENDBRANCH  31  32
ENDBRANCH  29  31
ENDBRANCH   1  29
TORSDOF 6
ENDMDL
MODEL 7
REMARK VINA RESULT:      -8.5      1.860      2.815
REMARK  Name = 
REMARK  9 active torsions:
REMARK  status: ('A' for Active; 'I' for Inactive)
REMARK    1  A    between atoms: C_1  and  C_2
REMARK    2  A    between atoms: C_2  and  O_3
REMARK    3  A    between atoms: C_2  and  C_31
REMARK    4  A    between atoms: O_3  and  C_4
REMARK    5  A    between atoms: N_13  and  C_14
REMARK    6  A    between atoms: N_21  and  C_22
REMARK    7  A    between atoms: C_22  and  C_23
REMARK    8  A    between atoms: N_33  and  C_34
REMARK    9  A    between atoms: N_33  and  C_35
REMARK                            x       y       z     vdW  Elec       q    Type
REMARK                         _______ _______ _______ _____ _____    ______ ____
ROOT
ATOM      1  C   UNL     1       3.925   4.411  17.694  0.00  0.00    +0.000 A 
ATOM      2  C   UNL     1       4.355   3.181  17.167  0.00  0.00    +0.000 A 
ATOM      3  C   UNL     1       3.966   1.995  17.770  0.00  0.00    +0.000 A 
ATOM      4  C   UNL     1       3.110   2.042  18.858  0.00  0.00    +0.000 A 
ATOM      5  C   UNL     1       2.591   3.236  19.339  0.00  0.00    +0.000 A 
ATOM      6  N   UNL     1       1.746   3.106  20.357  0.00  0.00    +0.000 NA
ATOM      7  C   UNL     1       1.205   4.225  20.832  0.00  0.00    +0.000 A 
ATOM      8  N   UNL     1       1.428   5.451  20.376  0.00  0.00    +0.000 NA
ATOM      9  C   UNL     1       2.289   5.595  19.346  0.00  0.00    +0.000 A 
ATOM     10  N   UNL     1       2.445   6.903  18.819  0.00  0.00    +0.000 N 
ATOM     11  C   UNL     1       2.955   4.469  18.758  0.00  0.00    +0.000 A 
ATOM     12  H   UNL     1       3.401   7.060  18.503  0.00  0.00    +0.000 HD
ENDROOT
BRANCH  10  13
ATOM     13  C   UNL     1       1.749   8.103  19.142  0.00  0.00    +0.000 A 
ATOM     14  C   UNL     1       1.350   9.059  18.190  0.00  0.00    +0.000 A 
ATOM     15  C   UNL     1       0.780  10.306  18.540  0.00  0.00    +0.000 A 
ATOM     16  C   UNL     1       0.625  10.585  19.903  0.00  0.00    +0.000 A 
ATOM     17  C   UNL     1       0.932   9.635  20.873  0.00  0.00    +0.000 A 
ATOM     18  C   UNL     1       0.562  10.242  22.091  0.00  0.00    +0.000 A 
ATOM     19  N   UNL     1       0.139  11.499  21.942  0.00  0.00    +0.000 NA
ATOM     20  N   UNL     1       0.258  11.719  20.606  0.00  0.00    +0.000 N 
ATOM     21  C   UNL     1       1.506   8.401  20.494  0.00  0.00    +0.000 A 
BRANCH  20  22
ATOM     22  C   UNL     1       0.316  13.104  20.142  0.00  0.00    +0.000 C 
BRANCH  22  23
ATOM     23  C   UNL     1       1.717  13.630  19.969  0.00  0.00    +0.000 A 
ATOM     24  C   UNL     1       2.521  13.937  21.066  0.00  0.00    +0.000 A 
ATOM     25  C   UNL     1       3.799  14.447  20.848  0.00  0.00    +0.000 A 
ATOM     26  C   UNL     1       4.260  14.600  19.548  0.00  0.00    +0.000 A 
ATOM     27  C   UNL     1       3.428  14.209  18.514  0.00  0.00    +0.000 A 
ATOM     28  N   UNL     1       2.175  13.733  18.693  0.00  0.00    +0.000 NA
ENDBRANCH  22  23
ENDBRANCH  20  22
ENDBRANCH  10  13
BRANCH   1  29
ATOM     29  O   UNL     1       4.432   5.590  17.189  0.00  0.00    +0.000 OA
BRANCH  29  31
ATOM     30  C   UNL     1       5.343   5.697  14.963  0.00  0.00    +0.000 C 
ATOM     31  C   UNL     1       5.668   5.459  16.435  0.00  0.00    +0.000 C 
BRANCH  31  32
ATOM     32  C   UNL     1       6.650   6.510  16.990  0.00  0.00    +0.000 C 
ATOM     33  O   UNL     1       6.569   7.685  16.618  0.00  0.00    +0.000 OA
ATOM     34  N   UNL     1       7.570   6.118  17.962  0.00  0.00    +0.000 N 
ATOM     35  C   UNL     1       7.791   4.758  18.436  0.00  0.00    +0.000 C 
ATOM     36  C   UNL     1       8.255   7.159  18.717  0.00  0.00    +0.000 C 
ENDBRANCH  31  32
ENDBRANCH  29  31
ENDBRANCH   1  29
TORSDOF 6
ENDMDL
MODEL 8
REMARK VINA RESULT:      -8.5      1.777      2.293
REMARK  Name = 
REMARK  9 active torsions:
REMARK  status: ('A' for Active; 'I' for Inactive)
REMARK    1  A    between atoms: C_1  and  C_2
REMARK    2  A    between atoms: C_2  and  O_3
REMARK    3  A    between atoms: C_2  and  C_31
REMARK    4  A    between atoms: O_3  and  C_4
REMARK    5  A    between atoms: N_13  and  C_14
REMARK    6  A    between atoms: N_21  and  C_22
REMARK    7  A    between atoms: C_22  and  C_23
REMARK    8  A    between atoms: N_33  and  C_34
REMARK    9  A    between atoms: N_33  and  C_35
REMARK                            x       y       z     vdW  Elec       q    Type
REMARK                         _______ _______ _______ _____ _____    ______ ____
ROOT
ATOM      1  C   UNL     1       3.838   4.407  17.621  0.00  0.00    +0.000 A 
ATOM      2  C   UNL     1       4.227   3.154  17.114  0.00  0.00    +0.000 A 
ATOM      3  C   UNL     1       3.914   1.997  17.811  0.00  0.00    +0.000 A 
ATOM      4  C   UNL     1       3.169   2.094  18.975  0.00  0.00    +0.000 A 
ATOM      5  C   UNL     1       2.687   3.307  19.446  0.00  0.00    +0.000 A 
ATOM      6  N   UNL     1       1.949   3.223  20.549  0.00  0.00    +0.000 NA
ATOM      7  C   UNL     1       1.445   4.361  21.019  0.00  0.00    +0.000 A 
ATOM      8  N   UNL     1       1.609   5.564  20.484  0.00  0.00    +0.000 NA
ATOM      9  C   UNL     1       2.362   5.661  19.367  0.00  0.00    +0.000 A 
ATOM     10  N   UNL     1       2.450   6.943  18.763  0.00  0.00    +0.000 N 
ATOM     11  C   UNL     1       2.978   4.512  18.772  0.00  0.00    +0.000 A 
ATOM     12  H   UNL     1       3.368   7.090  18.347  0.00  0.00    +0.000 HD
ENDROOT
BRANCH  10  13
ATOM     13  C   UNL     1       1.776   8.153  19.095  0.00  0.00    +0.000 A 
ATOM     14  C   UNL     1       1.449   9.151  18.158  0.00  0.00    +0.000 A 
ATOM     15  C   UNL     1       0.901  10.403  18.524  0.00  0.00    +0.000 A 
ATOM     16  C   UNL     1       0.692  10.644  19.887  0.00  0.00    +0.000 A 
ATOM     17  C   UNL     1       0.927   9.654  20.838  0.00  0.00    +0.000 A 
ATOM     18  C   UNL     1       0.520  10.233  22.058  0.00  0.00    +0.000 A 
ATOM     19  N   UNL     1       0.142  11.507  21.932  0.00  0.00    +0.000 NA
ATOM     20  N   UNL     1       0.328  11.765  20.611  0.00  0.00    +0.000 N 
ATOM     21  C   UNL     1       1.480   8.414  20.444  0.00  0.00    +0.000 A 
BRANCH  20  22
ATOM     22  C   UNL     1       0.449  13.162  20.196  0.00  0.00    +0.000 C 
BRANCH  22  23
ATOM     23  C   UNL     1       1.549  13.913  20.899  0.00  0.00    +0.000 A 
ATOM     24  C   UNL     1       2.891  13.584  20.712  0.00  0.00    +0.000 A 
ATOM     25  C   UNL     1       3.867  14.293  21.410  0.00  0.00    +0.000 A 
ATOM     26  C   UNL     1       3.486  15.337  22.242  0.00  0.00    +0.000 A 
ATOM     27  C   UNL     1       2.140  15.646  22.323  0.00  0.00    +0.000 A 
ATOM     28  N   UNL     1       1.170  14.962  21.676  0.00  0.00    +0.000 NA
ENDBRANCH  22  23
ENDBRANCH  20  22
ENDBRANCH  10  13
BRANCH   1  29
ATOM     29  O   UNL     1       4.279   5.562  17.010  0.00  0.00    +0.000 OA
BRANCH  29  31
ATOM     30  C   UNL     1       5.341   5.777  14.860  0.00  0.00    +0.000 C 
ATOM     31  C   UNL     1       5.562   5.454  16.335  0.00  0.00    +0.000 C 
BRANCH  31  32
ATOM     32  C   UNL     1       6.516   6.457  17.012  0.00  0.00    +0.000 C 
ATOM     33  O   UNL     1       6.353   7.671  16.845  0.00  0.00    +0.000 OA
ATOM     34  N   UNL     1       7.508   5.968  17.863  0.00  0.00    +0.000 N 
ATOM     35  C   UNL     1       7.826   4.565  18.092  0.00  0.00    +0.000 C 
ATOM     36  C   UNL     1       8.177   6.911  18.749  0.00  0.00    +0.000 C 
ENDBRANCH  31  32
ENDBRANCH  29  31
ENDBRANCH   1  29
TORSDOF 6
ENDMDL
MODEL 9
REMARK VINA RESULT:      -8.5      1.766      2.338
REMARK  Name = 
REMARK  9 active torsions:
REMARK  status: ('A' for Active; 'I' for Inactive)
REMARK    1  A    between atoms: C_1  and  C_2
REMARK    2  A    between atoms: C_2  and  O_3
REMARK    3  A    between atoms: C_2  and  C_31
REMARK    4  A    between atoms: O_3  and  C_4
REMARK    5  A    between atoms: N_13  and  C_14
REMARK    6  A    between atoms: N_21  and  C_22
REMARK    7  A    between atoms: C_22  and  C_23
REMARK    8  A    between atoms: N_33  and  C_34
REMARK    9  A    between atoms: N_33  and  C_35
REMARK                            x       y       z     vdW  Elec       q    Type
REMARK                         _______ _______ _______ _____ _____    ______ ____
ROOT
ATOM      1  C   UNL     1       3.763   4.395  17.603  0.00  0.00    +0.000 A 
ATOM      2  C   UNL     1       4.106   3.040  17.446  0.00  0.00    +0.000 A 
ATOM      3  C   UNL     1       3.830   2.133  18.457  0.00  0.00    +0.000 A 
ATOM      4  C   UNL     1       3.166   2.572  19.592  0.00  0.00    +0.000 A 
ATOM      5  C   UNL     1       2.728   3.881  19.732  0.00  0.00    +0.000 A 
ATOM      6  N   UNL     1       2.065   4.129  20.857  0.00  0.00    +0.000 NA
ATOM      7  C   UNL     1       1.604   5.367  21.020  0.00  0.00    +0.000 A 
ATOM      8  N   UNL     1       1.742   6.367  20.158  0.00  0.00    +0.000 NA
ATOM      9  C   UNL     1       2.419   6.127  19.015  0.00  0.00    +0.000 A 
ATOM     10  N   UNL     1       2.478   7.186  18.072  0.00  0.00    +0.000 N 
ATOM     11  C   UNL     1       2.983   4.841  18.730  0.00  0.00    +0.000 A 
ATOM     12  H   UNL     1       3.368   7.185  17.574  0.00  0.00    +0.000 HD
ENDROOT
BRANCH  10  13
ATOM     13  C   UNL     1       1.839   8.459  18.091  0.00  0.00    +0.000 A 
ATOM     14  C   UNL     1       2.450   9.637  18.558  0.00  0.00    +0.000 A 
ATOM     15  C   UNL     1       1.759  10.864  18.695  0.00  0.00    +0.000 A 
ATOM     16  C   UNL     1       0.401  10.881  18.354  0.00  0.00    +0.000 A 
ATOM     17  C   UNL     1      -0.221   9.760  17.811  0.00  0.00    +0.000 A 
ATOM     18  C   UNL     1      -1.531  10.189  17.519  0.00  0.00    +0.000 A 
ATOM     19  N   UNL     1      -1.772  11.441  17.914  0.00  0.00    +0.000 NA
ATOM     20  N   UNL     1      -0.603  11.823  18.493  0.00  0.00    +0.000 N 
ATOM     21  C   UNL     1       0.493   8.546  17.692  0.00  0.00    +0.000 A 
BRANCH  20  22
ATOM     22  C   UNL     1      -0.635  12.949  19.424  0.00  0.00    +0.000 C 
BRANCH  22  23
ATOM     23  C   UNL     1      -1.266  12.623  20.752  0.00  0.00    +0.000 A 
ATOM     24  C   UNL     1      -0.587  11.885  21.721  0.00  0.00    +0.000 A 
ATOM     25  C   UNL     1      -1.231  11.587  22.921  0.00  0.00    +0.000 A 
ATOM     26  C   UNL     1      -2.515  12.066  23.143  0.00  0.00    +0.000 A 
ATOM     27  C   UNL     1      -3.095  12.848  22.161  0.00  0.00    +0.000 A 
ATOM     28  N   UNL     1      -2.506  13.134  20.979  0.00  0.00    +0.000 NA
ENDBRANCH  22  23
ENDBRANCH  20  22
ENDBRANCH  10  13
BRANCH   1  29
ATOM     29  O   UNL     1       4.173   5.320  16.667  0.00  0.00    +0.000 OA
BRANCH  29  31
ATOM     30  C   UNL     1       5.467   5.205  14.639  0.00  0.00    +0.000 C 
ATOM     31  C   UNL     1       5.523   5.134  16.163  0.00  0.00    +0.000 C 
BRANCH  31  32
ATOM     32  C   UNL     1       6.389   6.259  16.764  0.00  0.00    +0.000 C 
ATOM     33  O   UNL     1       6.139   7.439  16.496  0.00  0.00    +0.000 OA
ATOM     34  N   UNL     1       7.402   5.918  17.662  0.00  0.00    +0.000 N 
ATOM     35  C   UNL     1       7.820   4.566  18.009  0.00  0.00    +0.000 C 
ATOM     36  C   UNL     1       7.985   6.978  18.473  0.00  0.00    +0.000 C 
ENDBRANCH  31  32
ENDBRANCH  29  31
ENDBRANCH   1  29
TORSDOF 6
ENDMDL
