MODEL 1
REMARK VINA RESULT:      -6.7      0.000      0.000
REMARK  Name = 
REMARK  12 active torsions:
REMARK  status: ('A' for Active; 'I' for Inactive)
REMARK    1  A    between atoms: C_1  and  C_2
REMARK    2  A    between atoms: C_2  and  C_3
REMARK    3  A    between atoms: C_3  and  C_4
REMARK    4  A    between atoms: C_3  and  N_21
REMARK    5  A    between atoms: N_13  and  C_14
REMARK    6  A    between atoms: C_14  and  C_15
REMARK    7  A    between atoms: N_21  and  C_22
REMARK    8  A    between atoms: C_22  and  C_23
REMARK    9  A    between atoms: C_23  and  C_24
REMARK   10  A    between atoms: C_24  and  N_25
REMARK   11  A    between atoms: C_26  and  C_28
REMARK   12  A    between atoms: C_31  and  C_32
REMARK                            x       y       z     vdW  Elec       q    Type
REMARK                         _______ _______ _______ _____ _____    ______ ____
ROOT
ATOM      1  C   UNL     1      -1.287  12.465  20.157  0.00  0.00    +0.000 C 
ENDROOT
BRANCH   1   2
ATOM      2  C   UNL     1      -2.845  12.570  20.326  0.00  0.00    +0.000 A 
ATOM      3  N   UNL     1      -3.496  12.349  19.214  0.00  0.00    +0.000 NA
ATOM      4  C   UNL     1      -4.832  12.272  19.315  0.00  0.00    +0.000 A 
ATOM      5  S   UNL     1      -5.827  12.046  17.948  0.00  0.00    +0.000 S 
ATOM      6  C   UNL     1      -7.234  11.946  18.917  0.00  0.00    +0.000 A 
ATOM      7  C   UNL     1      -6.946  12.084  20.259  0.00  0.00    +0.000 A 
ATOM      8  C   UNL     1      -5.555  12.302  20.483  0.00  0.00    +0.000 A 
ATOM      9  C   UNL     1      -4.835  12.501  21.720  0.00  0.00    +0.000 A 
ATOM     10  O   UNL     1      -5.407  12.402  22.805  0.00  0.00    +0.000 OA
ATOM     11  N   UNL     1      -3.462  12.735  21.574  0.00  0.00    +0.000 N 
BRANCH  11  12
ATOM     12  C   UNL     1      -2.741  12.949  22.831  0.00  0.00    +0.000 C 
BRANCH  12  13
ATOM     13  C   UNL     1      -2.315  14.365  23.184  0.00  0.00    +0.000 A 
ATOM     14  C   UNL     1      -3.002  15.435  22.580  0.00  0.00    +0.000 A 
ATOM     15  C   UNL     1      -2.789  16.754  22.982  0.00  0.00    +0.000 A 
ATOM     16  C   UNL     1      -1.880  17.032  23.999  0.00  0.00    +0.000 A 
ATOM     17  C   UNL     1      -1.158  15.991  24.579  0.00  0.00    +0.000 A 
ATOM     18  C   UNL     1      -1.364  14.671  24.172  0.00  0.00    +0.000 A 
ENDBRANCH  12  13
ENDBRANCH  11  12
ENDBRANCH   1   2
BRANCH   1  19
ATOM     19  N   UNL     1      -0.765  11.154  19.649  0.00  0.00    +0.000 N 
ATOM     20  C   UNL     1       0.349  10.666  20.408  0.00  0.00    +0.000 C 
ATOM     21  O   UNL     1       0.771  11.291  21.387  0.00  0.00    +0.000 OA
BRANCH  20  22
ATOM     22  C   UNL     1       1.057   9.370  20.129  0.00  0.00    +0.000 A 
ATOM     23  C   UNL     1       0.934   8.358  21.100  0.00  0.00    +0.000 A 
ATOM     24  C   UNL     1       1.471   7.083  20.899  0.00  0.00    +0.000 A 
ATOM     25  C   UNL     1       2.158   6.789  19.720  0.00  0.00    +0.000 A 
ATOM     26  C   UNL     1       2.718   5.420  19.471  0.00  0.00    +0.000 C 
ATOM     27  C   UNL     1       2.296   7.790  18.753  0.00  0.00    +0.000 A 
ATOM     28  C   UNL     1       1.716   9.053  18.939  0.00  0.00    +0.000 A 
ENDBRANCH  20  22
BRANCH  19  29
ATOM     29  C   UNL     1      -0.811  10.771  18.220  0.00  0.00    +0.000 C 
BRANCH  29  30
ATOM     30  C   UNL     1      -1.867   9.797  17.732  0.00  0.00    +0.000 C 
BRANCH  30  31
ATOM     31  C   UNL     1      -2.539  10.228  16.434  0.00  0.00    +0.000 C 
BRANCH  31  32
ATOM     32  N   UNL     1      -2.352  11.669  16.288  0.00  0.00    +0.000 NA
ATOM     33  H   UNL     1      -1.485  11.966  16.734  0.00  0.00    +0.000 HD
ATOM     34  H   UNL     1      -3.104  12.169  16.764  0.00  0.00    +0.000 HD
ENDBRANCH  31  32
ENDBRANCH  30  31
ENDBRANCH  29  30
ENDBRANCH  19  29
ENDBRANCH   1  19
BRANCH   1  36
ATOM     35  C   UNL     1      -0.034  14.791  20.377  0.00  0.00    +0.000 C 
ATOM     36  C   UNL     1      -0.891  13.849  19.544  0.00  0.00    +0.000 C 
ENDBRANCH   1  36
TORSDOF 10
ENDMDL
MODEL 2
REMARK VINA RESULT:      -6.4      2.968      5.298
REMARK  Name = 
REMARK  12 active torsions:
REMARK  status: ('A' for Active; 'I' for Inactive)
REMARK    1  A    between atoms: C_1  and  C_2
REMARK    2  A    between atoms: C_2  and  C_3
REMARK    3  A    between atoms: C_3  and  C_4
REMARK    4  A    between atoms: C_3  and  N_21
REMARK    5  A    between atoms: N_13  and  C_14
REMARK    6  A    between atoms: C_14  and  C_15
REMARK    7  A    between atoms: N_21  and  C_22
REMARK    8  A    between atoms: C_22  and  C_23
REMARK    9  A    between atoms: C_23  and  C_24
REMARK   10  A    between atoms: C_24  and  N_25
REMARK   11  A    between atoms: C_26  and  C_28
REMARK   12  A    between atoms: C_31  and  C_32
REMARK                            x       y       z     vdW  Elec       q    Type
REMARK                         _______ _______ _______ _____ _____    ______ ____
ROOT
ATOM      1  C   UNL     1       0.342  11.119  18.921  0.00  0.00    +0.000 C 
ENDROOT
BRANCH   1   2
ATOM      2  C   UNL     1       0.009  12.152  20.056  0.00  0.00    +0.000 A 
ATOM      3  N   UNL     1      -1.160  11.948  20.605  0.00  0.00    +0.000 NA
ATOM      4  C   UNL     1      -1.447  12.696  21.682  0.00  0.00    +0.000 A 
ATOM      5  S   UNL     1      -2.952  12.591  22.477  0.00  0.00    +0.000 S 
ATOM      6  C   UNL     1      -2.452  13.686  23.693  0.00  0.00    +0.000 A 
ATOM      7  C   UNL     1      -1.159  14.122  23.492  0.00  0.00    +0.000 A 
ATOM      8  C   UNL     1      -0.590  13.568  22.309  0.00  0.00    +0.000 A 
ATOM      9  C   UNL     1       0.721  13.762  21.731  0.00  0.00    +0.000 A 
ATOM     10  O   UNL     1       1.576  14.423  22.319  0.00  0.00    +0.000 OA
ATOM     11  N   UNL     1       0.939  13.091  20.522  0.00  0.00    +0.000 N 
BRANCH  11  12
ATOM     12  C   UNL     1       2.265  13.303  19.935  0.00  0.00    +0.000 C 
BRANCH  12  13
ATOM     13  C   UNL     1       2.497  14.565  19.120  0.00  0.00    +0.000 A 
ATOM     14  C   UNL     1       3.595  14.595  18.240  0.00  0.00    +0.000 A 
ATOM     15  C   UNL     1       3.771  15.643  17.335  0.00  0.00    +0.000 A 
ATOM     16  C   UNL     1       2.851  16.687  17.292  0.00  0.00    +0.000 A 
ATOM     17  C   UNL     1       1.782  16.697  18.186  0.00  0.00    +0.000 A 
ATOM     18  C   UNL     1       1.608  15.654  19.098  0.00  0.00    +0.000 A 
ENDBRANCH  12  13
ENDBRANCH  11  12
ENDBRANCH   1   2
BRANCH   1  19
ATOM     19  N   UNL     1       0.941   9.818  19.367  0.00  0.00    +0.000 N 
ATOM     20  C   UNL     1       1.722   9.185  18.343  0.00  0.00    +0.000 C 
ATOM     21  O   UNL     1       1.873   9.720  17.240  0.00  0.00    +0.000 OA
BRANCH  20  22
ATOM     22  C   UNL     1       2.449   7.882  18.522  0.00  0.00    +0.000 A 
ATOM     23  C   UNL     1       3.432   7.567  17.566  0.00  0.00    +0.000 A 
ATOM     24  C   UNL     1       4.233   6.427  17.690  0.00  0.00    +0.000 A 
ATOM     25  C   UNL     1       4.061   5.563  18.772  0.00  0.00    +0.000 A 
ATOM     26  C   UNL     1       4.928   4.350  18.939  0.00  0.00    +0.000 C 
ATOM     27  C   UNL     1       3.079   5.860  19.723  0.00  0.00    +0.000 A 
ATOM     28  C   UNL     1       2.310   7.028  19.619  0.00  0.00    +0.000 A 
ENDBRANCH  20  22
BRANCH  19  29
ATOM     29  C   UNL     1       0.283   8.923  20.345  0.00  0.00    +0.000 C 
BRANCH  29  30
ATOM     30  C   UNL     1       0.666   8.994  21.811  0.00  0.00    +0.000 C 
BRANCH  30  31
ATOM     31  C   UNL     1      -0.529   9.135  22.746  0.00  0.00    +0.000 C 
BRANCH  31  32
ATOM     32  N   UNL     1      -0.095   9.887  23.920  0.00  0.00    +0.000 NA
ATOM     33  H   UNL     1      -0.645   9.625  24.737  0.00  0.00    +0.000 HD
ATOM     34  H   UNL     1      -0.257  10.885  23.775  0.00  0.00    +0.000 HD
ENDBRANCH  31  32
ENDBRANCH  30  31
ENDBRANCH  29  30
ENDBRANCH  19  29
ENDBRANCH   1  19
BRANCH   1  36
ATOM     35  C   UNL     1      -1.715   9.963  17.711  0.00  0.00    +0.000 C 
ATOM     36  C   UNL     1      -0.891  11.218  17.962  0.00  0.00    +0.000 C 
ENDBRANCH   1  36
TORSDOF 10
ENDMDL
MODEL 3
REMARK VINA RESULT:      -6.4      2.904      5.132
REMARK  Name = 
REMARK  12 active torsions:
REMARK  status: ('A' for Active; 'I' for Inactive)
REMARK    1  A    between atoms: C_1  and  C_2
REMARK    2  A    between atoms: C_2  and  C_3
REMARK    3  A    between atoms: C_3  and  C_4
REMARK    4  A    between atoms: C_3  and  N_21
REMARK    5  A    between atoms: N_13  and  C_14
REMARK    6  A    between atoms: C_14  and  C_15
REMARK    7  A    between atoms: N_21  and  C_22
REMARK    8  A    between atoms: C_22  and  C_23
REMARK    9  A    between atoms: C_23  and  C_24
REMARK   10  A    between atoms: C_24  and  N_25
REMARK   11  A    between atoms: C_26  and  C_28
REMARK   12  A    between atoms: C_31  and  C_32
REMARK                            x       y       z     vdW  Elec       q    Type
REMARK                         _______ _______ _______ _____ _____    ______ ____
ROOT
ATOM      1  C   UNL     1      -0.185  10.904  18.968  0.00  0.00    +0.000 C 
ENDROOT
BRANCH   1   2
ATOM      2  C   UNL     1      -0.343  11.997  20.085  0.00  0.00    +0.000 A 
ATOM      3  N   UNL     1      -1.487  11.923  20.714  0.00  0.00    +0.000 NA
ATOM      4  C   UNL     1      -1.630  12.725  21.780  0.00  0.00    +0.000 A 
ATOM      5  S   UNL     1      -3.082  12.789  22.672  0.00  0.00    +0.000 S 
ATOM      6  C   UNL     1      -2.402  13.866  23.814  0.00  0.00    +0.000 A 
ATOM      7  C   UNL     1      -1.090  14.170  23.517  0.00  0.00    +0.000 A 
ATOM      8  C   UNL     1      -0.655  13.529  22.320  0.00  0.00    +0.000 A 
ATOM      9  C   UNL     1       0.627  13.579  21.654  0.00  0.00    +0.000 A 
ATOM     10  O   UNL     1       1.578  14.172  22.162  0.00  0.00    +0.000 OA
ATOM     11  N   UNL     1       0.700  12.856  20.457  0.00  0.00    +0.000 N 
BRANCH  11  12
ATOM     12  C   UNL     1       1.998  12.922  19.781  0.00  0.00    +0.000 C 
BRANCH  12  13
ATOM     13  C   UNL     1       2.290  14.128  18.903  0.00  0.00    +0.000 A 
ATOM     14  C   UNL     1       1.358  15.182  18.892  0.00  0.00    +0.000 A 
ATOM     15  C   UNL     1       1.637  16.391  18.252  0.00  0.00    +0.000 A 
ATOM     16  C   UNL     1       2.858  16.570  17.607  0.00  0.00    +0.000 A 
ATOM     17  C   UNL     1       3.776  15.522  17.570  0.00  0.00    +0.000 A 
ATOM     18  C   UNL     1       3.495  14.310  18.202  0.00  0.00    +0.000 A 
ENDBRANCH  12  13
ENDBRANCH  11  12
ENDBRANCH   1   2
BRANCH   1  19
ATOM     19  N   UNL     1       0.546   9.655  19.365  0.00  0.00    +0.000 N 
ATOM     20  C   UNL     1       1.533   9.259  18.403  0.00  0.00    +0.000 C 
ATOM     21  O   UNL     1       1.735   9.934  17.388  0.00  0.00    +0.000 OA
BRANCH  20  22
ATOM     22  C   UNL     1       2.422   8.057  18.554  0.00  0.00    +0.000 A 
ATOM     23  C   UNL     1       2.221   7.258  19.695  0.00  0.00    +0.000 A 
ATOM     24  C   UNL     1       2.926   6.066  19.886  0.00  0.00    +0.000 A 
ATOM     25  C   UNL     1       3.863   5.646  18.942  0.00  0.00    +0.000 A 
ATOM     26  C   UNL     1       4.610   4.356  19.113  0.00  0.00    +0.000 C 
ATOM     27  C   UNL     1       4.080   6.437  17.809  0.00  0.00    +0.000 A 
ATOM     28  C   UNL     1       3.337   7.608  17.599  0.00  0.00    +0.000 A 
ENDBRANCH  20  22
BRANCH  19  29
ATOM     29  C   UNL     1      -0.084   8.572  20.152  0.00  0.00    +0.000 C 
BRANCH  29  30
ATOM     30  C   UNL     1      -0.353   8.770  21.631  0.00  0.00    +0.000 C 
BRANCH  30  31
ATOM     31  C   UNL     1       0.819   9.385  22.386  0.00  0.00    +0.000 C 
BRANCH  31  32
ATOM     32  N   UNL     1       0.347   9.771  23.712  0.00  0.00    +0.000 NA
ATOM     33  H   UNL     1       0.131  10.768  23.740  0.00  0.00    +0.000 HD
ATOM     34  H   UNL     1       1.083   9.620  24.403  0.00  0.00    +0.000 HD
ENDBRANCH  31  32
ENDBRANCH  30  31
ENDBRANCH  29  30
ENDBRANCH  19  29
ENDBRANCH   1  19
BRANCH   1  36
ATOM     35  C   UNL     1      -1.785   9.970  17.072  0.00  0.00    +0.000 C 
ATOM     36  C   UNL     1      -1.580  10.900  18.260  0.00  0.00    +0.000 C 
ENDBRANCH   1  36
TORSDOF 10
ENDMDL
MODEL 4
REMARK VINA RESULT:      -6.3      1.574      2.270
REMARK  Name = 
REMARK  12 active torsions:
REMARK  status: ('A' for Active; 'I' for Inactive)
REMARK    1  A    between atoms: C_1  and  C_2
REMARK    2  A    between atoms: C_2  and  C_3
REMARK    3  A    between atoms: C_3  and  C_4
REMARK    4  A    between atoms: C_3  and  N_21
REMARK    5  A    between atoms: N_13  and  C_14
REMARK    6  A    between atoms: C_14  and  C_15
REMARK    7  A    between atoms: N_21  and  C_22
REMARK    8  A    between atoms: C_22  and  C_23
REMARK    9  A    between atoms: C_23  and  C_24
REMARK   10  A    between atoms: C_24  and  N_25
REMARK   11  A    between atoms: C_26  and  C_28
REMARK   12  A    between atoms: C_31  and  C_32
REMARK                            x       y       z     vdW  Elec       q    Type
REMARK                         _______ _______ _______ _____ _____    ______ ____
ROOT
ATOM      1  C   UNL     1      -0.854  12.489  19.703  0.00  0.00    +0.000 C 
ENDROOT
BRANCH   1   2
ATOM      2  C   UNL     1      -2.122  12.835  20.563  0.00  0.00    +0.000 A 
ATOM      3  N   UNL     1      -3.245  12.567  19.948  0.00  0.00    +0.000 NA
ATOM      4  C   UNL     1      -4.364  12.694  20.678  0.00  0.00    +0.000 A 
ATOM      5  S   UNL     1      -5.910  12.439  20.006  0.00  0.00    +0.000 S 
ATOM      6  C   UNL     1      -6.670  12.663  21.523  0.00  0.00    +0.000 A 
ATOM      7  C   UNL     1      -5.757  12.929  22.521  0.00  0.00    +0.000 A 
ATOM      8  C   UNL     1      -4.422  12.975  22.021  0.00  0.00    +0.000 A 
ATOM      9  C   UNL     1      -3.180  13.226  22.716  0.00  0.00    +0.000 A 
ATOM     10  O   UNL     1      -3.156  13.348  23.940  0.00  0.00    +0.000 OA
ATOM     11  N   UNL     1      -2.040  13.243  21.902  0.00  0.00    +0.000 N 
BRANCH  11  12
ATOM     12  C   UNL     1      -0.786  13.510  22.610  0.00  0.00    +0.000 C 
BRANCH  12  13
ATOM     13  C   UNL     1      -0.091  14.840  22.362  0.00  0.00    +0.000 A 
ATOM     14  C   UNL     1       1.273  14.822  22.017  0.00  0.00    +0.000 A 
ATOM     15  C   UNL     1       1.933  15.980  21.605  0.00  0.00    +0.000 A 
ATOM     16  C   UNL     1       1.241  17.186  21.533  0.00  0.00    +0.000 A 
ATOM     17  C   UNL     1      -0.099  17.233  21.913  0.00  0.00    +0.000 A 
ATOM     18  C   UNL     1      -0.759  16.076  22.333  0.00  0.00    +0.000 A 
ENDBRANCH  12  13
ENDBRANCH  11  12
ENDBRANCH   1   2
BRANCH   1  19
ATOM     19  N   UNL     1      -0.566  11.030  19.508  0.00  0.00    +0.000 N 
ATOM     20  C   UNL     1       0.836  10.751  19.381  0.00  0.00    +0.000 C 
ATOM     21  O   UNL     1       1.671  11.657  19.463  0.00  0.00    +0.000 OA
BRANCH  20  22
ATOM     22  C   UNL     1       1.407   9.374  19.194  0.00  0.00    +0.000 A 
ATOM     23  C   UNL     1       2.009   9.101  17.951  0.00  0.00    +0.000 A 
ATOM     24  C   UNL     1       2.655   7.885  17.704  0.00  0.00    +0.000 A 
ATOM     25  C   UNL     1       2.707   6.904  18.694  0.00  0.00    +0.000 A 
ATOM     26  C   UNL     1       3.419   5.605  18.460  0.00  0.00    +0.000 C 
ATOM     27  C   UNL     1       2.103   7.160  19.930  0.00  0.00    +0.000 A 
ATOM     28  C   UNL     1       1.496   8.398  20.189  0.00  0.00    +0.000 A 
ENDBRANCH  20  22
BRANCH  19  29
ATOM     29  C   UNL     1      -1.489  10.117  18.798  0.00  0.00    +0.000 C 
BRANCH  29  30
ATOM     30  C   UNL     1      -1.526  10.110  17.281  0.00  0.00    +0.000 C 
BRANCH  30  31
ATOM     31  C   UNL     1      -2.692  10.899  16.698  0.00  0.00    +0.000 C 
BRANCH  31  32
ATOM     32  N   UNL     1      -3.872  10.628  17.514  0.00  0.00    +0.000 NA
ATOM     33  H   UNL     1      -4.517  10.013  17.020  0.00  0.00    +0.000 HD
ATOM     34  H   UNL     1      -4.382  11.496  17.689  0.00  0.00    +0.000 HD
ENDBRANCH  31  32
ENDBRANCH  30  31
ENDBRANCH  29  30
ENDBRANCH  19  29
ENDBRANCH   1  19
BRANCH   1  36
ATOM     35  C   UNL     1      -0.123  14.815  18.662  0.00  0.00    +0.000 C 
ATOM     36  C   UNL     1      -0.915  13.522  18.529  0.00  0.00    +0.000 C 
ENDBRANCH   1  36
TORSDOF 10
ENDMDL
MODEL 5
REMARK VINA RESULT:      -6.2      1.185      1.429
REMARK  Name = 
REMARK  12 active torsions:
REMARK  status: ('A' for Active; 'I' for Inactive)
REMARK    1  A    between atoms: C_1  and  C_2
REMARK    2  A    between atoms: C_2  and  C_3
REMARK    3  A    between atoms: C_3  and  C_4
REMARK    4  A    between atoms: C_3  and  N_21
REMARK    5  A    between atoms: N_13  and  C_14
REMARK    6  A    between atoms: C_14  and  C_15
REMARK    7  A    between atoms: N_21  and  C_22
REMARK    8  A    between atoms: C_22  and  C_23
REMARK    9  A    between atoms: C_23  and  C_24
REMARK   10  A    between atoms: C_24  and  N_25
REMARK   11  A    between atoms: C_26  and  C_28
REMARK   12  A    between atoms: C_31  and  C_32
REMARK                            x       y       z     vdW  Elec       q    Type
REMARK                         _______ _______ _______ _____ _____    ______ ____
ROOT
ATOM      1  C   UNL     1      -1.728  13.278  20.761  0.00  0.00    +0.000 C 
ENDROOT
BRANCH   1   2
ATOM      2  C   UNL     1      -3.243  13.178  21.163  0.00  0.00    +0.000 A 
ATOM      3  N   UNL     1      -4.041  13.085  20.131  0.00  0.00    +0.000 NA
ATOM      4  C   UNL     1      -5.333  12.843  20.401  0.00  0.00    +0.000 A 
ATOM      5  S   UNL     1      -6.508  12.752  19.169  0.00  0.00    +0.000 S 
ATOM      6  C   UNL     1      -7.732  12.326  20.287  0.00  0.00    +0.000 A 
ATOM      7  C   UNL     1      -7.248  12.257  21.577  0.00  0.00    +0.000 A 
ATOM      8  C   UNL     1      -5.862  12.586  21.642  0.00  0.00    +0.000 A 
ATOM      9  C   UNL     1      -4.975  12.642  22.782  0.00  0.00    +0.000 A 
ATOM     10  O   UNL     1      -5.358  12.290  23.897  0.00  0.00    +0.000 OA
ATOM     11  N   UNL     1      -3.667  13.050  22.493  0.00  0.00    +0.000 N 
BRANCH  11  12
ATOM     12  C   UNL     1      -2.777  13.117  23.654  0.00  0.00    +0.000 C 
BRANCH  12  13
ATOM     13  C   UNL     1      -2.441  14.486  24.224  0.00  0.00    +0.000 A 
ATOM     14  C   UNL     1      -1.120  14.955  24.092  0.00  0.00    +0.000 A 
ATOM     15  C   UNL     1      -0.778  16.265  24.430  0.00  0.00    +0.000 A 
ATOM     16  C   UNL     1      -1.752  17.136  24.911  0.00  0.00    +0.000 A 
ATOM     17  C   UNL     1      -3.056  16.677  25.090  0.00  0.00    +0.000 A 
ATOM     18  C   UNL     1      -3.399  15.365  24.760  0.00  0.00    +0.000 A 
ENDBRANCH  12  13
ENDBRANCH  11  12
ENDBRANCH   1   2
BRANCH   1  19
ATOM     19  N   UNL     1      -1.188  12.150  19.934  0.00  0.00    +0.000 N 
ATOM     20  C   UNL     1       0.048  11.630  20.442  0.00  0.00    +0.000 C 
ATOM     21  O   UNL     1       0.551  12.086  21.474  0.00  0.00    +0.000 OA
BRANCH  20  22
ATOM     22  C   UNL     1       0.801  10.488  19.820  0.00  0.00    +0.000 A 
ATOM     23  C   UNL     1       0.941   9.322  20.596  0.00  0.00    +0.000 A 
ATOM     24  C   UNL     1       1.539   8.168  20.080  0.00  0.00    +0.000 A 
ATOM     25  C   UNL     1       2.025   8.154  18.772  0.00  0.00    +0.000 A 
ATOM     26  C   UNL     1       2.645   6.918  18.190  0.00  0.00    +0.000 C 
ATOM     27  C   UNL     1       1.902   9.310  17.995  0.00  0.00    +0.000 A 
ATOM     28  C   UNL     1       1.260  10.450  18.501  0.00  0.00    +0.000 A 
ENDBRANCH  20  22
BRANCH  19  29
ATOM     29  C   UNL     1      -1.395  12.055  18.472  0.00  0.00    +0.000 C 
BRANCH  29  30
ATOM     30  C   UNL     1      -2.526  11.206  17.922  0.00  0.00    +0.000 C 
BRANCH  30  31
ATOM     31  C   UNL     1      -2.267  10.684  16.515  0.00  0.00    +0.000 C 
BRANCH  31  32
ATOM     32  N   UNL     1      -3.018  11.517  15.580  0.00  0.00    +0.000 NA
ATOM     33  H   UNL     1      -3.463  12.293  16.069  0.00  0.00    +0.000 HD
ATOM     34  H   UNL     1      -3.773  10.975  15.158  0.00  0.00    +0.000 HD
ENDBRANCH  31  32
ENDBRANCH  30  31
ENDBRANCH  29  30
ENDBRANCH  19  29
ENDBRANCH   1  19
BRANCH   1  36
ATOM     35  C   UNL     1      -0.150  15.288  20.051  0.00  0.00    +0.000 C 
ATOM     36  C   UNL     1      -1.549  14.787  20.386  0.00  0.00    +0.000 C 
ENDBRANCH   1  36
TORSDOF 10
ENDMDL
MODEL 6
REMARK VINA RESULT:      -6.2      1.134      1.524
REMARK  Name = 
REMARK  12 active torsions:
REMARK  status: ('A' for Active; 'I' for Inactive)
REMARK    1  A    between atoms: C_1  and  C_2
REMARK    2  A    between atoms: C_2  and  C_3
REMARK    3  A    between atoms: C_3  and  C_4
REMARK    4  A    between atoms: C_3  and  N_21
REMARK    5  A    between atoms: N_13  and  C_14
REMARK    6  A    between atoms: C_14  and  C_15
REMARK    7  A    between atoms: N_21  and  C_22
REMARK    8  A    between atoms: C_22  and  C_23
REMARK    9  A    between atoms: C_23  and  C_24
REMARK   10  A    between atoms: C_24  and  N_25
REMARK   11  A    between atoms: C_26  and  C_28
REMARK   12  A    between atoms: C_31  and  C_32
REMARK                            x       y       z     vdW  Elec       q    Type
REMARK                         _______ _______ _______ _____ _____    ______ ____
ROOT
ATOM      1  C   UNL     1      -1.186  13.075  20.428  0.00  0.00    +0.000 C 
ENDROOT
BRANCH   1   2
ATOM      2  C   UNL     1      -2.666  13.073  20.951  0.00  0.00    +0.000 A 
ATOM      3  N   UNL     1      -3.549  13.005  19.988  0.00  0.00    +0.000 NA
ATOM      4  C   UNL     1      -4.827  12.845  20.366  0.00  0.00    +0.000 A 
ATOM      5  S   UNL     1      -6.101  12.797  19.234  0.00  0.00    +0.000 S 
ATOM      6  C   UNL     1      -7.252  12.468  20.456  0.00  0.00    +0.000 A 
ATOM      7  C   UNL     1      -6.671  12.398  21.705  0.00  0.00    +0.000 A 
ATOM      8  C   UNL     1      -5.268  12.646  21.652  0.00  0.00    +0.000 A 
ATOM      9  C   UNL     1      -4.290  12.674  22.716  0.00  0.00    +0.000 A 
ATOM     10  O   UNL     1      -4.602  12.369  23.866  0.00  0.00    +0.000 OA
ATOM     11  N   UNL     1      -2.988  12.998  22.314  0.00  0.00    +0.000 N 
BRANCH  11  12
ATOM     12  C   UNL     1      -2.005  13.037  23.399  0.00  0.00    +0.000 C 
BRANCH  12  13
ATOM     13  C   UNL     1      -1.683  14.384  24.028  0.00  0.00    +0.000 A 
ATOM     14  C   UNL     1      -0.646  15.149  23.463  0.00  0.00    +0.000 A 
ATOM     15  C   UNL     1      -0.408  16.463  23.871  0.00  0.00    +0.000 A 
ATOM     16  C   UNL     1      -1.205  17.039  24.857  0.00  0.00    +0.000 A 
ATOM     17  C   UNL     1      -2.208  16.282  25.459  0.00  0.00    +0.000 A 
ATOM     18  C   UNL     1      -2.442  14.965  25.058  0.00  0.00    +0.000 A 
ENDBRANCH  12  13
ENDBRANCH  11  12
ENDBRANCH   1   2
BRANCH   1  19
ATOM     19  N   UNL     1      -0.749  11.854  19.675  0.00  0.00    +0.000 N 
ATOM     20  C   UNL     1       0.336  11.166  20.312  0.00  0.00    +0.000 C 
ATOM     21  O   UNL     1       0.800  11.569  21.384  0.00  0.00    +0.000 OA
BRANCH  20  22
ATOM     22  C   UNL     1       0.960   9.904  19.785  0.00  0.00    +0.000 A 
ATOM     23  C   UNL     1       1.456   9.944  18.468  0.00  0.00    +0.000 A 
ATOM     24  C   UNL     1       2.139   8.858  17.912  0.00  0.00    +0.000 A 
ATOM     25  C   UNL     1       2.335   7.695  18.658  0.00  0.00    +0.000 A 
ATOM     26  C   UNL     1       3.090   6.529  18.091  0.00  0.00    +0.000 C 
ATOM     27  C   UNL     1       1.836   7.640  19.964  0.00  0.00    +0.000 A 
ATOM     28  C   UNL     1       1.192   8.748  20.533  0.00  0.00    +0.000 A 
ENDBRANCH  20  22
BRANCH  19  29
ATOM     29  C   UNL     1      -0.824  11.750  18.201  0.00  0.00    +0.000 C 
BRANCH  29  30
ATOM     30  C   UNL     1      -2.117  11.313  17.539  0.00  0.00    +0.000 C 
BRANCH  30  31
ATOM     31  C   UNL     1      -2.109   9.858  17.088  0.00  0.00    +0.000 C 
BRANCH  31  32
ATOM     32  N   UNL     1      -2.626   9.807  15.723  0.00  0.00    +0.000 NA
ATOM     33  H   UNL     1      -3.631   9.977  15.713  0.00  0.00    +0.000 HD
ATOM     34  H   UNL     1      -2.490   8.873  15.333  0.00  0.00    +0.000 HD
ENDBRANCH  31  32
ENDBRANCH  30  31
ENDBRANCH  29  30
ENDBRANCH  19  29
ENDBRANCH   1  19
BRANCH   1  36
ATOM     35  C   UNL     1       0.428  15.089  19.818  0.00  0.00    +0.000 C 
ATOM     36  C   UNL     1      -0.988  14.534  19.897  0.00  0.00    +0.000 C 
ENDBRANCH   1  36
TORSDOF 10
ENDMDL
MODEL 7
REMARK VINA RESULT:      -6.2      2.846      6.404
REMARK  Name = 
REMARK  12 active torsions:
REMARK  status: ('A' for Active; 'I' for Inactive)
REMARK    1  A    between atoms: C_1  and  C_2
REMARK    2  A    between atoms: C_2  and  C_3
REMARK    3  A    between atoms: C_3  and  C_4
REMARK    4  A    between atoms: C_3  and  N_21
REMARK    5  A    between atoms: N_13  and  C_14
REMARK    6  A    between atoms: C_14  and  C_15
REMARK    7  A    between atoms: N_21  and  C_22
REMARK    8  A    between atoms: C_22  and  C_23
REMARK    9  A    between atoms: C_23  and  C_24
REMARK   10  A    between atoms: C_24  and  N_25
REMARK   11  A    between atoms: C_26  and  C_28
REMARK   12  A    between atoms: C_31  and  C_32
REMARK                            x       y       z     vdW  Elec       q    Type
REMARK                         _______ _______ _______ _____ _____    ______ ____
ROOT
ATOM      1  C   UNL     1      -0.776  12.712  20.852  0.00  0.00    +0.000 C 
ENDROOT
BRANCH   1   2
ATOM      2  C   UNL     1      -1.781  12.104  19.809  0.00  0.00    +0.000 A 
ATOM      3  N   UNL     1      -3.028  12.397  20.072  0.00  0.00    +0.000 NA
ATOM      4  C   UNL     1      -3.928  12.040  19.142  0.00  0.00    +0.000 A 
ATOM      5  S   UNL     1      -5.599  12.299  19.361  0.00  0.00    +0.000 S 
ATOM      6  C   UNL     1      -5.953  11.721  17.790  0.00  0.00    +0.000 A 
ATOM      7  C   UNL     1      -4.814  11.337  17.114  0.00  0.00    +0.000 A 
ATOM      8  C   UNL     1      -3.644  11.497  17.912  0.00  0.00    +0.000 A 
ATOM      9  C   UNL     1      -2.262  11.214  17.600  0.00  0.00    +0.000 A 
ATOM     10  O   UNL     1      -1.932  10.855  16.470  0.00  0.00    +0.000 OA
ATOM     11  N   UNL     1      -1.359  11.448  18.644  0.00  0.00    +0.000 N 
BRANCH  11  12
ATOM     12  C   UNL     1       0.038  11.147  18.325  0.00  0.00    +0.000 C 
BRANCH  12  13
ATOM     13  C   UNL     1       0.633   9.851  18.853  0.00  0.00    +0.000 A 
ATOM     14  C   UNL     1       1.426   9.081  17.983  0.00  0.00    +0.000 A 
ATOM     15  C   UNL     1       2.145   7.977  18.442  0.00  0.00    +0.000 A 
ATOM     16  C   UNL     1       2.085   7.618  19.786  0.00  0.00    +0.000 A 
ATOM     17  C   UNL     1       1.271   8.342  20.654  0.00  0.00    +0.000 A 
ATOM     18  C   UNL     1       0.544   9.442  20.195  0.00  0.00    +0.000 A 
ENDBRANCH  12  13
ENDBRANCH  11  12
ENDBRANCH   1   2
BRANCH   1  19
ATOM     19  N   UNL     1       0.169  13.753  20.329  0.00  0.00    +0.000 N 
ATOM     20  C   UNL     1       1.531  13.506  20.702  0.00  0.00    +0.000 C 
ATOM     21  O   UNL     1       1.836  12.507  21.361  0.00  0.00    +0.000 OA
BRANCH  20  22
ATOM     22  C   UNL     1       2.686  14.380  20.301  0.00  0.00    +0.000 A 
ATOM     23  C   UNL     1       3.123  14.281  18.967  0.00  0.00    +0.000 A 
ATOM     24  C   UNL     1       4.126  15.115  18.463  0.00  0.00    +0.000 A 
ATOM     25  C   UNL     1       4.729  16.066  19.287  0.00  0.00    +0.000 A 
ATOM     26  C   UNL     1       5.786  16.990  18.760  0.00  0.00    +0.000 C 
ATOM     27  C   UNL     1       4.311  16.166  20.618  0.00  0.00    +0.000 A 
ATOM     28  C   UNL     1       3.273  15.359  21.107  0.00  0.00    +0.000 A 
ENDBRANCH  20  22
BRANCH  19  29
ATOM     29  C   UNL     1      -0.220  15.169  20.142  0.00  0.00    +0.000 C 
BRANCH  29  30
ATOM     30  C   UNL     1      -0.382  15.729  18.741  0.00  0.00    +0.000 C 
BRANCH  30  31
ATOM     31  C   UNL     1      -0.133  17.229  18.653  0.00  0.00    +0.000 C 
BRANCH  31  32
ATOM     32  N   UNL     1       1.294  17.461  18.857  0.00  0.00    +0.000 NA
ATOM     33  H   UNL     1       1.838  16.661  18.535  0.00  0.00    +0.000 HD
ATOM     34  H   UNL     1       1.494  17.558  19.854  0.00  0.00    +0.000 HD
ENDBRANCH  31  32
ENDBRANCH  30  31
ENDBRANCH  29  30
ENDBRANCH  19  29
ENDBRANCH   1  19
BRANCH   1  36
ATOM     35  C   UNL     1      -1.630  11.814  23.196  0.00  0.00    +0.000 C 
ATOM     36  C   UNL     1      -1.651  12.905  22.135  0.00  0.00    +0.000 C 
ENDBRANCH   1  36
TORSDOF 10
ENDMDL
MODEL 8
REMARK VINA RESULT:      -6.2      2.829      4.375
REMARK  Name = 
REMARK  12 active torsions:
REMARK  status: ('A' for Active; 'I' for Inactive)
REMARK    1  A    between atoms: C_1  and  C_2
REMARK    2  A    between atoms: C_2  and  C_3
REMARK    3  A    between atoms: C_3  and  C_4
REMARK    4  A    between atoms: C_3  and  N_21
REMARK    5  A    between atoms: N_13  and  C_14
REMARK    6  A    between atoms: C_14  and  C_15
REMARK    7  A    between atoms: N_21  and  C_22
REMARK    8  A    between atoms: C_22  and  C_23
REMARK    9  A    between atoms: C_23  and  C_24
REMARK   10  A    between atoms: C_24  and  N_25
REMARK   11  A    between atoms: C_26  and  C_28
REMARK   12  A    between atoms: C_31  and  C_32
REMARK                            x       y       z     vdW  Elec       q    Type
REMARK                         _______ _______ _______ _____ _____    ______ ____
ROOT
ATOM      1  C   UNL     1       1.609  10.467  19.095  0.00  0.00    +0.000 C 
ENDROOT
BRANCH   1   2
ATOM      2  C   UNL     1       0.132  10.964  18.899  0.00  0.00    +0.000 A 
ATOM      3  N   UNL     1      -0.470  10.393  17.888  0.00  0.00    +0.000 NA
ATOM      4  C   UNL     1      -1.779  10.655  17.753  0.00  0.00    +0.000 A 
ATOM      5  S   UNL     1      -2.692  10.034  16.454  0.00  0.00    +0.000 S 
ATOM      6  C   UNL     1      -4.141  10.694  17.081  0.00  0.00    +0.000 A 
ATOM      7  C   UNL     1      -3.927  11.377  18.260  0.00  0.00    +0.000 A 
ATOM      8  C   UNL     1      -2.551  11.376  18.631  0.00  0.00    +0.000 A 
ATOM      9  C   UNL     1      -1.899  11.971  19.776  0.00  0.00    +0.000 A 
ATOM     10  O   UNL     1      -2.556  12.511  20.665  0.00  0.00    +0.000 OA
ATOM     11  N   UNL     1      -0.508  11.816  19.811  0.00  0.00    +0.000 N 
BRANCH  11  12
ATOM     12  C   UNL     1       0.148  12.432  20.967  0.00  0.00    +0.000 C 
BRANCH  12  13
ATOM     13  C   UNL     1       0.816  13.785  20.776  0.00  0.00    +0.000 A 
ATOM     14  C   UNL     1       2.123  13.955  21.270  0.00  0.00    +0.000 A 
ATOM     15  C   UNL     1       2.864  15.102  20.982  0.00  0.00    +0.000 A 
ATOM     16  C   UNL     1       2.310  16.107  20.193  0.00  0.00    +0.000 A 
ATOM     17  C   UNL     1       1.002  15.976  19.732  0.00  0.00    +0.000 A 
ATOM     18  C   UNL     1       0.256  14.833  20.026  0.00  0.00    +0.000 A 
ENDBRANCH  12  13
ENDBRANCH  11  12
ENDBRANCH   1   2
BRANCH   1  19
ATOM     19  N   UNL     1       1.776   9.022  19.459  0.00  0.00    +0.000 N 
ATOM     20  C   UNL     1       2.185   8.212  18.348  0.00  0.00    +0.000 C 
ATOM     21  O   UNL     1       2.391   8.716  17.239  0.00  0.00    +0.000 OA
BRANCH  20  22
ATOM     22  C   UNL     1       2.443   6.734  18.431  0.00  0.00    +0.000 A 
ATOM     23  C   UNL     1       3.518   6.322  19.242  0.00  0.00    +0.000 A 
ATOM     24  C   UNL     1       3.787   4.968  19.466  0.00  0.00    +0.000 A 
ATOM     25  C   UNL     1       2.991   3.987  18.873  0.00  0.00    +0.000 A 
ATOM     26  C   UNL     1       3.244   2.530  19.123  0.00  0.00    +0.000 C 
ATOM     27  C   UNL     1       1.927   4.385  18.057  0.00  0.00    +0.000 A 
ATOM     28  C   UNL     1       1.633   5.743  17.872  0.00  0.00    +0.000 A 
ENDBRANCH  20  22
BRANCH  19  29
ATOM     29  C   UNL     1       0.961   8.355  20.498  0.00  0.00    +0.000 C 
BRANCH  29  30
ATOM     30  C   UNL     1       1.062   8.807  21.943  0.00  0.00    +0.000 C 
BRANCH  30  31
ATOM     31  C   UNL     1      -0.278   9.199  22.553  0.00  0.00    +0.000 C 
BRANCH  31  32
ATOM     32  N   UNL     1      -0.028   9.711  23.898  0.00  0.00    +0.000 NA
ATOM     33  H   UNL     1      -0.062   8.956  24.581  0.00  0.00    +0.000 HD
ATOM     34  H   UNL     1      -0.761  10.370  24.163  0.00  0.00    +0.000 HD
ENDBRANCH  31  32
ENDBRANCH  30  31
ENDBRANCH  29  30
ENDBRANCH  19  29
ENDBRANCH   1  19
BRANCH   1  36
ATOM     35  C   UNL     1       2.625  12.661  18.008  0.00  0.00    +0.000 C 
ATOM     36  C   UNL     1       2.386  11.160  17.927  0.00  0.00    +0.000 C 
ENDBRANCH   1  36
TORSDOF 10
ENDMDL
MODEL 9
REMARK VINA RESULT:      -6.1      1.563      1.994
REMARK  Name = 
REMARK  12 active torsions:
REMARK  status: ('A' for Active; 'I' for Inactive)
REMARK    1  A    between atoms: C_1  and  C_2
REMARK    2  A    between atoms: C_2  and  C_3
REMARK    3  A    between atoms: C_3  and  C_4
REMARK    4  A    between atoms: C_3  and  N_21
REMARK    5  A    between atoms: N_13  and  C_14
REMARK    6  A    between atoms: C_14  and  C_15
REMARK    7  A    between atoms: N_21  and  C_22
REMARK    8  A    between atoms: C_22  and  C_23
REMARK    9  A    between atoms: C_23  and  C_24
REMARK   10  A    between atoms: C_24  and  N_25
REMARK   11  A    between atoms: C_26  and  C_28
REMARK   12  A    between atoms: C_31  and  C_32
REMARK                            x       y       z     vdW  Elec       q    Type
REMARK                         _______ _______ _______ _____ _____    ______ ____
ROOT
ATOM      1  C   UNL     1      -0.745  12.526  19.677  0.00  0.00    +0.000 C 
ENDROOT
BRANCH   1   2
ATOM      2  C   UNL     1      -2.026  12.861  20.521  0.00  0.00    +0.000 A 
ATOM      3  N   UNL     1      -3.139  12.579  19.896  0.00  0.00    +0.000 NA
ATOM      4  C   UNL     1      -4.267  12.697  20.613  0.00  0.00    +0.000 A 
ATOM      5  S   UNL     1      -5.803  12.421  19.926  0.00  0.00    +0.000 S 
ATOM      6  C   UNL     1      -6.582  12.644  21.433  0.00  0.00    +0.000 A 
ATOM      7  C   UNL     1      -5.682  12.925  22.440  0.00  0.00    +0.000 A 
ATOM      8  C   UNL     1      -4.343  12.983  21.954  0.00  0.00    +0.000 A 
ATOM      9  C   UNL     1      -3.111  13.251  22.661  0.00  0.00    +0.000 A 
ATOM     10  O   UNL     1      -3.101  13.379  23.884  0.00  0.00    +0.000 OA
ATOM     11  N   UNL     1      -1.963  13.276  21.859  0.00  0.00    +0.000 N 
BRANCH  11  12
ATOM     12  C   UNL     1      -0.720  13.561  22.579  0.00  0.00    +0.000 C 
BRANCH  12  13
ATOM     13  C   UNL     1       0.059  14.811  22.201  0.00  0.00    +0.000 A 
ATOM     14  C   UNL     1      -0.619  16.044  22.208  0.00  0.00    +0.000 A 
ATOM     15  C   UNL     1       0.065  17.250  22.045  0.00  0.00    +0.000 A 
ATOM     16  C   UNL     1       1.446  17.247  21.868  0.00  0.00    +0.000 A 
ATOM     17  C   UNL     1       2.129  16.034  21.814  0.00  0.00    +0.000 A 
ATOM     18  C   UNL     1       1.445  14.826  21.970  0.00  0.00    +0.000 A 
ENDBRANCH  12  13
ENDBRANCH  11  12
ENDBRANCH   1   2
BRANCH   1  19
ATOM     19  N   UNL     1      -0.428  11.069  19.508  0.00  0.00    +0.000 N 
ATOM     20  C   UNL     1       0.971  10.824  19.306  0.00  0.00    +0.000 C 
ATOM     21  O   UNL     1       1.784  11.753  19.311  0.00  0.00    +0.000 OA
BRANCH  20  22
ATOM     22  C   UNL     1       1.569   9.457  19.125  0.00  0.00    +0.000 A 
ATOM     23  C   UNL     1       1.523   8.592  20.235  0.00  0.00    +0.000 A 
ATOM     24  C   UNL     1       1.965   7.268  20.148  0.00  0.00    +0.000 A 
ATOM     25  C   UNL     1       2.475   6.776  18.946  0.00  0.00    +0.000 A 
ATOM     26  C   UNL     1       2.928   5.351  18.823  0.00  0.00    +0.000 C 
ATOM     27  C   UNL     1       2.536   7.630  17.840  0.00  0.00    +0.000 A 
ATOM     28  C   UNL     1       2.050   8.943  17.918  0.00  0.00    +0.000 A 
ENDBRANCH  20  22
BRANCH  19  29
ATOM     29  C   UNL     1      -1.365  10.111  18.881  0.00  0.00    +0.000 C 
BRANCH  29  30
ATOM     30  C   UNL     1      -1.515  10.078  17.372  0.00  0.00    +0.000 C 
BRANCH  30  31
ATOM     31  C   UNL     1      -2.869  10.577  16.883  0.00  0.00    +0.000 C 
BRANCH  31  32
ATOM     32  N   UNL     1      -2.639  11.457  15.741  0.00  0.00    +0.000 NA
ATOM     33  H   UNL     1      -3.322  12.214  15.728  0.00  0.00    +0.000 HD
ATOM     34  H   UNL     1      -2.770  10.940  14.870  0.00  0.00    +0.000 HD
ENDBRANCH  31  32
ENDBRANCH  30  31
ENDBRANCH  29  30
ENDBRANCH  19  29
ENDBRANCH   1  19
BRANCH   1  36
ATOM     35  C   UNL     1      -0.116  14.882  18.636  0.00  0.00    +0.000 C 
ATOM     36  C   UNL     1      -0.816  13.538  18.485  0.00  0.00    +0.000 C 
ENDBRANCH   1  36
TORSDOF 10
ENDMDL
