MODEL 1
REMARK VINA RESULT:      -7.1      0.000      0.000
REMARK  Name = 
REMARK  8 active torsions:
REMARK  status: ('A' for Active; 'I' for Inactive)
REMARK    1  A    between atoms: C_1  and  N_2
REMARK    2  A    between atoms: N_2  and  C_3
REMARK    3  A    between atoms: N_2  and  C_4
REMARK    4  A    between atoms: C_13  and  C_14
REMARK    5  A    between atoms: N_15  and  O_16
REMARK    6  A    between atoms: O_16  and  C_17
REMARK    7  A    between atoms: C_17  and  C_18
REMARK    8  A    between atoms: C_24  and  C_25
REMARK                            x       y       z     vdW  Elec       q    Type
REMARK                         _______ _______ _______ _____ _____    ______ ____
ROOT
ATOM      1  C   UNL     1      -4.462  11.403  17.320  0.00  0.00    +0.000 A 
ATOM      2  C   UNL     1      -4.077  10.699  16.167  0.00  0.00    +0.000 A 
ATOM      3  C   UNL     1      -2.745  10.393  15.934  0.00  0.00    +0.000 A 
ATOM      4  N   UNL     1      -1.754  10.761  16.756  0.00  0.00    +0.000 NA
ATOM      5  C   UNL     1      -2.091  11.392  17.909  0.00  0.00    +0.000 A 
ATOM      6  N   UNL     1      -0.997  11.759  18.765  0.00  0.00    +0.000 N 
ATOM      7  C   UNL     1      -0.937  12.906  19.543  0.00  0.00    +0.000 A 
ATOM      8  C   UNL     1       0.248  12.944  20.228  0.00  0.00    +0.000 A 
ATOM      9  C   UNL     1       1.001  11.849  19.786  0.00  0.00    +0.000 A 
ATOM     10  C   UNL     1       0.244  11.128  18.875  0.00  0.00    +0.000 A 
ATOM     11  C   UNL     1      -3.426  11.704  18.241  0.00  0.00    +0.000 A 
ENDROOT
BRANCH   1  13
ATOM     12  C   UNL     1      -6.681  10.912  18.357  0.00  0.00    +0.000 C 
ATOM     13  N   UNL     1      -5.808  11.738  17.520  0.00  0.00    +0.000 N 
ATOM     14  C   UNL     1      -6.300  13.073  17.194  0.00  0.00    +0.000 C 
ENDBRANCH   1  13
BRANCH  10  15
ATOM     15  C   UNL     1       0.685   9.922  18.219  0.00  0.00    +0.000 C 
ATOM     16  N   UNL     1       1.610   9.165  18.709  0.00  0.00    +0.000 NA
BRANCH  16  17
ATOM     17  O   UNL     1       1.801   8.074  17.844  0.00  0.00    +0.000 OA
BRANCH  17  18
ATOM     18  C   UNL     1       2.847   7.259  18.371  0.00  0.00    +0.000 C 
BRANCH  18  19
ATOM     19  C   UNL     1       2.267   5.947  18.828  0.00  0.00    +0.000 A 
ATOM     20  C   UNL     1       2.016   5.722  20.191  0.00  0.00    +0.000 A 
ATOM     21  C   UNL     1       1.495   4.502  20.622  0.00  0.00    +0.000 A 
ATOM     22  C   UNL     1       1.217   3.497  19.697  0.00  0.00    +0.000 A 
ATOM     23  C   UNL     1       1.454   3.713  18.341  0.00  0.00    +0.000 A 
ATOM     24  C   UNL     1       1.977   4.932  17.908  0.00  0.00    +0.000 A 
ENDBRANCH  18  19
ENDBRANCH  17  18
ENDBRANCH  16  17
ENDBRANCH  10  15
BRANCH  11  25
ATOM     25  C   UNL     1      -3.741  12.169  19.557  0.00  0.00    +0.000 C 
ATOM     26  N   UNL     1      -3.952  12.553  20.640  0.00  0.00    +0.000 NA
ENDBRANCH  11  25
TORSDOF 6
ENDMDL
MODEL 2
REMARK VINA RESULT:      -7.1      0.584      1.091
REMARK  Name = 
REMARK  8 active torsions:
REMARK  status: ('A' for Active; 'I' for Inactive)
REMARK    1  A    between atoms: C_1  and  N_2
REMARK    2  A    between atoms: N_2  and  C_3
REMARK    3  A    between atoms: N_2  and  C_4
REMARK    4  A    between atoms: C_13  and  C_14
REMARK    5  A    between atoms: N_15  and  O_16
REMARK    6  A    between atoms: O_16  and  C_17
REMARK    7  A    between atoms: C_17  and  C_18
REMARK    8  A    between atoms: C_24  and  C_25
REMARK                            x       y       z     vdW  Elec       q    Type
REMARK                         _______ _______ _______ _____ _____    ______ ____
ROOT
ATOM      1  C   UNL     1      -4.113  11.032  17.596  0.00  0.00    +0.000 A 
ATOM      2  C   UNL     1      -3.717  10.081  16.640  0.00  0.00    +0.000 A 
ATOM      3  C   UNL     1      -2.387   9.711  16.516  0.00  0.00    +0.000 A 
ATOM      4  N   UNL     1      -1.406  10.238  17.260  0.00  0.00    +0.000 NA
ATOM      5  C   UNL     1      -1.756  11.117  18.233  0.00  0.00    +0.000 A 
ATOM      6  N   UNL     1      -0.672  11.650  19.013  0.00  0.00    +0.000 N 
ATOM      7  C   UNL     1      -0.606  12.941  19.517  0.00  0.00    +0.000 A 
ATOM      8  C   UNL     1       0.564  13.114  20.206  0.00  0.00    +0.000 A 
ATOM      9  C   UNL     1       1.304  11.936  20.039  0.00  0.00    +0.000 A 
ATOM     10  C   UNL     1       0.552  11.041  19.293  0.00  0.00    +0.000 A 
ATOM     11  C   UNL     1      -3.090  11.516  18.452  0.00  0.00    +0.000 A 
ENDROOT
BRANCH   1  13
ATOM     12  C   UNL     1      -6.392  10.738  18.574  0.00  0.00    +0.000 C 
ATOM     13  N   UNL     1      -5.456  11.423  17.681  0.00  0.00    +0.000 N 
ATOM     14  C   UNL     1      -5.890  12.715  17.157  0.00  0.00    +0.000 C 
ENDBRANCH   1  13
BRANCH  10  15
ATOM     15  C   UNL     1       0.983   9.712  18.936  0.00  0.00    +0.000 C 
ATOM     16  N   UNL     1       1.910   9.494  18.063  0.00  0.00    +0.000 NA
BRANCH  16  17
ATOM     17  O   UNL     1       2.100   8.106  17.948  0.00  0.00    +0.000 OA
BRANCH  17  18
ATOM     18  C   UNL     1       2.363   7.580  19.249  0.00  0.00    +0.000 C 
BRANCH  18  19
ATOM     19  C   UNL     1       2.038   6.110  19.261  0.00  0.00    +0.000 A 
ATOM     20  C   UNL     1       2.023   5.380  18.062  0.00  0.00    +0.000 A 
ATOM     21  C   UNL     1       1.706   4.022  18.065  0.00  0.00    +0.000 A 
ATOM     22  C   UNL     1       1.404   3.379  19.265  0.00  0.00    +0.000 A 
ATOM     23  C   UNL     1       1.424   4.092  20.461  0.00  0.00    +0.000 A 
ATOM     24  C   UNL     1       1.741   5.452  20.460  0.00  0.00    +0.000 A 
ENDBRANCH  18  19
ENDBRANCH  17  18
ENDBRANCH  16  17
ENDBRANCH  10  15
BRANCH  11  25
ATOM     25  C   UNL     1      -3.424  12.268  19.622  0.00  0.00    +0.000 C 
ATOM     26  N   UNL     1      -3.731  12.906  20.553  0.00  0.00    +0.000 NA
ENDBRANCH  11  25
TORSDOF 6
ENDMDL
MODEL 3
REMARK VINA RESULT:      -7.1      1.044      1.698
REMARK  Name = 
REMARK  8 active torsions:
REMARK  status: ('A' for Active; 'I' for Inactive)
REMARK    1  A    between atoms: C_1  and  N_2
REMARK    2  A    between atoms: N_2  and  C_3
REMARK    3  A    between atoms: N_2  and  C_4
REMARK    4  A    between atoms: C_13  and  C_14
REMARK    5  A    between atoms: N_15  and  O_16
REMARK    6  A    between atoms: O_16  and  C_17
REMARK    7  A    between atoms: C_17  and  C_18
REMARK    8  A    between atoms: C_24  and  C_25
REMARK                            x       y       z     vdW  Elec       q    Type
REMARK                         _______ _______ _______ _____ _____    ______ ____
ROOT
ATOM      1  C   UNL     1      -4.392  11.417  17.612  0.00  0.00    +0.000 A 
ATOM      2  C   UNL     1      -4.054  10.614  16.510  0.00  0.00    +0.000 A 
ATOM      3  C   UNL     1      -2.734  10.282  16.252  0.00  0.00    +0.000 A 
ATOM      4  N   UNL     1      -1.709  10.714  16.999  0.00  0.00    +0.000 NA
ATOM      5  C   UNL     1      -1.999  11.443  18.106  0.00  0.00    +0.000 A 
ATOM      6  N   UNL     1      -0.871  11.877  18.883  0.00  0.00    +0.000 N 
ATOM      7  C   UNL     1      -0.778  13.086  19.557  0.00  0.00    +0.000 A 
ATOM      8  C   UNL     1       0.433  13.177  20.189  0.00  0.00    +0.000 A 
ATOM      9  C   UNL     1       1.166  12.044  19.812  0.00  0.00    +0.000 A 
ATOM     10  C   UNL     1       0.372  11.251  18.997  0.00  0.00    +0.000 A 
ATOM     11  C   UNL     1      -3.319  11.790  18.462  0.00  0.00    +0.000 A 
ENDROOT
BRANCH   1  13
ATOM     12  C   UNL     1      -6.306  12.976  17.229  0.00  0.00    +0.000 C 
ATOM     13  N   UNL     1      -5.728  11.775  17.836  0.00  0.00    +0.000 N 
ATOM     14  C   UNL     1      -6.675  10.811  18.389  0.00  0.00    +0.000 C 
ENDBRANCH   1  13
BRANCH  10  15
ATOM     15  C   UNL     1       0.784   9.990  18.431  0.00  0.00    +0.000 C 
ATOM     16  N   UNL     1       1.882   9.856  17.764  0.00  0.00    +0.000 NA
BRANCH  16  17
ATOM     17  O   UNL     1       1.998   8.515  17.357  0.00  0.00    +0.000 OA
BRANCH  17  18
ATOM     18  C   UNL     1       2.560   7.767  18.435  0.00  0.00    +0.000 C 
BRANCH  18  19
ATOM     19  C   UNL     1       3.100   6.466  17.902  0.00  0.00    +0.000 A 
ATOM     20  C   UNL     1       2.336   5.292  17.996  0.00  0.00    +0.000 A 
ATOM     21  C   UNL     1       2.837   4.081  17.519  0.00  0.00    +0.000 A 
ATOM     22  C   UNL     1       4.105   4.031  16.942  0.00  0.00    +0.000 A 
ATOM     23  C   UNL     1       4.869   5.191  16.835  0.00  0.00    +0.000 A 
ATOM     24  C   UNL     1       4.369   6.404  17.312  0.00  0.00    +0.000 A 
ENDBRANCH  18  19
ENDBRANCH  17  18
ENDBRANCH  16  17
ENDBRANCH  10  15
BRANCH  11  25
ATOM     25  C   UNL     1      -3.581  12.368  19.744  0.00  0.00    +0.000 C 
ATOM     26  N   UNL     1      -3.770  12.878  20.779  0.00  0.00    +0.000 NA
ENDBRANCH  11  25
TORSDOF 6
ENDMDL
MODEL 4
REMARK VINA RESULT:      -7.0      0.711      1.045
REMARK  Name = 
REMARK  8 active torsions:
REMARK  status: ('A' for Active; 'I' for Inactive)
REMARK    1  A    between atoms: C_1  and  N_2
REMARK    2  A    between atoms: N_2  and  C_3
REMARK    3  A    between atoms: N_2  and  C_4
REMARK    4  A    between atoms: C_13  and  C_14
REMARK    5  A    between atoms: N_15  and  O_16
REMARK    6  A    between atoms: O_16  and  C_17
REMARK    7  A    between atoms: C_17  and  C_18
REMARK    8  A    between atoms: C_24  and  C_25
REMARK                            x       y       z     vdW  Elec       q    Type
REMARK                         _______ _______ _______ _____ _____    ______ ____
ROOT
ATOM      1  C   UNL     1      -4.184  11.088  17.862  0.00  0.00    +0.000 A 
ATOM      2  C   UNL     1      -3.889  10.106  16.902  0.00  0.00    +0.000 A 
ATOM      3  C   UNL     1      -2.577   9.749  16.631  0.00  0.00    +0.000 A 
ATOM      4  N   UNL     1      -1.523  10.319  17.230  0.00  0.00    +0.000 NA
ATOM      5  C   UNL     1      -1.769  11.231  18.205  0.00  0.00    +0.000 A 
ATOM      6  N   UNL     1      -0.609  11.809  18.827  0.00  0.00    +0.000 N 
ATOM      7  C   UNL     1      -0.507  13.120  19.270  0.00  0.00    +0.000 A 
ATOM      8  C   UNL     1       0.735  13.336  19.805  0.00  0.00    +0.000 A 
ATOM      9  C   UNL     1       1.471  12.163  19.593  0.00  0.00    +0.000 A 
ATOM     10  C   UNL     1       0.651  11.229  18.978  0.00  0.00    +0.000 A 
ATOM     11  C   UNL     1      -3.074  11.620  18.569  0.00  0.00    +0.000 A 
ENDROOT
BRANCH   1  13
ATOM     12  C   UNL     1      -6.170  12.485  17.276  0.00  0.00    +0.000 C 
ATOM     13  N   UNL     1      -5.513  11.464  18.095  0.00  0.00    +0.000 N 
ATOM     14  C   UNL     1      -6.388  10.636  18.920  0.00  0.00    +0.000 C 
ENDBRANCH   1  13
BRANCH  10  15
ATOM     15  C   UNL     1       1.060   9.892  18.622  0.00  0.00    +0.000 C 
ATOM     16  N   UNL     1       1.603   9.084  19.470  0.00  0.00    +0.000 NA
BRANCH  16  17
ATOM     17  O   UNL     1       1.875   7.868  18.818  0.00  0.00    +0.000 OA
BRANCH  17  18
ATOM     18  C   UNL     1       2.407   6.954  19.777  0.00  0.00    +0.000 C 
BRANCH  18  19
ATOM     19  C   UNL     1       1.962   5.558  19.427  0.00  0.00    +0.000 A 
ATOM     20  C   UNL     1       1.430   4.718  20.418  0.00  0.00    +0.000 A 
ATOM     21  C   UNL     1       1.031   3.419  20.103  0.00  0.00    +0.000 A 
ATOM     22  C   UNL     1       1.158   2.948  18.797  0.00  0.00    +0.000 A 
ATOM     23  C   UNL     1       1.677   3.776  17.805  0.00  0.00    +0.000 A 
ATOM     24  C   UNL     1       2.077   5.077  18.117  0.00  0.00    +0.000 A 
ENDBRANCH  18  19
ENDBRANCH  17  18
ENDBRANCH  16  17
ENDBRANCH  10  15
BRANCH  11  25
ATOM     25  C   UNL     1      -3.278  12.413  19.742  0.00  0.00    +0.000 C 
ATOM     26  N   UNL     1      -3.398  13.065  20.704  0.00  0.00    +0.000 NA
ENDBRANCH  11  25
TORSDOF 6
ENDMDL
MODEL 5
REMARK VINA RESULT:      -6.9      1.386      2.104
REMARK  Name = 
REMARK  8 active torsions:
REMARK  status: ('A' for Active; 'I' for Inactive)
REMARK    1  A    between atoms: C_1  and  N_2
REMARK    2  A    between atoms: N_2  and  C_3
REMARK    3  A    between atoms: N_2  and  C_4
REMARK    4  A    between atoms: C_13  and  C_14
REMARK    5  A    between atoms: N_15  and  O_16
REMARK    6  A    between atoms: O_16  and  C_17
REMARK    7  A    between atoms: C_17  and  C_18
REMARK    8  A    between atoms: C_24  and  C_25
REMARK                            x       y       z     vdW  Elec       q    Type
REMARK                         _______ _______ _______ _____ _____    ______ ____
ROOT
ATOM      1  C   UNL     1      -4.260  11.331  18.012  0.00  0.00    +0.000 A 
ATOM      2  C   UNL     1      -4.096  10.363  17.009  0.00  0.00    +0.000 A 
ATOM      3  C   UNL     1      -2.833   9.928  16.640  0.00  0.00    +0.000 A 
ATOM      4  N   UNL     1      -1.706  10.408  17.182  0.00  0.00    +0.000 NA
ATOM      5  C   UNL     1      -1.824  11.304  18.194  0.00  0.00    +0.000 A 
ATOM      6  N   UNL     1      -0.589  11.785  18.752  0.00  0.00    +0.000 N 
ATOM      7  C   UNL     1      -0.369  13.071  19.221  0.00  0.00    +0.000 A 
ATOM      8  C   UNL     1       0.917  13.189  19.676  0.00  0.00    +0.000 A 
ATOM      9  C   UNL     1       1.556  11.977  19.384  0.00  0.00    +0.000 A 
ATOM     10  C   UNL     1       0.636  11.118  18.802  0.00  0.00    +0.000 A 
ATOM     11  C   UNL     1      -3.073  11.767  18.656  0.00  0.00    +0.000 A 
ENDROOT
BRANCH   1  13
ATOM     12  C   UNL     1      -6.182  12.872  17.596  0.00  0.00    +0.000 C 
ATOM     13  N   UNL     1      -5.543  11.787  18.345  0.00  0.00    +0.000 N 
ATOM     14  C   UNL     1      -6.414  10.995  19.207  0.00  0.00    +0.000 C 
ENDBRANCH   1  13
BRANCH  10  15
ATOM     15  C   UNL     1       0.928   9.769  18.384  0.00  0.00    +0.000 C 
ATOM     16  N   UNL     1       1.953   9.477  17.653  0.00  0.00    +0.000 NA
BRANCH  16  17
ATOM     17  O   UNL     1       1.960   8.089  17.428  0.00  0.00    +0.000 OA
BRANCH  17  18
ATOM     18  C   UNL     1       2.851   7.487  18.366  0.00  0.00    +0.000 C 
BRANCH  18  19
ATOM     19  C   UNL     1       3.603   6.372  17.687  0.00  0.00    +0.000 A 
ATOM     20  C   UNL     1       4.689   6.663  16.847  0.00  0.00    +0.000 A 
ATOM     21  C   UNL     1       5.379   5.636  16.202  0.00  0.00    +0.000 A 
ATOM     22  C   UNL     1       4.992   4.310  16.392  0.00  0.00    +0.000 A 
ATOM     23  C   UNL     1       3.921   4.010  17.231  0.00  0.00    +0.000 A 
ATOM     24  C   UNL     1       3.229   5.036  17.877  0.00  0.00    +0.000 A 
ENDBRANCH  18  19
ENDBRANCH  17  18
ENDBRANCH  16  17
ENDBRANCH  10  15
BRANCH  11  25
ATOM     25  C   UNL     1      -3.145  12.536  19.860  0.00  0.00    +0.000 C 
ATOM     26  N   UNL     1      -3.228  13.128  20.865  0.00  0.00    +0.000 NA
ENDBRANCH  11  25
TORSDOF 6
ENDMDL
MODEL 6
REMARK VINA RESULT:      -6.7      4.126      9.269
REMARK  Name = 
REMARK  8 active torsions:
REMARK  status: ('A' for Active; 'I' for Inactive)
REMARK    1  A    between atoms: C_1  and  N_2
REMARK    2  A    between atoms: N_2  and  C_3
REMARK    3  A    between atoms: N_2  and  C_4
REMARK    4  A    between atoms: C_13  and  C_14
REMARK    5  A    between atoms: N_15  and  O_16
REMARK    6  A    between atoms: O_16  and  C_17
REMARK    7  A    between atoms: C_17  and  C_18
REMARK    8  A    between atoms: C_24  and  C_25
REMARK                            x       y       z     vdW  Elec       q    Type
REMARK                         _______ _______ _______ _____ _____    ______ ____
ROOT
ATOM      1  C   UNL     1       4.909   5.454  16.478  0.00  0.00    +0.000 A 
ATOM      2  C   UNL     1       4.790   6.848  16.608  0.00  0.00    +0.000 A 
ATOM      3  C   UNL     1       3.846   7.404  17.457  0.00  0.00    +0.000 A 
ATOM      4  N   UNL     1       2.985   6.672  18.175  0.00  0.00    +0.000 NA
ATOM      5  C   UNL     1       3.106   5.322  18.121  0.00  0.00    +0.000 A 
ATOM      6  N   UNL     1       2.167   4.576  18.915  0.00  0.00    +0.000 N 
ATOM      7  C   UNL     1       1.612   3.355  18.564  0.00  0.00    +0.000 A 
ATOM      8  C   UNL     1       0.755   2.932  19.545  0.00  0.00    +0.000 A 
ATOM      9  C   UNL     1       0.685   3.967  20.487  0.00  0.00    +0.000 A 
ATOM     10  C   UNL     1       1.540   4.985  20.094  0.00  0.00    +0.000 A 
ATOM     11  C   UNL     1       4.066   4.677  17.315  0.00  0.00    +0.000 A 
ENDROOT
BRANCH   1  13
ATOM     12  C   UNL     1       7.205   4.586  16.014  0.00  0.00    +0.000 C 
ATOM     13  N   UNL     1       5.843   4.910  15.586  0.00  0.00    +0.000 N 
ATOM     14  C   UNL     1       5.411   4.336  14.315  0.00  0.00    +0.000 C 
ENDBRANCH   1  13
BRANCH  10  15
ATOM     15  C   UNL     1       1.747   6.208  20.830  0.00  0.00    +0.000 C 
ATOM     16  N   UNL     1       0.860   7.145  20.880  0.00  0.00    +0.000 NA
BRANCH  16  17
ATOM     17  O   UNL     1       1.358   8.191  21.677  0.00  0.00    +0.000 OA
BRANCH  17  18
ATOM     18  C   UNL     1       1.325   9.395  20.911  0.00  0.00    +0.000 C 
BRANCH  18  19
ATOM     19  C   UNL     1       0.221  10.279  21.430  0.00  0.00    +0.000 A 
ATOM     20  C   UNL     1      -0.280  10.093  22.728  0.00  0.00    +0.000 A 
ATOM     21  C   UNL     1      -1.313  10.898  23.208  0.00  0.00    +0.000 A 
ATOM     22  C   UNL     1      -1.854  11.896  22.398  0.00  0.00    +0.000 A 
ATOM     23  C   UNL     1      -1.357  12.094  21.111  0.00  0.00    +0.000 A 
ATOM     24  C   UNL     1      -0.323  11.290  20.629  0.00  0.00    +0.000 A 
ENDBRANCH  18  19
ENDBRANCH  17  18
ENDBRANCH  16  17
ENDBRANCH  10  15
BRANCH  11  25
ATOM     25  C   UNL     1       4.292   3.272  17.463  0.00  0.00    +0.000 C 
ATOM     26  N   UNL     1       4.511   2.134  17.616  0.00  0.00    +0.000 NA
ENDBRANCH  11  25
TORSDOF 6
ENDMDL
MODEL 7
REMARK VINA RESULT:      -6.7      3.749      9.265
REMARK  Name = 
REMARK  8 active torsions:
REMARK  status: ('A' for Active; 'I' for Inactive)
REMARK    1  A    between atoms: C_1  and  N_2
REMARK    2  A    between atoms: N_2  and  C_3
REMARK    3  A    between atoms: N_2  and  C_4
REMARK    4  A    between atoms: C_13  and  C_14
REMARK    5  A    between atoms: N_15  and  O_16
REMARK    6  A    between atoms: O_16  and  C_17
REMARK    7  A    between atoms: C_17  and  C_18
REMARK    8  A    between atoms: C_24  and  C_25
REMARK                            x       y       z     vdW  Elec       q    Type
REMARK                         _______ _______ _______ _____ _____    ______ ____
ROOT
ATOM      1  C   UNL     1       4.957   5.201  16.398  0.00  0.00    +0.000 A 
ATOM      2  C   UNL     1       4.908   6.604  16.436  0.00  0.00    +0.000 A 
ATOM      3  C   UNL     1       4.008   7.261  17.261  0.00  0.00    +0.000 A 
ATOM      4  N   UNL     1       3.126   6.622  18.039  0.00  0.00    +0.000 NA
ATOM      5  C   UNL     1       3.180   5.267  18.073  0.00  0.00    +0.000 A 
ATOM      6  N   UNL     1       2.221   4.622  18.929  0.00  0.00    +0.000 N 
ATOM      7  C   UNL     1       1.601   3.410  18.669  0.00  0.00    +0.000 A 
ATOM      8  C   UNL     1       0.743   3.095  19.688  0.00  0.00    +0.000 A 
ATOM      9  C   UNL     1       0.741   4.191  20.561  0.00  0.00    +0.000 A 
ATOM     10  C   UNL     1       1.637   5.138  20.088  0.00  0.00    +0.000 A 
ATOM     11  C   UNL     1       4.093   4.523  17.297  0.00  0.00    +0.000 A 
ENDROOT
BRANCH   1  13
ATOM     12  C   UNL     1       5.478   4.259  14.144  0.00  0.00    +0.000 C 
ATOM     13  N   UNL     1       5.847   4.554  15.530  0.00  0.00    +0.000 N 
ATOM     14  C   UNL     1       7.266   4.454  15.856  0.00  0.00    +0.000 C 
ENDBRANCH   1  13
BRANCH  10  15
ATOM     15  C   UNL     1       1.917   6.395  20.737  0.00  0.00    +0.000 C 
ATOM     16  N   UNL     1       1.055   7.356  20.787  0.00  0.00    +0.000 NA
BRANCH  16  17
ATOM     17  O   UNL     1       1.625   8.432  21.490  0.00  0.00    +0.000 OA
BRANCH  17  18
ATOM     18  C   UNL     1       0.576   9.311  21.894  0.00  0.00    +0.000 C 
BRANCH  18  19
ATOM     19  C   UNL     1       0.344  10.332  20.811  0.00  0.00    +0.000 A 
ATOM     20  C   UNL     1      -0.658  10.126  19.850  0.00  0.00    +0.000 A 
ATOM     21  C   UNL     1      -0.867  11.059  18.835  0.00  0.00    +0.000 A 
ATOM     22  C   UNL     1      -0.079  12.208  18.772  0.00  0.00    +0.000 A 
ATOM     23  C   UNL     1       0.912  12.427  19.726  0.00  0.00    +0.000 A 
ATOM     24  C   UNL     1       1.123  11.493  20.743  0.00  0.00    +0.000 A 
ENDBRANCH  18  19
ENDBRANCH  17  18
ENDBRANCH  16  17
ENDBRANCH  10  15
BRANCH  11  25
ATOM     25  C   UNL     1       4.254   3.122  17.535  0.00  0.00    +0.000 C 
ATOM     26  N   UNL     1       4.368   1.984  17.773  0.00  0.00    +0.000 NA
ENDBRANCH  11  25
TORSDOF 6
ENDMDL
MODEL 8
REMARK VINA RESULT:      -6.7      1.365      1.967
REMARK  Name = 
REMARK  8 active torsions:
REMARK  status: ('A' for Active; 'I' for Inactive)
REMARK    1  A    between atoms: C_1  and  N_2
REMARK    2  A    between atoms: N_2  and  C_3
REMARK    3  A    between atoms: N_2  and  C_4
REMARK    4  A    between atoms: C_13  and  C_14
REMARK    5  A    between atoms: N_15  and  O_16
REMARK    6  A    between atoms: O_16  and  C_17
REMARK    7  A    between atoms: C_17  and  C_18
REMARK    8  A    between atoms: C_24  and  C_25
REMARK                            x       y       z     vdW  Elec       q    Type
REMARK                         _______ _______ _______ _____ _____    ______ ____
ROOT
ATOM      1  C   UNL     1      -4.065  11.249  18.201  0.00  0.00    +0.000 A 
ATOM      2  C   UNL     1      -3.666  10.236  17.314  0.00  0.00    +0.000 A 
ATOM      3  C   UNL     1      -2.332   9.879  17.197  0.00  0.00    +0.000 A 
ATOM      4  N   UNL     1      -1.350  10.478  17.884  0.00  0.00    +0.000 NA
ATOM      5  C   UNL     1      -1.701  11.422  18.793  0.00  0.00    +0.000 A 
ATOM      6  N   UNL     1      -0.617  12.031  19.514  0.00  0.00    +0.000 N 
ATOM      7  C   UNL     1      -0.567  13.357  19.917  0.00  0.00    +0.000 A 
ATOM      8  C   UNL     1       0.610  13.602  20.572  0.00  0.00    +0.000 A 
ATOM      9  C   UNL     1       1.369  12.427  20.483  0.00  0.00    +0.000 A 
ATOM     10  C   UNL     1       0.623  11.466  19.819  0.00  0.00    +0.000 A 
ATOM     11  C   UNL     1      -3.039  11.814  19.002  0.00  0.00    +0.000 A 
ENDROOT
BRANCH   1  13
ATOM     12  C   UNL     1      -5.954  12.697  17.440  0.00  0.00    +0.000 C 
ATOM     13  N   UNL     1      -5.414  11.624  18.278  0.00  0.00    +0.000 N 
ATOM     14  C   UNL     1      -6.391  10.757  18.928  0.00  0.00    +0.000 C 
ENDBRANCH   1  13
BRANCH  10  15
ATOM     15  C   UNL     1       1.071  10.120  19.557  0.00  0.00    +0.000 C 
ATOM     16  N   UNL     1       1.111   9.212  20.474  0.00  0.00    +0.000 NA
BRANCH  16  17
ATOM     17  O   UNL     1       1.583   8.018  19.900  0.00  0.00    +0.000 OA
BRANCH  17  18
ATOM     18  C   UNL     1       2.113   8.319  18.609  0.00  0.00    +0.000 C 
BRANCH  18  19
ATOM     19  C   UNL     1       2.869   7.122  18.096  0.00  0.00    +0.000 A 
ATOM     20  C   UNL     1       2.441   5.824  18.419  0.00  0.00    +0.000 A 
ATOM     21  C   UNL     1       3.146   4.712  17.960  0.00  0.00    +0.000 A 
ATOM     22  C   UNL     1       4.284   4.884  17.172  0.00  0.00    +0.000 A 
ATOM     23  C   UNL     1       4.712   6.167  16.838  0.00  0.00    +0.000 A 
ATOM     24  C   UNL     1       4.008   7.282  17.297  0.00  0.00    +0.000 A 
ENDBRANCH  18  19
ENDBRANCH  17  18
ENDBRANCH  16  17
ENDBRANCH  10  15
BRANCH  11  25
ATOM     25  C   UNL     1      -3.370  12.647  20.117  0.00  0.00    +0.000 C 
ATOM     26  N   UNL     1      -3.673  13.350  21.000  0.00  0.00    +0.000 NA
ENDBRANCH  11  25
TORSDOF 6
ENDMDL
MODEL 9
REMARK VINA RESULT:      -6.7      3.191      9.211
REMARK  Name = 
REMARK  8 active torsions:
REMARK  status: ('A' for Active; 'I' for Inactive)
REMARK    1  A    between atoms: C_1  and  N_2
REMARK    2  A    between atoms: N_2  and  C_3
REMARK    3  A    between atoms: N_2  and  C_4
REMARK    4  A    between atoms: C_13  and  C_14
REMARK    5  A    between atoms: N_15  and  O_16
REMARK    6  A    between atoms: O_16  and  C_17
REMARK    7  A    between atoms: C_17  and  C_18
REMARK    8  A    between atoms: C_24  and  C_25
REMARK                            x       y       z     vdW  Elec       q    Type
REMARK                         _______ _______ _______ _____ _____    ______ ____
ROOT
ATOM      1  C   UNL     1       5.520   5.470  17.072  0.00  0.00    +0.000 A 
ATOM      2  C   UNL     1       5.284   6.748  16.539  0.00  0.00    +0.000 A 
ATOM      3  C   UNL     1       4.198   7.502  16.958  0.00  0.00    +0.000 A 
ATOM      4  N   UNL     1       3.306   7.066  17.856  0.00  0.00    +0.000 NA
ATOM      5  C   UNL     1       3.531   5.861  18.436  0.00  0.00    +0.000 A 
ATOM      6  N   UNL     1       2.553   5.437  19.401  0.00  0.00    +0.000 N 
ATOM      7  C   UNL     1       2.140   4.129  19.603  0.00  0.00    +0.000 A 
ATOM      8  C   UNL     1       1.195   4.085  20.592  0.00  0.00    +0.000 A 
ATOM      9  C   UNL     1       0.926   5.413  20.948  0.00  0.00    +0.000 A 
ATOM     10  C   UNL     1       1.749   6.247  20.205  0.00  0.00    +0.000 A 
ATOM     11  C   UNL     1       4.634   5.049  18.098  0.00  0.00    +0.000 A 
ENDROOT
BRANCH   1  13
ATOM     12  C   UNL     1       7.793   4.497  17.434  0.00  0.00    +0.000 C 
ATOM     13  N   UNL     1       6.600   4.706  16.610  0.00  0.00    +0.000 N 
ATOM     14  C   UNL     1       6.449   3.824  15.457  0.00  0.00    +0.000 C 
ENDBRANCH   1  13
BRANCH  10  15
ATOM     15  C   UNL     1       1.767   7.685  20.314  0.00  0.00    +0.000 C 
ATOM     16  N   UNL     1       0.796   8.353  20.843  0.00  0.00    +0.000 NA
BRANCH  16  17
ATOM     17  O   UNL     1       1.121   9.720  20.806  0.00  0.00    +0.000 OA
BRANCH  17  18
ATOM     18  C   UNL     1       1.115  10.146  19.444  0.00  0.00    +0.000 C 
BRANCH  18  19
ATOM     19  C   UNL     1      -0.273  10.597  19.074  0.00  0.00    +0.000 A 
ATOM     20  C   UNL     1      -0.913  10.061  17.945  0.00  0.00    +0.000 A 
ATOM     21  C   UNL     1      -2.192  10.487  17.588  0.00  0.00    +0.000 A 
ATOM     22  C   UNL     1      -2.845  11.451  18.356  0.00  0.00    +0.000 A 
ATOM     23  C   UNL     1      -2.223  11.983  19.483  0.00  0.00    +0.000 A 
ATOM     24  C   UNL     1      -0.942  11.558  19.842  0.00  0.00    +0.000 A 
ENDBRANCH  18  19
ENDBRANCH  17  18
ENDBRANCH  16  17
ENDBRANCH  10  15
BRANCH  11  25
ATOM     25  C   UNL     1       4.941   3.899  18.890  0.00  0.00    +0.000 C 
ATOM     26  N   UNL     1       5.182   2.985  19.577  0.00  0.00    +0.000 NA
ENDBRANCH  11  25
TORSDOF 6
ENDMDL
