MODEL 1
REMARK VINA RESULT:      -7.1      0.000      0.000
REMARK  Name = 
REMARK  3 active torsions:
REMARK  status: ('A' for Active; 'I' for Inactive)
REMARK    1  A    between atoms: C_1  and  C_2
REMARK    2  A    between atoms: C_4  and  C_5
REMARK    3  A    between atoms: N_7  and  C_8
REMARK                            x       y       z     vdW  Elec       q    Type
REMARK                         _______ _______ _______ _____ _____    ______ ____
ROOT
ATOM      1  C   UNL     1       5.134   4.381  18.636  0.00  0.00    +0.000 C 
ATOM      2  O   UNL     1       6.253   4.351  19.134  0.00  0.00    +0.000 OA
ATOM      3  N   UNL     1       4.967   4.387  17.259  0.00  0.00    +0.000 N 
ATOM      4  H   UNL     1       4.011   4.317  16.924  0.00  0.00    +0.000 HD
ENDROOT
BRANCH   1   8
ATOM      5  C   UNL     1       1.564   2.568  21.637  0.00  0.00    +0.000 C 
ATOM      6  C   UNL     1       2.341   3.528  20.798  0.00  0.00    +0.000 A 
ATOM      7  N   UNL     1       3.496   3.281  20.205  0.00  0.00    +0.000 NA
ATOM      8  C   UNL     1       3.881   4.387  19.410  0.00  0.00    +0.000 A 
ATOM      9  C   UNL     1       2.958   5.415  19.437  0.00  0.00    +0.000 A 
ATOM     10 BR   UNL     1       2.965   6.989  18.418  0.00  0.00    +0.000 Br
ATOM     11  S   UNL     1       1.694   5.095  20.526  0.00  0.00    +0.000 S 
ENDBRANCH   1   8
BRANCH   3  12
ATOM     12  C   UNL     1       6.104   4.238  16.358  0.00  0.00    +0.000 C 
ATOM     13  C   UNL     1       6.949   5.506  16.172  0.00  0.00    +0.000 C 
ATOM     14  N   UNL     1       7.469   5.390  14.839  0.00  0.00    +0.000 N 
ATOM     15  C   UNL     1       6.762   4.491  14.075  0.00  0.00    +0.000 C 
ATOM     16  O   UNL     1       6.944   4.291  12.885  0.00  0.00    +0.000 OA
ATOM     17  C   UNL     1       5.698   3.859  14.929  0.00  0.00    +0.000 C 
ATOM     18  H   UNL     1       8.171   5.988  14.421  0.00  0.00    +0.000 HD
ENDBRANCH   3  12
TORSDOF 2
ENDMDL
MODEL 2
REMARK VINA RESULT:      -6.5      1.739      2.094
REMARK  Name = 
REMARK  3 active torsions:
REMARK  status: ('A' for Active; 'I' for Inactive)
REMARK    1  A    between atoms: C_1  and  C_2
REMARK    2  A    between atoms: C_4  and  C_5
REMARK    3  A    between atoms: N_7  and  C_8
REMARK                            x       y       z     vdW  Elec       q    Type
REMARK                         _______ _______ _______ _____ _____    ______ ____
ROOT
ATOM      1  C   UNL     1       4.758   4.483  18.595  0.00  0.00    +0.000 C 
ATOM      2  O   UNL     1       5.687   3.875  19.116  0.00  0.00    +0.000 OA
ATOM      3  N   UNL     1       4.820   4.877  17.268  0.00  0.00    +0.000 N 
ATOM      4  H   UNL     1       3.976   5.290  16.883  0.00  0.00    +0.000 HD
ENDROOT
BRANCH   1   8
ATOM      5  C   UNL     1       1.432   7.414  20.916  0.00  0.00    +0.000 C 
ATOM      6  C   UNL     1       2.037   6.209  20.275  0.00  0.00    +0.000 A 
ATOM      7  N   UNL     1       3.217   6.156  19.680  0.00  0.00    +0.000 NA
ATOM      8  C   UNL     1       3.503   4.828  19.284  0.00  0.00    +0.000 A 
ATOM      9  C   UNL     1       2.507   3.937  19.635  0.00  0.00    +0.000 A 
ATOM     10 BR   UNL     1       2.529   2.069  19.465  0.00  0.00    +0.000 Br
ATOM     11  S   UNL     1       1.170   4.728  20.322  0.00  0.00    +0.000 S 
ENDBRANCH   1   8
BRANCH   3  12
ATOM     12  C   UNL     1       5.934   4.482  16.412  0.00  0.00    +0.000 C 
ATOM     13  C   UNL     1       7.013   5.556  16.224  0.00  0.00    +0.000 C 
ATOM     14  N   UNL     1       7.542   5.299  14.914  0.00  0.00    +0.000 N 
ATOM     15  C   UNL     1       6.698   4.530  14.148  0.00  0.00    +0.000 C 
ATOM     16  O   UNL     1       6.873   4.260  12.971  0.00  0.00    +0.000 OA
ATOM     17  C   UNL     1       5.505   4.142  14.979  0.00  0.00    +0.000 C 
ATOM     18  H   UNL     1       8.359   5.737  14.506  0.00  0.00    +0.000 HD
ENDBRANCH   3  12
TORSDOF 2
ENDMDL
MODEL 3
REMARK VINA RESULT:      -6.3      3.142      6.424
REMARK  Name = 
REMARK  3 active torsions:
REMARK  status: ('A' for Active; 'I' for Inactive)
REMARK    1  A    between atoms: C_1  and  C_2
REMARK    2  A    between atoms: C_4  and  C_5
REMARK    3  A    between atoms: N_7  and  C_8
REMARK                            x       y       z     vdW  Elec       q    Type
REMARK                         _______ _______ _______ _____ _____    ______ ____
ROOT
ATOM      1  C   UNL     1       4.211   3.933  18.028  0.00  0.00    +0.000 C 
ATOM      2  O   UNL     1       3.656   4.792  18.703  0.00  0.00    +0.000 OA
ATOM      3  N   UNL     1       3.925   2.589  18.210  0.00  0.00    +0.000 N 
ATOM      4  H   UNL     1       4.353   1.946  17.550  0.00  0.00    +0.000 HD
ENDROOT
BRANCH   1   8
ATOM      5  C   UNL     1       6.184   3.824  13.430  0.00  0.00    +0.000 C 
ATOM      6  C   UNL     1       5.994   4.169  14.870  0.00  0.00    +0.000 A 
ATOM      7  N   UNL     1       4.980   3.795  15.631  0.00  0.00    +0.000 NA
ATOM      8  C   UNL     1       5.190   4.218  16.964  0.00  0.00    +0.000 A 
ATOM      9  C   UNL     1       6.390   4.882  17.135  0.00  0.00    +0.000 A 
ATOM     10 BR   UNL     1       7.157   5.470  18.742  0.00  0.00    +0.000 Br
ATOM     11  S   UNL     1       7.197   5.108  15.657  0.00  0.00    +0.000 S 
ENDBRANCH   1   8
BRANCH   3  12
ATOM     12  C   UNL     1       2.873   2.155  19.122  0.00  0.00    +0.000 C 
ATOM     13  C   UNL     1       1.495   2.776  18.856  0.00  0.00    +0.000 C 
ATOM     14  N   UNL     1       0.876   2.827  20.150  0.00  0.00    +0.000 N 
ATOM     15  C   UNL     1       1.788   2.724  21.174  0.00  0.00    +0.000 C 
ATOM     16  O   UNL     1       1.523   2.841  22.360  0.00  0.00    +0.000 OA
ATOM     17  C   UNL     1       3.156   2.514  20.586  0.00  0.00    +0.000 C 
ATOM     18  H   UNL     1      -0.091   3.063  20.338  0.00  0.00    +0.000 HD
ENDBRANCH   3  12
TORSDOF 2
ENDMDL
MODEL 4
REMARK VINA RESULT:      -6.1      3.130      6.445
REMARK  Name = 
REMARK  3 active torsions:
REMARK  status: ('A' for Active; 'I' for Inactive)
REMARK    1  A    between atoms: C_1  and  C_2
REMARK    2  A    between atoms: C_4  and  C_5
REMARK    3  A    between atoms: N_7  and  C_8
REMARK                            x       y       z     vdW  Elec       q    Type
REMARK                         _______ _______ _______ _____ _____    ______ ____
ROOT
ATOM      1  C   UNL     1       4.092   5.090  17.465  0.00  0.00    +0.000 C 
ATOM      2  O   UNL     1       3.457   6.126  17.620  0.00  0.00    +0.000 OA
ATOM      3  N   UNL     1       3.837   3.974  18.247  0.00  0.00    +0.000 N 
ATOM      4  H   UNL     1       4.337   3.127  17.996  0.00  0.00    +0.000 HD
ENDROOT
BRANCH   1   8
ATOM      5  C   UNL     1       6.098   3.634  13.118  0.00  0.00    +0.000 C 
ATOM      6  C   UNL     1       5.967   4.269  14.463  0.00  0.00    +0.000 A 
ATOM      7  N   UNL     1       4.866   4.324  15.192  0.00  0.00    +0.000 NA
ATOM      8  C   UNL     1       5.145   4.906  16.451  0.00  0.00    +0.000 A 
ATOM      9  C   UNL     1       6.476   5.242  16.605  0.00  0.00    +0.000 A 
ATOM     10 BR   UNL     1       7.327   5.878  18.151  0.00  0.00    +0.000 Br
ATOM     11  S   UNL     1       7.360   4.974  15.179  0.00  0.00    +0.000 S 
ENDBRANCH   1   8
BRANCH   3  12
ATOM     12  C   UNL     1       2.729   3.951  19.195  0.00  0.00    +0.000 C 
ATOM     13  C   UNL     1       2.819   4.995  20.316  0.00  0.00    +0.000 C 
ATOM     14  N   UNL     1       2.148   4.379  21.426  0.00  0.00    +0.000 N 
ATOM     15  C   UNL     1       2.035   3.016  21.283  0.00  0.00    +0.000 C 
ATOM     16  O   UNL     1       1.597   2.258  22.132  0.00  0.00    +0.000 OA
ATOM     17  C   UNL     1       2.602   2.620  19.947  0.00  0.00    +0.000 C 
ATOM     18  H   UNL     1       1.906   4.832  22.299  0.00  0.00    +0.000 HD
ENDBRANCH   3  12
TORSDOF 2
ENDMDL
MODEL 5
REMARK VINA RESULT:      -6.1      3.088      6.310
REMARK  Name = 
REMARK  3 active torsions:
REMARK  status: ('A' for Active; 'I' for Inactive)
REMARK    1  A    between atoms: C_1  and  C_2
REMARK    2  A    between atoms: C_4  and  C_5
REMARK    3  A    between atoms: N_7  and  C_8
REMARK                            x       y       z     vdW  Elec       q    Type
REMARK                         _______ _______ _______ _____ _____    ______ ____
ROOT
ATOM      1  C   UNL     1       4.636   3.984  18.278  0.00  0.00    +0.000 C 
ATOM      2  O   UNL     1       5.072   3.673  19.380  0.00  0.00    +0.000 OA
ATOM      3  N   UNL     1       3.274   4.143  18.069  0.00  0.00    +0.000 N 
ATOM      4  H   UNL     1       2.999   4.494  17.157  0.00  0.00    +0.000 HD
ENDROOT
BRANCH   1   8
ATOM      5  C   UNL     1       6.066   3.707  13.490  0.00  0.00    +0.000 C 
ATOM      6  C   UNL     1       6.034   4.116  14.926  0.00  0.00    +0.000 A 
ATOM      7  N   UNL     1       5.126   3.752  15.816  0.00  0.00    +0.000 NA
ATOM      8  C   UNL     1       5.476   4.243  17.096  0.00  0.00    +0.000 A 
ATOM      9  C   UNL     1       6.667   4.945  17.095  0.00  0.00    +0.000 A 
ATOM     10 BR   UNL     1       7.596   5.627  18.575  0.00  0.00    +0.000 Br
ATOM     11  S   UNL     1       7.290   5.121  15.525  0.00  0.00    +0.000 S 
ENDBRANCH   1   8
BRANCH   3  12
ATOM     12  C   UNL     1       2.325   4.064  19.174  0.00  0.00    +0.000 C 
ATOM     13  C   UNL     1       2.590   5.047  20.322  0.00  0.00    +0.000 C 
ATOM     14  N   UNL     1       2.095   4.369  21.487  0.00  0.00    +0.000 N 
ATOM     15  C   UNL     1       1.959   3.015  21.290  0.00  0.00    +0.000 C 
ATOM     16  O   UNL     1       1.654   2.210  22.155  0.00  0.00    +0.000 OA
ATOM     17  C   UNL     1       2.313   2.694  19.864  0.00  0.00    +0.000 C 
ATOM     18  H   UNL     1       1.992   4.773  22.410  0.00  0.00    +0.000 HD
ENDBRANCH   3  12
TORSDOF 2
ENDMDL
MODEL 6
REMARK VINA RESULT:      -6.1      1.077      1.077
REMARK  Name = 
REMARK  3 active torsions:
REMARK  status: ('A' for Active; 'I' for Inactive)
REMARK    1  A    between atoms: C_1  and  C_2
REMARK    2  A    between atoms: C_4  and  C_5
REMARK    3  A    between atoms: N_7  and  C_8
REMARK                            x       y       z     vdW  Elec       q    Type
REMARK                         _______ _______ _______ _____ _____    ______ ____
ROOT
ATOM      1  C   UNL     1       4.259   4.312  17.742  0.00  0.00    +0.000 C 
ATOM      2  O   UNL     1       3.858   4.329  16.584  0.00  0.00    +0.000 OA
ATOM      3  N   UNL     1       5.615   4.257  18.026  0.00  0.00    +0.000 N 
ATOM      4  H   UNL     1       5.872   4.342  19.004  0.00  0.00    +0.000 HD
ENDROOT
BRANCH   1   8
ATOM      5  C   UNL     1       1.770   2.590  21.727  0.00  0.00    +0.000 C 
ATOM      6  C   UNL     1       2.331   3.544  20.725  0.00  0.00    +0.000 A 
ATOM      7  N   UNL     1       3.146   3.235  19.731  0.00  0.00    +0.000 NA
ATOM      8  C   UNL     1       3.383   4.373  18.925  0.00  0.00    +0.000 A 
ATOM      9  C   UNL     1       2.698   5.492  19.360  0.00  0.00    +0.000 A 
ATOM     10 BR   UNL     1       2.578   7.163  18.516  0.00  0.00    +0.000 Br
ATOM     11  S   UNL     1       1.875   5.197  20.816  0.00  0.00    +0.000 S 
ENDBRANCH   1   8
BRANCH   3  12
ATOM     12  C   UNL     1       6.614   4.338  16.965  0.00  0.00    +0.000 C 
ATOM     13  C   UNL     1       7.086   5.759  16.632  0.00  0.00    +0.000 C 
ATOM     14  N   UNL     1       7.423   5.701  15.238  0.00  0.00    +0.000 N 
ATOM     15  C   UNL     1       6.857   4.619  14.605  0.00  0.00    +0.000 C 
ATOM     16  O   UNL     1       6.910   4.406  13.404  0.00  0.00    +0.000 OA
ATOM     17  C   UNL     1       6.113   3.796  15.620  0.00  0.00    +0.000 C 
ATOM     18  H   UNL     1       7.890   6.427  14.709  0.00  0.00    +0.000 HD
ENDBRANCH   3  12
TORSDOF 2
ENDMDL
MODEL 7
REMARK VINA RESULT:      -6.0      2.547      3.235
REMARK  Name = 
REMARK  3 active torsions:
REMARK  status: ('A' for Active; 'I' for Inactive)
REMARK    1  A    between atoms: C_1  and  C_2
REMARK    2  A    between atoms: C_4  and  C_5
REMARK    3  A    between atoms: N_7  and  C_8
REMARK                            x       y       z     vdW  Elec       q    Type
REMARK                         _______ _______ _______ _____ _____    ______ ____
ROOT
ATOM      1  C   UNL     1       3.341   5.352  18.074  0.00  0.00    +0.000 C 
ATOM      2  O   UNL     1       2.820   4.450  17.428  0.00  0.00    +0.000 OA
ATOM      3  N   UNL     1       4.708   5.573  18.016  0.00  0.00    +0.000 N 
ATOM      4  H   UNL     1       5.051   6.395  18.503  0.00  0.00    +0.000 HD
ENDROOT
BRANCH   1   8
ATOM      5  C   UNL     1       1.324   9.715  19.468  0.00  0.00    +0.000 C 
ATOM      6  C   UNL     1       1.680   8.265  19.475  0.00  0.00    +0.000 A 
ATOM      7  N   UNL     1       2.361   7.628  18.539  0.00  0.00    +0.000 NA
ATOM      8  C   UNL     1       2.600   6.291  18.934  0.00  0.00    +0.000 A 
ATOM      9  C   UNL     1       2.090   6.002  20.186  0.00  0.00    +0.000 A 
ATOM     10 BR   UNL     1       2.310   4.425  21.177  0.00  0.00    +0.000 Br
ATOM     11  S   UNL     1       1.210   7.308  20.822  0.00  0.00    +0.000 S 
ENDBRANCH   1   8
BRANCH   3  12
ATOM     12  C   UNL     1       5.558   4.821  17.099  0.00  0.00    +0.000 C 
ATOM     13  C   UNL     1       6.992   4.589  17.593  0.00  0.00    +0.000 C 
ATOM     14  N   UNL     1       7.774   4.533  16.390  0.00  0.00    +0.000 N 
ATOM     15  C   UNL     1       7.124   5.087  15.313  0.00  0.00    +0.000 C 
ATOM     16  O   UNL     1       7.616   5.250  14.208  0.00  0.00    +0.000 OA
ATOM     17  C   UNL     1       5.748   5.515  15.744  0.00  0.00    +0.000 C 
ATOM     18  H   UNL     1       8.749   4.266  16.327  0.00  0.00    +0.000 HD
ENDBRANCH   3  12
TORSDOF 2
ENDMDL
MODEL 8
REMARK VINA RESULT:      -6.0      3.005      6.531
REMARK  Name = 
REMARK  3 active torsions:
REMARK  status: ('A' for Active; 'I' for Inactive)
REMARK    1  A    between atoms: C_1  and  C_2
REMARK    2  A    between atoms: C_4  and  C_5
REMARK    3  A    between atoms: N_7  and  C_8
REMARK                            x       y       z     vdW  Elec       q    Type
REMARK                         _______ _______ _______ _____ _____    ______ ____
ROOT
ATOM      1  C   UNL     1       4.168   3.102  17.480  0.00  0.00    +0.000 C 
ATOM      2  O   UNL     1       4.152   1.877  17.426  0.00  0.00    +0.000 OA
ATOM      3  N   UNL     1       3.217   3.795  18.212  0.00  0.00    +0.000 N 
ATOM      4  H   UNL     1       3.353   4.799  18.286  0.00  0.00    +0.000 HD
ENDROOT
BRANCH   1   8
ATOM      5  C   UNL     1       7.008   4.818  13.734  0.00  0.00    +0.000 C 
ATOM      6  C   UNL     1       6.386   4.700  15.087  0.00  0.00    +0.000 A 
ATOM      7  N   UNL     1       5.446   3.840  15.436  0.00  0.00    +0.000 NA
ATOM      8  C   UNL     1       5.179   3.948  16.821  0.00  0.00    +0.000 A 
ATOM      9  C   UNL     1       5.970   4.890  17.450  0.00  0.00    +0.000 A 
ATOM     10 BR   UNL     1       6.081   5.253  19.286  0.00  0.00    +0.000 Br
ATOM     11  S   UNL     1       6.940   5.735  16.340  0.00  0.00    +0.000 S 
ENDBRANCH   1   8
BRANCH   3  12
ATOM     12  C   UNL     1       2.238   3.095  19.037  0.00  0.00    +0.000 C 
ATOM     13  C   UNL     1       0.943   3.874  19.299  0.00  0.00    +0.000 C 
ATOM     14  N   UNL     1       0.509   3.413  20.588  0.00  0.00    +0.000 N 
ATOM     15  C   UNL     1       1.521   2.810  21.299  0.00  0.00    +0.000 C 
ATOM     16  O   UNL     1       1.431   2.427  22.454  0.00  0.00    +0.000 OA
ATOM     17  C   UNL     1       2.757   2.768  20.443  0.00  0.00    +0.000 C 
ATOM     18  H   UNL     1      -0.380   3.620  21.025  0.00  0.00    +0.000 HD
ENDBRANCH   3  12
TORSDOF 2
ENDMDL
MODEL 9
REMARK VINA RESULT:      -5.9      1.652      1.822
REMARK  Name = 
REMARK  3 active torsions:
REMARK  status: ('A' for Active; 'I' for Inactive)
REMARK    1  A    between atoms: C_1  and  C_2
REMARK    2  A    between atoms: C_4  and  C_5
REMARK    3  A    between atoms: N_7  and  C_8
REMARK                            x       y       z     vdW  Elec       q    Type
REMARK                         _______ _______ _______ _____ _____    ______ ____
ROOT
ATOM      1  C   UNL     1       3.169   3.955  17.382  0.00  0.00    +0.000 C 
ATOM      2  O   UNL     1       2.558   3.357  16.503  0.00  0.00    +0.000 OA
ATOM      3  N   UNL     1       4.400   4.537  17.123  0.00  0.00    +0.000 N 
ATOM      4  H   UNL     1       4.799   5.094  17.873  0.00  0.00    +0.000 HD
ENDROOT
BRANCH   1   8
ATOM      5  C   UNL     1       1.438   2.604  21.879  0.00  0.00    +0.000 C 
ATOM      6  C   UNL     1       1.947   3.463  20.768  0.00  0.00    +0.000 A 
ATOM      7  N   UNL     1       2.370   3.039  19.590  0.00  0.00    +0.000 NA
ATOM      8  C   UNL     1       2.674   4.141  18.757  0.00  0.00    +0.000 A 
ATOM      9  C   UNL     1       2.434   5.358  19.366  0.00  0.00    +0.000 A 
ATOM     10 BR   UNL     1       2.532   7.065  18.596  0.00  0.00    +0.000 Br
ATOM     11  S   UNL     1       1.968   5.166  20.988  0.00  0.00    +0.000 S 
ENDBRANCH   1   8
BRANCH   3  12
ATOM     12  C   UNL     1       4.957   4.565  15.775  0.00  0.00    +0.000 C 
ATOM     13  C   UNL     1       5.638   3.263  15.334  0.00  0.00    +0.000 C 
ATOM     14  N   UNL     1       6.661   3.693  14.421  0.00  0.00    +0.000 N 
ATOM     15  C   UNL     1       6.961   5.028  14.558  0.00  0.00    +0.000 C 
ATOM     16  O   UNL     1       7.861   5.605  13.971  0.00  0.00    +0.000 OA
ATOM     17  C   UNL     1       6.048   5.627  15.593  0.00  0.00    +0.000 C 
ATOM     18  H   UNL     1       7.227   3.090  13.837  0.00  0.00    +0.000 HD
ENDBRANCH   3  12
TORSDOF 2
ENDMDL
