MODEL 1
REMARK VINA RESULT:      -6.6      0.000      0.000
REMARK  Name = 
REMARK  8 active torsions:
REMARK  status: ('A' for Active; 'I' for Inactive)
REMARK    1  A    between atoms: C_1  and  O_2
REMARK    2  A    between atoms: O_2  and  C_3
REMARK    3  A    between atoms: C_3  and  C_5
REMARK    4  A    between atoms: C_7  and  N_8
REMARK    5  A    between atoms: C_9  and  C_11
REMARK    6  A    between atoms: C_13  and  N_14
REMARK    7  A    between atoms: N_18  and  C_19
REMARK    8  A    between atoms: N_21  and  C_22
REMARK                            x       y       z     vdW  Elec       q    Type
REMARK                         _______ _______ _______ _____ _____    ______ ____
ROOT
ATOM      1  N   UNL     1       3.369   7.688  17.977  0.00  0.00    +0.000 N 
ATOM      2  C   UNL     1       3.371   6.323  17.745  0.00  0.00    +0.000 C 
ATOM      3  O   UNL     1       2.441   5.571  18.018  0.00  0.00    +0.000 OA
ATOM      4  H   UNL     1       4.220   8.212  17.839  0.00  0.00    +0.000 HD
ENDROOT
BRANCH   1   7
ATOM      5  C   UNL     1       0.471   9.771  18.659  0.00  0.00    +0.000 A 
ATOM      6  C   UNL     1       1.427   9.290  17.773  0.00  0.00    +0.000 A 
ATOM      7  C   UNL     1       2.281   8.397  18.455  0.00  0.00    +0.000 A 
ATOM      8  C   UNL     1       1.841   8.348  19.759  0.00  0.00    +0.000 A 
ATOM      9  N   UNL     1       0.740   9.166  19.871  0.00  0.00    +0.000 N 
ATOM     10  C   UNL     1      -0.031   9.339  21.086  0.00  0.00    +0.000 C 
BRANCH   5  11
ATOM     11  C   UNL     1      -0.597  10.710  18.391  0.00  0.00    +0.000 C 
ATOM     12  O   UNL     1      -0.769  11.780  18.960  0.00  0.00    +0.000 OA
BRANCH  11  14
ATOM     13  C   UNL     1      -2.712   9.855  17.816  0.00  0.00    +0.000 C 
ATOM     14  O   UNL     1      -1.396  10.214  17.405  0.00  0.00    +0.000 OA
ENDBRANCH  11  14
ENDBRANCH   5  11
ENDBRANCH   1   7
BRANCH   2  15
ATOM     15  C   UNL     1       4.605   5.814  17.150  0.00  0.00    +0.000 A 
ATOM     16  C   UNL     1       4.998   5.777  15.817  0.00  0.00    +0.000 A 
ATOM     17  C   UNL     1       6.260   5.130  15.736  0.00  0.00    +0.000 A 
ATOM     18  C   UNL     1       6.631   4.809  17.024  0.00  0.00    +0.000 A 
ATOM     19  N   UNL     1       5.619   5.193  17.867  0.00  0.00    +0.000 N 
ATOM     20  C   UNL     1       5.632   4.962  19.300  0.00  0.00    +0.000 C 
BRANCH  17  21
ATOM     21  N   UNL     1       7.017   4.841  14.544  0.00  0.00    +0.000 N 
ATOM     22  O   UNL     1       8.002   5.559  14.328  0.00  0.00    +0.000 OA
ATOM     23  O   UNL     1       6.626   3.909  13.832  0.00  0.00    +0.000 OA
ENDBRANCH  17  21
ENDBRANCH   2  15
TORSDOF 5
ENDMDL
MODEL 2
REMARK VINA RESULT:      -6.6      2.212      8.351
REMARK  Name = 
REMARK  8 active torsions:
REMARK  status: ('A' for Active; 'I' for Inactive)
REMARK    1  A    between atoms: C_1  and  O_2
REMARK    2  A    between atoms: O_2  and  C_3
REMARK    3  A    between atoms: C_3  and  C_5
REMARK    4  A    between atoms: C_7  and  N_8
REMARK    5  A    between atoms: C_9  and  C_11
REMARK    6  A    between atoms: C_13  and  N_14
REMARK    7  A    between atoms: N_18  and  C_19
REMARK    8  A    between atoms: N_21  and  C_22
REMARK                            x       y       z     vdW  Elec       q    Type
REMARK                         _______ _______ _______ _____ _____    ______ ____
ROOT
ATOM      1  N   UNL     1       2.325   7.664  19.090  0.00  0.00    +0.000 N 
ATOM      2  C   UNL     1       1.739   8.837  18.646  0.00  0.00    +0.000 C 
ATOM      3  O   UNL     1       1.907   9.317  17.529  0.00  0.00    +0.000 OA
ATOM      4  H   UNL     1       2.235   7.407  20.062  0.00  0.00    +0.000 HD
ENDROOT
BRANCH   1   7
ATOM      5  C   UNL     1       4.681   5.971  16.906  0.00  0.00    +0.000 A 
ATOM      6  C   UNL     1       4.246   7.126  17.542  0.00  0.00    +0.000 A 
ATOM      7  C   UNL     1       3.095   6.828  18.302  0.00  0.00    +0.000 A 
ATOM      8  C   UNL     1       2.833   5.489  18.115  0.00  0.00    +0.000 A 
ATOM      9  N   UNL     1       3.803   4.975  17.285  0.00  0.00    +0.000 N 
ATOM     10  C   UNL     1       3.891   3.582  16.893  0.00  0.00    +0.000 C 
BRANCH   5  11
ATOM     11  C   UNL     1       5.819   5.816  16.024  0.00  0.00    +0.000 C 
ATOM     12  O   UNL     1       5.769   5.641  14.814  0.00  0.00    +0.000 OA
BRANCH  11  14
ATOM     13  C   UNL     1       7.364   4.667  17.376  0.00  0.00    +0.000 C 
ATOM     14  O   UNL     1       6.967   5.885  16.754  0.00  0.00    +0.000 OA
ENDBRANCH  11  14
ENDBRANCH   5  11
ENDBRANCH   1   7
BRANCH   2  15
ATOM     15  C   UNL     1       0.892   9.502  19.634  0.00  0.00    +0.000 A 
ATOM     16  C   UNL     1       1.031   9.576  21.015  0.00  0.00    +0.000 A 
ATOM     17  C   UNL     1      -0.080  10.285  21.544  0.00  0.00    +0.000 A 
ATOM     18  C   UNL     1      -0.864  10.660  20.473  0.00  0.00    +0.000 A 
ATOM     19  N   UNL     1      -0.292  10.159  19.331  0.00  0.00    +0.000 N 
ATOM     20  C   UNL     1      -0.872  10.306  18.009  0.00  0.00    +0.000 C 
BRANCH  17  21
ATOM     21  N   UNL     1      -0.361  10.560  22.930  0.00  0.00    +0.000 N 
ATOM     22  O   UNL     1       0.153   9.798  23.760  0.00  0.00    +0.000 OA
ATOM     23  O   UNL     1      -1.093  11.524  23.183  0.00  0.00    +0.000 OA
ENDBRANCH  17  21
ENDBRANCH   2  15
TORSDOF 5
ENDMDL
MODEL 3
REMARK VINA RESULT:      -6.6      1.397      1.640
REMARK  Name = 
REMARK  8 active torsions:
REMARK  status: ('A' for Active; 'I' for Inactive)
REMARK    1  A    between atoms: C_1  and  O_2
REMARK    2  A    between atoms: O_2  and  C_3
REMARK    3  A    between atoms: C_3  and  C_5
REMARK    4  A    between atoms: C_7  and  N_8
REMARK    5  A    between atoms: C_9  and  C_11
REMARK    6  A    between atoms: C_13  and  N_14
REMARK    7  A    between atoms: N_18  and  C_19
REMARK    8  A    between atoms: N_21  and  C_22
REMARK                            x       y       z     vdW  Elec       q    Type
REMARK                         _______ _______ _______ _____ _____    ______ ____
ROOT
ATOM      1  N   UNL     1       2.767   7.742  18.205  0.00  0.00    +0.000 N 
ATOM      2  C   UNL     1       2.910   6.440  18.654  0.00  0.00    +0.000 C 
ATOM      3  O   UNL     1       2.240   5.938  19.551  0.00  0.00    +0.000 OA
ATOM      4  H   UNL     1       3.441   8.114  17.552  0.00  0.00    +0.000 HD
ENDROOT
BRANCH   1   7
ATOM      5  C   UNL     1       0.116  10.165  18.745  0.00  0.00    +0.000 A 
ATOM      6  C   UNL     1       0.952   9.468  17.883  0.00  0.00    +0.000 A 
ATOM      7  C   UNL     1       1.784   8.614  18.637  0.00  0.00    +0.000 A 
ATOM      8  C   UNL     1       1.452   8.806  19.960  0.00  0.00    +0.000 A 
ATOM      9  N   UNL     1       0.434   9.730  20.017  0.00  0.00    +0.000 N 
ATOM     10  C   UNL     1      -0.216  10.159  21.240  0.00  0.00    +0.000 C 
BRANCH   5  11
ATOM     11  C   UNL     1      -0.891  11.148  18.407  0.00  0.00    +0.000 C 
ATOM     12  O   UNL     1      -0.761  12.363  18.482  0.00  0.00    +0.000 OA
BRANCH  11  14
ATOM     13  C   UNL     1      -2.479  10.867  16.693  0.00  0.00    +0.000 C 
ATOM     14  O   UNL     1      -2.023  10.511  17.994  0.00  0.00    +0.000 OA
ENDBRANCH  11  14
ENDBRANCH   5  11
ENDBRANCH   1   7
BRANCH   2  15
ATOM     15  C   UNL     1       3.962   5.681  17.982  0.00  0.00    +0.000 A 
ATOM     16  C   UNL     1       5.281   6.034  17.718  0.00  0.00    +0.000 A 
ATOM     17  C   UNL     1       5.893   4.982  16.987  0.00  0.00    +0.000 A 
ATOM     18  C   UNL     1       4.947   3.989  16.843  0.00  0.00    +0.000 A 
ATOM     19  N   UNL     1       3.780   4.428  17.415  0.00  0.00    +0.000 N 
ATOM     20  C   UNL     1       2.543   3.668  17.404  0.00  0.00    +0.000 C 
BRANCH  17  21
ATOM     21  N   UNL     1       7.239   4.944  16.472  0.00  0.00    +0.000 N 
ATOM     22  O   UNL     1       8.038   4.209  17.066  0.00  0.00    +0.000 OA
ATOM     23  O   UNL     1       7.492   5.648  15.487  0.00  0.00    +0.000 OA
ENDBRANCH  17  21
ENDBRANCH   2  15
TORSDOF 5
ENDMDL
MODEL 4
REMARK VINA RESULT:      -6.5      0.713      1.392
REMARK  Name = 
REMARK  8 active torsions:
REMARK  status: ('A' for Active; 'I' for Inactive)
REMARK    1  A    between atoms: C_1  and  O_2
REMARK    2  A    between atoms: O_2  and  C_3
REMARK    3  A    between atoms: C_3  and  C_5
REMARK    4  A    between atoms: C_7  and  N_8
REMARK    5  A    between atoms: C_9  and  C_11
REMARK    6  A    between atoms: C_13  and  N_14
REMARK    7  A    between atoms: N_18  and  C_19
REMARK    8  A    between atoms: N_21  and  C_22
REMARK                            x       y       z     vdW  Elec       q    Type
REMARK                         _______ _______ _______ _____ _____    ______ ____
ROOT
ATOM      1  N   UNL     1       3.397   7.513  18.013  0.00  0.00    +0.000 N 
ATOM      2  C   UNL     1       3.327   6.168  17.692  0.00  0.00    +0.000 C 
ATOM      3  O   UNL     1       2.358   5.450  17.921  0.00  0.00    +0.000 OA
ATOM      4  H   UNL     1       4.275   7.999  17.905  0.00  0.00    +0.000 HD
ENDROOT
BRANCH   1   7
ATOM      5  C   UNL     1       0.623   9.705  18.847  0.00  0.00    +0.000 A 
ATOM      6  C   UNL     1       1.555   9.238  17.929  0.00  0.00    +0.000 A 
ATOM      7  C   UNL     1       2.350   8.246  18.541  0.00  0.00    +0.000 A 
ATOM      8  C   UNL     1       1.898   8.122  19.836  0.00  0.00    +0.000 A 
ATOM      9  N   UNL     1       0.846   8.993  20.009  0.00  0.00    +0.000 N 
ATOM     10  C   UNL     1       0.078   9.116  21.232  0.00  0.00    +0.000 C 
BRANCH   5  11
ATOM     11  C   UNL     1      -0.385  10.724  18.651  0.00  0.00    +0.000 C 
ATOM     12  O   UNL     1      -1.591  10.533  18.574  0.00  0.00    +0.000 OA
BRANCH  11  14
ATOM     13  C   UNL     1       0.583  12.538  19.795  0.00  0.00    +0.000 C 
ATOM     14  O   UNL     1       0.218  11.942  18.554  0.00  0.00    +0.000 OA
ENDBRANCH  11  14
ENDBRANCH   5  11
ENDBRANCH   1   7
BRANCH   2  15
ATOM     15  C   UNL     1       4.530   5.634  17.059  0.00  0.00    +0.000 A 
ATOM     16  C   UNL     1       4.982   5.773  15.752  0.00  0.00    +0.000 A 
ATOM     17  C   UNL     1       6.175   5.018  15.602  0.00  0.00    +0.000 A 
ATOM     18  C   UNL     1       6.449   4.452  16.830  0.00  0.00    +0.000 A 
ATOM     19  N   UNL     1       5.441   4.800  17.693  0.00  0.00    +0.000 N 
ATOM     20  C   UNL     1       5.363   4.338  19.067  0.00  0.00    +0.000 C 
BRANCH  17  21
ATOM     21  N   UNL     1       6.957   4.847  14.404  0.00  0.00    +0.000 N 
ATOM     22  O   UNL     1       6.584   3.963  13.622  0.00  0.00    +0.000 OA
ATOM     23  O   UNL     1       7.935   5.589  14.251  0.00  0.00    +0.000 OA
ENDBRANCH  17  21
ENDBRANCH   2  15
TORSDOF 5
ENDMDL
MODEL 5
REMARK VINA RESULT:      -6.5      1.339      7.916
REMARK  Name = 
REMARK  8 active torsions:
REMARK  status: ('A' for Active; 'I' for Inactive)
REMARK    1  A    between atoms: C_1  and  O_2
REMARK    2  A    between atoms: O_2  and  C_3
REMARK    3  A    between atoms: C_3  and  C_5
REMARK    4  A    between atoms: C_7  and  N_8
REMARK    5  A    between atoms: C_9  and  C_11
REMARK    6  A    between atoms: C_13  and  N_14
REMARK    7  A    between atoms: N_18  and  C_19
REMARK    8  A    between atoms: N_21  and  C_22
REMARK                            x       y       z     vdW  Elec       q    Type
REMARK                         _______ _______ _______ _____ _____    ______ ____
ROOT
ATOM      1  N   UNL     1       3.847   7.671  17.630  0.00  0.00    +0.000 N 
ATOM      2  C   UNL     1       2.610   7.263  18.100  0.00  0.00    +0.000 C 
ATOM      3  O   UNL     1       2.207   6.104  18.080  0.00  0.00    +0.000 OA
ATOM      4  H   UNL     1       4.049   8.657  17.568  0.00  0.00    +0.000 HD
ENDROOT
BRANCH   1   7
ATOM      5  C   UNL     1       6.214   5.557  15.862  0.00  0.00    +0.000 A 
ATOM      6  C   UNL     1       5.157   6.458  15.844  0.00  0.00    +0.000 A 
ATOM      7  C   UNL     1       4.829   6.812  17.169  0.00  0.00    +0.000 A 
ATOM      8  C   UNL     1       5.687   6.113  17.989  0.00  0.00    +0.000 A 
ATOM      9  N   UNL     1       6.530   5.371  17.194  0.00  0.00    +0.000 N 
ATOM     10  C   UNL     1       7.605   4.537  17.694  0.00  0.00    +0.000 C 
BRANCH   5  11
ATOM     11  C   UNL     1       6.867   4.929  14.734  0.00  0.00    +0.000 C 
ATOM     12  O   UNL     1       7.877   5.335  14.174  0.00  0.00    +0.000 OA
BRANCH  11  14
ATOM     13  C   UNL     1       6.106   3.560  12.978  0.00  0.00    +0.000 C 
ATOM     14  O   UNL     1       6.177   3.809  14.379  0.00  0.00    +0.000 OA
ENDBRANCH  11  14
ENDBRANCH   5  11
ENDBRANCH   1   7
BRANCH   2  15
ATOM     15  C   UNL     1       1.776   8.344  18.622  0.00  0.00    +0.000 A 
ATOM     16  C   UNL     1       1.269   9.465  17.975  0.00  0.00    +0.000 A 
ATOM     17  C   UNL     1       0.564  10.253  18.922  0.00  0.00    +0.000 A 
ATOM     18  C   UNL     1       0.626   9.585  20.127  0.00  0.00    +0.000 A 
ATOM     19  N   UNL     1       1.382   8.455  19.948  0.00  0.00    +0.000 N 
ATOM     20  C   UNL     1       1.713   7.530  21.017  0.00  0.00    +0.000 C 
BRANCH  17  21
ATOM     21  N   UNL     1      -0.087  11.519  18.694  0.00  0.00    +0.000 N 
ATOM     22  O   UNL     1       0.507  12.527  19.099  0.00  0.00    +0.000 OA
ATOM     23  O   UNL     1      -1.182  11.501  18.120  0.00  0.00    +0.000 OA
ENDBRANCH  17  21
ENDBRANCH   2  15
TORSDOF 5
ENDMDL
MODEL 6
REMARK VINA RESULT:      -6.5      1.494      1.944
REMARK  Name = 
REMARK  8 active torsions:
REMARK  status: ('A' for Active; 'I' for Inactive)
REMARK    1  A    between atoms: C_1  and  O_2
REMARK    2  A    between atoms: O_2  and  C_3
REMARK    3  A    between atoms: C_3  and  C_5
REMARK    4  A    between atoms: C_7  and  N_8
REMARK    5  A    between atoms: C_9  and  C_11
REMARK    6  A    between atoms: C_13  and  N_14
REMARK    7  A    between atoms: N_18  and  C_19
REMARK    8  A    between atoms: N_21  and  C_22
REMARK                            x       y       z     vdW  Elec       q    Type
REMARK                         _______ _______ _______ _____ _____    ______ ____
ROOT
ATOM      1  N   UNL     1       2.836   7.582  18.342  0.00  0.00    +0.000 N 
ATOM      2  C   UNL     1       2.948   6.248  18.694  0.00  0.00    +0.000 C 
ATOM      3  O   UNL     1       2.266   5.697  19.553  0.00  0.00    +0.000 OA
ATOM      4  H   UNL     1       3.519   7.985  17.717  0.00  0.00    +0.000 HD
ENDROOT
BRANCH   1   7
ATOM      5  C   UNL     1       0.277  10.054  19.075  0.00  0.00    +0.000 A 
ATOM      6  C   UNL     1       1.120   9.427  18.167  0.00  0.00    +0.000 A 
ATOM      7  C   UNL     1       1.875   8.444  18.841  0.00  0.00    +0.000 A 
ATOM      8  C   UNL     1       1.490   8.487  20.162  0.00  0.00    +0.000 A 
ATOM      9  N   UNL     1       0.514   9.448  20.293  0.00  0.00    +0.000 N 
ATOM     10  C   UNL     1      -0.173   9.754  21.532  0.00  0.00    +0.000 C 
BRANCH   5  11
ATOM     11  C   UNL     1      -0.666  11.122  18.822  0.00  0.00    +0.000 C 
ATOM     12  O   UNL     1      -1.796  10.989  18.373  0.00  0.00    +0.000 OA
BRANCH  11  14
ATOM     13  C   UNL     1      -0.394  13.395  18.275  0.00  0.00    +0.000 C 
ATOM     14  O   UNL     1      -0.095  12.315  19.154  0.00  0.00    +0.000 OA
ENDBRANCH  11  14
ENDBRANCH   5  11
ENDBRANCH   1   7
BRANCH   2  15
ATOM     15  C   UNL     1       3.981   5.515  17.965  0.00  0.00    +0.000 A 
ATOM     16  C   UNL     1       5.303   5.862  17.711  0.00  0.00    +0.000 A 
ATOM     17  C   UNL     1       5.890   4.848  16.909  0.00  0.00    +0.000 A 
ATOM     18  C   UNL     1       4.926   3.882  16.712  0.00  0.00    +0.000 A 
ATOM     19  N   UNL     1       3.772   4.303  17.322  0.00  0.00    +0.000 N 
ATOM     20  C   UNL     1       2.522   3.567  17.275  0.00  0.00    +0.000 C 
BRANCH  17  21
ATOM     21  N   UNL     1       7.231   4.820  16.380  0.00  0.00    +0.000 N 
ATOM     22  O   UNL     1       7.415   5.415  15.310  0.00  0.00    +0.000 OA
ATOM     23  O   UNL     1       8.086   4.205  17.027  0.00  0.00    +0.000 OA
ENDBRANCH  17  21
ENDBRANCH   2  15
TORSDOF 5
ENDMDL
MODEL 7
REMARK VINA RESULT:      -6.4      1.387      8.019
REMARK  Name = 
REMARK  8 active torsions:
REMARK  status: ('A' for Active; 'I' for Inactive)
REMARK    1  A    between atoms: C_1  and  O_2
REMARK    2  A    between atoms: O_2  and  C_3
REMARK    3  A    between atoms: C_3  and  C_5
REMARK    4  A    between atoms: C_7  and  N_8
REMARK    5  A    between atoms: C_9  and  C_11
REMARK    6  A    between atoms: C_13  and  N_14
REMARK    7  A    between atoms: N_18  and  C_19
REMARK    8  A    between atoms: N_21  and  C_22
REMARK                            x       y       z     vdW  Elec       q    Type
REMARK                         _______ _______ _______ _____ _____    ______ ____
ROOT
ATOM      1  N   UNL     1       3.919   7.673  17.557  0.00  0.00    +0.000 N 
ATOM      2  C   UNL     1       2.692   7.310  18.086  0.00  0.00    +0.000 C 
ATOM      3  O   UNL     1       2.268   6.159  18.129  0.00  0.00    +0.000 OA
ATOM      4  H   UNL     1       4.137   8.653  17.448  0.00  0.00    +0.000 HD
ENDROOT
BRANCH   1   7
ATOM      5  C   UNL     1       6.170   5.430  15.798  0.00  0.00    +0.000 A 
ATOM      6  C   UNL     1       5.121   6.340  15.781  0.00  0.00    +0.000 A 
ATOM      7  C   UNL     1       4.868   6.777  17.098  0.00  0.00    +0.000 A 
ATOM      8  C   UNL     1       5.764   6.120  17.912  0.00  0.00    +0.000 A 
ATOM      9  N   UNL     1       6.557   5.322  17.120  0.00  0.00    +0.000 N 
ATOM     10  C   UNL     1       7.651   4.509  17.612  0.00  0.00    +0.000 C 
BRANCH   5  11
ATOM     11  C   UNL     1       6.757   4.728  14.677  0.00  0.00    +0.000 C 
ATOM     12  O   UNL     1       6.371   3.661  14.218  0.00  0.00    +0.000 OA
BRANCH  11  14
ATOM     13  C   UNL     1       8.021   5.374  12.800  0.00  0.00    +0.000 C 
ATOM     14  O   UNL     1       7.823   5.437  14.209  0.00  0.00    +0.000 OA
ENDBRANCH  11  14
ENDBRANCH   5  11
ENDBRANCH   1   7
BRANCH   2  15
ATOM     15  C   UNL     1       1.898   8.427  18.592  0.00  0.00    +0.000 A 
ATOM     16  C   UNL     1       1.516   9.603  17.958  0.00  0.00    +0.000 A 
ATOM     17  C   UNL     1       0.799  10.405  18.885  0.00  0.00    +0.000 A 
ATOM     18  C   UNL     1       0.727   9.691  20.063  0.00  0.00    +0.000 A 
ATOM     19  N   UNL     1       1.416   8.518  19.891  0.00  0.00    +0.000 N 
ATOM     20  C   UNL     1       1.605   7.534  20.941  0.00  0.00    +0.000 C 
BRANCH  17  21
ATOM     21  N   UNL     1       0.254  11.721  18.664  0.00  0.00    +0.000 N 
ATOM     22  O   UNL     1      -0.945  11.779  18.359  0.00  0.00    +0.000 OA
ATOM     23  O   UNL     1       1.020  12.683  18.789  0.00  0.00    +0.000 OA
ENDBRANCH  17  21
ENDBRANCH   2  15
TORSDOF 5
ENDMDL
MODEL 8
REMARK VINA RESULT:      -6.4      2.073      2.875
REMARK  Name = 
REMARK  8 active torsions:
REMARK  status: ('A' for Active; 'I' for Inactive)
REMARK    1  A    between atoms: C_1  and  O_2
REMARK    2  A    between atoms: O_2  and  C_3
REMARK    3  A    between atoms: C_3  and  C_5
REMARK    4  A    between atoms: C_7  and  N_8
REMARK    5  A    between atoms: C_9  and  C_11
REMARK    6  A    between atoms: C_13  and  N_14
REMARK    7  A    between atoms: N_18  and  C_19
REMARK    8  A    between atoms: N_21  and  C_22
REMARK                            x       y       z     vdW  Elec       q    Type
REMARK                         _______ _______ _______ _____ _____    ______ ____
ROOT
ATOM      1  N   UNL     1       2.937   7.310  18.752  0.00  0.00    +0.000 N 
ATOM      2  C   UNL     1       3.213   6.026  19.191  0.00  0.00    +0.000 C 
ATOM      3  O   UNL     1       2.712   5.509  20.185  0.00  0.00    +0.000 OA
ATOM      4  H   UNL     1       3.485   7.702  18.001  0.00  0.00    +0.000 HD
ENDROOT
BRANCH   1   7
ATOM      5  C   UNL     1       0.591   9.219  20.764  0.00  0.00    +0.000 A 
ATOM      6  C   UNL     1       1.586   8.255  20.665  0.00  0.00    +0.000 A 
ATOM      7  C   UNL     1       1.985   8.140  19.317  0.00  0.00    +0.000 A 
ATOM      8  C   UNL     1       1.219   9.033  18.601  0.00  0.00    +0.000 A 
ATOM      9  N   UNL     1       0.393   9.692  19.482  0.00  0.00    +0.000 N 
ATOM     10  C   UNL     1      -0.531  10.744  19.107  0.00  0.00    +0.000 C 
BRANCH   5  11
ATOM     11  C   UNL     1      -0.108   9.657  21.953  0.00  0.00    +0.000 C 
ATOM     12  O   UNL     1      -0.903   8.991  22.603  0.00  0.00    +0.000 OA
BRANCH  11  14
ATOM     13  C   UNL     1      -0.814  11.786  22.664  0.00  0.00    +0.000 C 
ATOM     14  O   UNL     1       0.250  10.940  22.240  0.00  0.00    +0.000 OA
ENDBRANCH  11  14
ENDBRANCH   5  11
ENDBRANCH   1   7
BRANCH   2  15
ATOM     15  C   UNL     1       4.192   5.307  18.378  0.00  0.00    +0.000 A 
ATOM     16  C   UNL     1       5.561   5.512  18.249  0.00  0.00    +0.000 A 
ATOM     17  C   UNL     1       6.067   4.594  17.292  0.00  0.00    +0.000 A 
ATOM     18  C   UNL     1       5.004   3.821  16.874  0.00  0.00    +0.000 A 
ATOM     19  N   UNL     1       3.875   4.275  17.506  0.00  0.00    +0.000 N 
ATOM     20  C   UNL     1       2.548   3.737  17.268  0.00  0.00    +0.000 C 
BRANCH  17  21
ATOM     21  N   UNL     1       7.425   4.482  16.822  0.00  0.00    +0.000 N 
ATOM     22  O   UNL     1       8.273   4.143  17.657  0.00  0.00    +0.000 OA
ATOM     23  O   UNL     1       7.638   4.737  15.630  0.00  0.00    +0.000 OA
ENDBRANCH  17  21
ENDBRANCH   2  15
TORSDOF 5
ENDMDL
MODEL 9
REMARK VINA RESULT:      -6.4      2.352      8.333
REMARK  Name = 
REMARK  8 active torsions:
REMARK  status: ('A' for Active; 'I' for Inactive)
REMARK    1  A    between atoms: C_1  and  O_2
REMARK    2  A    between atoms: O_2  and  C_3
REMARK    3  A    between atoms: C_3  and  C_5
REMARK    4  A    between atoms: C_7  and  N_8
REMARK    5  A    between atoms: C_9  and  C_11
REMARK    6  A    between atoms: C_13  and  N_14
REMARK    7  A    between atoms: N_18  and  C_19
REMARK    8  A    between atoms: N_21  and  C_22
REMARK                            x       y       z     vdW  Elec       q    Type
REMARK                         _______ _______ _______ _____ _____    ______ ____
ROOT
ATOM      1  N   UNL     1       2.468   6.965  19.501  0.00  0.00    +0.000 N 
ATOM      2  C   UNL     1       1.961   8.133  18.958  0.00  0.00    +0.000 C 
ATOM      3  O   UNL     1       2.166   8.511  17.808  0.00  0.00    +0.000 OA
ATOM      4  H   UNL     1       2.356   6.793  20.489  0.00  0.00    +0.000 HD
ENDROOT
BRANCH   1   7
ATOM      5  C   UNL     1       4.721   4.954  17.482  0.00  0.00    +0.000 A 
ATOM      6  C   UNL     1       4.358   6.182  18.020  0.00  0.00    +0.000 A 
ATOM      7  C   UNL     1       3.186   6.021  18.790  0.00  0.00    +0.000 A 
ATOM      8  C   UNL     1       2.839   4.690  18.706  0.00  0.00    +0.000 A 
ATOM      9  N   UNL     1       3.777   4.050  17.930  0.00  0.00    +0.000 N 
ATOM     10  C   UNL     1       3.776   2.628  17.650  0.00  0.00    +0.000 C 
BRANCH   5  11
ATOM     11  C   UNL     1       5.850   4.656  16.627  0.00  0.00    +0.000 C 
ATOM     12  O   UNL     1       6.992   4.429  17.003  0.00  0.00    +0.000 OA
BRANCH  11  14
ATOM     13  C   UNL     1       6.371   4.115  14.397  0.00  0.00    +0.000 C 
ATOM     14  O   UNL     1       5.448   4.676  15.325  0.00  0.00    +0.000 OA
ENDBRANCH  11  14
ENDBRANCH   5  11
ENDBRANCH   1   7
BRANCH   2  15
ATOM     15  C   UNL     1       1.155   8.929  19.882  0.00  0.00    +0.000 A 
ATOM     16  C   UNL     1       1.119   8.909  21.271  0.00  0.00    +0.000 A 
ATOM     17  C   UNL     1       0.128   9.827  21.711  0.00  0.00    +0.000 A 
ATOM     18  C   UNL     1      -0.404  10.415  20.583  0.00  0.00    +0.000 A 
ATOM     19  N   UNL     1       0.194   9.849  19.486  0.00  0.00    +0.000 N 
ATOM     20  C   UNL     1      -0.156  10.180  18.117  0.00  0.00    +0.000 C 
BRANCH  17  21
ATOM     21  N   UNL     1      -0.271  10.096  23.069  0.00  0.00    +0.000 N 
ATOM     22  O   UNL     1       0.449   9.629  23.960  0.00  0.00    +0.000 OA
ATOM     23  O   UNL     1      -1.298  10.765  23.239  0.00  0.00    +0.000 OA
ENDBRANCH  17  21
ENDBRANCH   2  15
TORSDOF 5
ENDMDL
