MODEL 1
REMARK VINA RESULT:      -7.5      0.000      0.000
REMARK  Name = 
REMARK  14 active torsions:
REMARK  status: ('A' for Active; 'I' for Inactive)
REMARK    1  A    between atoms: C_1  and  C_2
REMARK    2  A    between atoms: C_2  and  C_3
REMARK    3  A    between atoms: C_3  and  C_4
REMARK    4  A    between atoms: C_4  and  C_5
REMARK    5  A    between atoms: C_5  and  C_6
REMARK    6  A    between atoms: C_6  and  O_8
REMARK    7  A    between atoms: O_8  and  C_9
REMARK    8  A    between atoms: C_12  and  C_13
REMARK    9  A    between atoms: C_14  and  C_15
REMARK   10  A    between atoms: C_15  and  O_17
REMARK   11  A    between atoms: C_19  and  C_20
REMARK   12  A    between atoms: C_20  and  C_21
REMARK   13  A    between atoms: C_22  and  C_23
REMARK   14  A    between atoms: C_22  and  C_24
REMARK                            x       y       z     vdW  Elec       q    Type
REMARK                         _______ _______ _______ _____ _____    ______ ____
ROOT
ATOM      1  C   UNL     1       4.634   5.051  18.776  0.00  0.00    +0.000 A 
ATOM      2  C   UNL     1       3.611   5.455  19.643  0.00  0.00    +0.000 A 
ATOM      3  C   UNL     1       2.817   6.554  19.333  0.00  0.00    +0.000 A 
ATOM      4  C   UNL     1       3.011   7.253  18.141  0.00  0.00    +0.000 A 
ATOM      5  C   UNL     1       3.985   6.793  17.239  0.00  0.00    +0.000 A 
ATOM      6  C   UNL     1       4.825   5.698  17.546  0.00  0.00    +0.000 A 
ENDROOT
BRANCH   4   7
ATOM      7  C   UNL     1       2.159   8.421  17.885  0.00  0.00    +0.000 C 
ATOM      8  C   UNL     1       1.461   9.064  18.834  0.00  0.00    +0.000 C 
BRANCH   8   9
ATOM      9  C   UNL     1       0.580  10.181  18.442  0.00  0.00    +0.000 C 
ATOM     10  O   UNL     1      -0.639  10.159  18.495  0.00  0.00    +0.000 OA
BRANCH   9  11
ATOM     11  O   UNL     1       1.280  11.250  18.018  0.00  0.00    +0.000 OA
ATOM     12  H   UNL     1       0.876  12.118  18.196  0.00  0.00    +0.000 HD
ENDBRANCH   9  11
ENDBRANCH   8   9
ENDBRANCH   4   7
BRANCH   1  13
ATOM     13  O   UNL     1       5.392   3.910  19.108  0.00  0.00    +0.000 OA
BRANCH  13  14
ATOM     14  C   UNL     1       4.674   2.762  19.466  0.00  0.00    +0.000 C 
ATOM     15  O   UNL     1       4.789   2.134  20.511  0.00  0.00    +0.000 OA
BRANCH  14  16
ATOM     16  C   UNL     1       3.702   2.410  18.359  0.00  0.00    +0.000 C 
BRANCH  16  17
ATOM     17  C   UNL     1       2.345   1.921  18.885  0.00  0.00    +0.000 C 
BRANCH  17  18
ATOM     18  C   UNL     1       1.201   2.924  18.675  0.00  0.00    +0.000 C 
BRANCH  18  20
ATOM     19  C   UNL     1       1.368   2.817  21.199  0.00  0.00    +0.000 C 
ATOM     20  C   UNL     1       0.654   3.442  20.009  0.00  0.00    +0.000 C 
ENDBRANCH  18  20
ENDBRANCH  17  18
ENDBRANCH  16  17
ENDBRANCH  14  16
ENDBRANCH  13  14
ENDBRANCH   1  13
BRANCH   6  21
ATOM     21  C   UNL     1       5.889   5.302  16.543  0.00  0.00    +0.000 C 
BRANCH  21  22
ATOM     22  C   UNL     1       5.371   4.542  15.347  0.00  0.00    +0.000 C 
ATOM     23  C   UNL     1       6.027   4.385  14.177  0.00  0.00    +0.000 C 
ATOM     24  C   UNL     1       7.367   4.997  13.866  0.00  0.00    +0.000 C 
ATOM     25  C   UNL     1       5.450   3.566  13.050  0.00  0.00    +0.000 C 
ENDBRANCH  21  22
ENDBRANCH   6  21
TORSDOF 11
ENDMDL
MODEL 2
REMARK VINA RESULT:      -7.3      3.803      6.543
REMARK  Name = 
REMARK  14 active torsions:
REMARK  status: ('A' for Active; 'I' for Inactive)
REMARK    1  A    between atoms: C_1  and  C_2
REMARK    2  A    between atoms: C_2  and  C_3
REMARK    3  A    between atoms: C_3  and  C_4
REMARK    4  A    between atoms: C_4  and  C_5
REMARK    5  A    between atoms: C_5  and  C_6
REMARK    6  A    between atoms: C_6  and  O_8
REMARK    7  A    between atoms: O_8  and  C_9
REMARK    8  A    between atoms: C_12  and  C_13
REMARK    9  A    between atoms: C_14  and  C_15
REMARK   10  A    between atoms: C_15  and  O_17
REMARK   11  A    between atoms: C_19  and  C_20
REMARK   12  A    between atoms: C_20  and  C_21
REMARK   13  A    between atoms: C_22  and  C_23
REMARK   14  A    between atoms: C_22  and  C_24
REMARK                            x       y       z     vdW  Elec       q    Type
REMARK                         _______ _______ _______ _____ _____    ______ ____
ROOT
ATOM      1  C   UNL     1       6.188   5.974  16.957  0.00  0.00    +0.000 A 
ATOM      2  C   UNL     1       5.510   6.097  18.177  0.00  0.00    +0.000 A 
ATOM      3  C   UNL     1       4.336   5.387  18.406  0.00  0.00    +0.000 A 
ATOM      4  C   UNL     1       3.831   4.522  17.434  0.00  0.00    +0.000 A 
ATOM      5  C   UNL     1       4.559   4.343  16.246  0.00  0.00    +0.000 A 
ATOM      6  C   UNL     1       5.737   5.076  15.978  0.00  0.00    +0.000 A 
ENDROOT
BRANCH   4   7
ATOM      7  C   UNL     1       2.573   3.824  17.724  0.00  0.00    +0.000 C 
ATOM      8  C   UNL     1       2.084   3.641  18.961  0.00  0.00    +0.000 C 
BRANCH   8   9
ATOM      9  C   UNL     1       0.845   2.857  19.132  0.00  0.00    +0.000 C 
ATOM     10  O   UNL     1       0.380   2.097  18.299  0.00  0.00    +0.000 OA
BRANCH   9  11
ATOM     11  O   UNL     1       0.276   3.071  20.334  0.00  0.00    +0.000 OA
ATOM     12  H   UNL     1       0.041   3.995  20.533  0.00  0.00    +0.000 HD
ENDBRANCH   9  11
ENDBRANCH   8   9
ENDBRANCH   4   7
BRANCH   1  13
ATOM     13  O   UNL     1       7.394   6.681  16.779  0.00  0.00    +0.000 OA
BRANCH  13  14
ATOM     14  C   UNL     1       7.921   7.319  17.909  0.00  0.00    +0.000 C 
ATOM     15  O   UNL     1       8.374   6.768  18.904  0.00  0.00    +0.000 OA
BRANCH  14  16
ATOM     16  C   UNL     1       7.866   8.820  17.712  0.00  0.00    +0.000 C 
BRANCH  16  17
ATOM     17  C   UNL     1       8.837   9.581  18.625  0.00  0.00    +0.000 C 
BRANCH  17  18
ATOM     18  C   UNL     1       9.048  11.047  18.218  0.00  0.00    +0.000 C 
BRANCH  18  20
ATOM     19  C   UNL     1      11.118  12.189  19.126  0.00  0.00    +0.000 C 
ATOM     20  C   UNL     1      10.531  11.361  17.993  0.00  0.00    +0.000 C 
ENDBRANCH  18  20
ENDBRANCH  17  18
ENDBRANCH  16  17
ENDBRANCH  14  16
ENDBRANCH  13  14
ENDBRANCH   1  13
BRANCH   6  21
ATOM     21  C   UNL     1       6.431   4.865  14.647  0.00  0.00    +0.000 C 
BRANCH  21  22
ATOM     22  C   UNL     1       5.790   3.826  13.763  0.00  0.00    +0.000 C 
ATOM     23  C   UNL     1       6.184   3.514  12.510  0.00  0.00    +0.000 C 
ATOM     24  C   UNL     1       7.305   4.202  11.777  0.00  0.00    +0.000 C 
ATOM     25  C   UNL     1       5.510   2.424  11.716  0.00  0.00    +0.000 C 
ENDBRANCH  21  22
ENDBRANCH   6  21
TORSDOF 11
ENDMDL
MODEL 3
REMARK VINA RESULT:      -7.3      1.670      5.443
REMARK  Name = 
REMARK  14 active torsions:
REMARK  status: ('A' for Active; 'I' for Inactive)
REMARK    1  A    between atoms: C_1  and  C_2
REMARK    2  A    between atoms: C_2  and  C_3
REMARK    3  A    between atoms: C_3  and  C_4
REMARK    4  A    between atoms: C_4  and  C_5
REMARK    5  A    between atoms: C_5  and  C_6
REMARK    6  A    between atoms: C_6  and  O_8
REMARK    7  A    between atoms: O_8  and  C_9
REMARK    8  A    between atoms: C_12  and  C_13
REMARK    9  A    between atoms: C_14  and  C_15
REMARK   10  A    between atoms: C_15  and  O_17
REMARK   11  A    between atoms: C_19  and  C_20
REMARK   12  A    between atoms: C_20  and  C_21
REMARK   13  A    between atoms: C_22  and  C_23
REMARK   14  A    between atoms: C_22  and  C_24
REMARK                            x       y       z     vdW  Elec       q    Type
REMARK                         _______ _______ _______ _____ _____    ______ ____
ROOT
ATOM      1  C   UNL     1       4.885   5.225  16.857  0.00  0.00    +0.000 A 
ATOM      2  C   UNL     1       5.029   6.591  16.585  0.00  0.00    +0.000 A 
ATOM      3  C   UNL     1       4.151   7.518  17.138  0.00  0.00    +0.000 A 
ATOM      4  C   UNL     1       3.130   7.101  17.994  0.00  0.00    +0.000 A 
ATOM      5  C   UNL     1       3.041   5.739  18.326  0.00  0.00    +0.000 A 
ATOM      6  C   UNL     1       3.902   4.776  17.753  0.00  0.00    +0.000 A 
ENDROOT
BRANCH   4   7
ATOM      7  C   UNL     1       2.219   8.124  18.523  0.00  0.00    +0.000 C 
ATOM      8  C   UNL     1       1.436   8.901  17.757  0.00  0.00    +0.000 C 
BRANCH   8   9
ATOM      9  C   UNL     1       0.617   9.946  18.400  0.00  0.00    +0.000 C 
ATOM     10  O   UNL     1      -0.496  10.285  18.030  0.00  0.00    +0.000 OA
BRANCH   9  11
ATOM     11  O   UNL     1       1.237  10.490  19.463  0.00  0.00    +0.000 OA
ATOM     12  H   UNL     1       0.667  10.701  20.224  0.00  0.00    +0.000 HD
ENDBRANCH   9  11
ENDBRANCH   8   9
ENDBRANCH   4   7
BRANCH   1  13
ATOM     13  O   UNL     1       5.817   4.323  16.308  0.00  0.00    +0.000 OA
BRANCH  13  14
ATOM     14  C   UNL     1       6.392   4.683  15.082  0.00  0.00    +0.000 C 
ATOM     15  O   UNL     1       7.423   5.326  14.929  0.00  0.00    +0.000 OA
BRANCH  14  16
ATOM     16  C   UNL     1       5.549   4.136  13.949  0.00  0.00    +0.000 C 
BRANCH  16  17
ATOM     17  C   UNL     1       6.383   3.464  12.850  0.00  0.00    +0.000 C 
BRANCH  17  18
ATOM     18  C   UNL     1       5.547   2.936  11.674  0.00  0.00    +0.000 C 
BRANCH  18  20
ATOM     19  C   UNL     1       3.383   3.365  10.432  0.00  0.00    +0.000 C 
ATOM     20  C   UNL     1       4.083   3.373  11.783  0.00  0.00    +0.000 C 
ENDBRANCH  18  20
ENDBRANCH  17  18
ENDBRANCH  16  17
ENDBRANCH  14  16
ENDBRANCH  13  14
ENDBRANCH   1  13
BRANCH   6  21
ATOM     21  C   UNL     1       3.702   3.320  18.121  0.00  0.00    +0.000 C 
BRANCH  21  22
ATOM     22  C   UNL     1       3.257   3.088  19.543  0.00  0.00    +0.000 C 
ATOM     23  C   UNL     1       2.006   2.752  19.925  0.00  0.00    +0.000 C 
ATOM     24  C   UNL     1       0.841   2.608  18.983  0.00  0.00    +0.000 C 
ATOM     25  C   UNL     1       1.663   2.493  21.370  0.00  0.00    +0.000 C 
ENDBRANCH  21  22
ENDBRANCH   6  21
TORSDOF 11
ENDMDL
MODEL 4
REMARK VINA RESULT:      -7.2      2.218      5.906
REMARK  Name = 
REMARK  14 active torsions:
REMARK  status: ('A' for Active; 'I' for Inactive)
REMARK    1  A    between atoms: C_1  and  C_2
REMARK    2  A    between atoms: C_2  and  C_3
REMARK    3  A    between atoms: C_3  and  C_4
REMARK    4  A    between atoms: C_4  and  C_5
REMARK    5  A    between atoms: C_5  and  C_6
REMARK    6  A    between atoms: C_6  and  O_8
REMARK    7  A    between atoms: O_8  and  C_9
REMARK    8  A    between atoms: C_12  and  C_13
REMARK    9  A    between atoms: C_14  and  C_15
REMARK   10  A    between atoms: C_15  and  O_17
REMARK   11  A    between atoms: C_19  and  C_20
REMARK   12  A    between atoms: C_20  and  C_21
REMARK   13  A    between atoms: C_22  and  C_23
REMARK   14  A    between atoms: C_22  and  C_24
REMARK                            x       y       z     vdW  Elec       q    Type
REMARK                         _______ _______ _______ _____ _____    ______ ____
ROOT
ATOM      1  C   UNL     1       3.395   5.832  19.429  0.00  0.00    +0.000 A 
ATOM      2  C   UNL     1       4.533   5.016  19.407  0.00  0.00    +0.000 A 
ATOM      3  C   UNL     1       5.372   5.003  18.297  0.00  0.00    +0.000 A 
ATOM      4  C   UNL     1       5.106   5.825  17.201  0.00  0.00    +0.000 A 
ATOM      5  C   UNL     1       4.009   6.700  17.263  0.00  0.00    +0.000 A 
ATOM      6  C   UNL     1       3.125   6.708  18.366  0.00  0.00    +0.000 A 
ENDROOT
BRANCH   4   7
ATOM      7  C   UNL     1       6.012   5.745  16.048  0.00  0.00    +0.000 C 
ATOM      8  C   UNL     1       5.928   4.810  15.090  0.00  0.00    +0.000 C 
BRANCH   8   9
ATOM      9  C   UNL     1       6.943   4.787  14.019  0.00  0.00    +0.000 C 
ATOM     10  O   UNL     1       7.974   5.441  14.022  0.00  0.00    +0.000 OA
BRANCH   9  11
ATOM     11  O   UNL     1       6.607   3.946  13.024  0.00  0.00    +0.000 OA
ATOM     12  H   UNL     1       5.700   4.038  12.679  0.00  0.00    +0.000 HD
ENDBRANCH   9  11
ENDBRANCH   8   9
ENDBRANCH   4   7
BRANCH   1  13
ATOM     13  O   UNL     1       2.592   5.845  20.587  0.00  0.00    +0.000 OA
BRANCH  13  14
ATOM     14  C   UNL     1       2.060   4.615  20.994  0.00  0.00    +0.000 C 
ATOM     15  O   UNL     1       2.485   3.908  21.900  0.00  0.00    +0.000 OA
BRANCH  14  16
ATOM     16  C   UNL     1       0.847   4.285  20.149  0.00  0.00    +0.000 C 
BRANCH  16  17
ATOM     17  C   UNL     1       1.070   3.079  19.225  0.00  0.00    +0.000 C 
BRANCH  17  18
ATOM     18  C   UNL     1       1.311   3.460  17.757  0.00  0.00    +0.000 C 
BRANCH  18  20
ATOM     19  C   UNL     1       3.180   1.782  18.075  0.00  0.00    +0.000 C 
ATOM     20  C   UNL     1       2.675   2.967  17.264  0.00  0.00    +0.000 C 
ENDBRANCH  18  20
ENDBRANCH  17  18
ENDBRANCH  16  17
ENDBRANCH  14  16
ENDBRANCH  13  14
ENDBRANCH   1  13
BRANCH   6  21
ATOM     21  C   UNL     1       1.933   7.642  18.329  0.00  0.00    +0.000 C 
BRANCH  21  22
ATOM     22  C   UNL     1       2.286   9.107  18.261  0.00  0.00    +0.000 C 
ATOM     23  C   UNL     1       1.403  10.128  18.321  0.00  0.00    +0.000 C 
ATOM     24  C   UNL     1      -0.089   9.954  18.412  0.00  0.00    +0.000 C 
ATOM     25  C   UNL     1       1.854  11.566  18.294  0.00  0.00    +0.000 C 
ENDBRANCH  21  22
ENDBRANCH   6  21
TORSDOF 11
ENDMDL
MODEL 5
REMARK VINA RESULT:      -7.1      0.764      1.020
REMARK  Name = 
REMARK  14 active torsions:
REMARK  status: ('A' for Active; 'I' for Inactive)
REMARK    1  A    between atoms: C_1  and  C_2
REMARK    2  A    between atoms: C_2  and  C_3
REMARK    3  A    between atoms: C_3  and  C_4
REMARK    4  A    between atoms: C_4  and  C_5
REMARK    5  A    between atoms: C_5  and  C_6
REMARK    6  A    between atoms: C_6  and  O_8
REMARK    7  A    between atoms: O_8  and  C_9
REMARK    8  A    between atoms: C_12  and  C_13
REMARK    9  A    between atoms: C_14  and  C_15
REMARK   10  A    between atoms: C_15  and  O_17
REMARK   11  A    between atoms: C_19  and  C_20
REMARK   12  A    between atoms: C_20  and  C_21
REMARK   13  A    between atoms: C_22  and  C_23
REMARK   14  A    between atoms: C_22  and  C_24
REMARK                            x       y       z     vdW  Elec       q    Type
REMARK                         _______ _______ _______ _____ _____    ______ ____
ROOT
ATOM      1  C   UNL     1       4.637   4.677  19.083  0.00  0.00    +0.000 A 
ATOM      2  C   UNL     1       3.612   5.221  19.868  0.00  0.00    +0.000 A 
ATOM      3  C   UNL     1       2.905   6.337  19.432  0.00  0.00    +0.000 A 
ATOM      4  C   UNL     1       3.189   6.914  18.194  0.00  0.00    +0.000 A 
ATOM      5  C   UNL     1       4.162   6.316  17.376  0.00  0.00    +0.000 A 
ATOM      6  C   UNL     1       4.915   5.201  17.811  0.00  0.00    +0.000 A 
ENDROOT
BRANCH   4   7
ATOM      7  C   UNL     1       2.428   8.107  17.803  0.00  0.00    +0.000 C 
ATOM      8  C   UNL     1       1.753   8.883  18.665  0.00  0.00    +0.000 C 
BRANCH   8   9
ATOM      9  C   UNL     1       0.963  10.015  18.144  0.00  0.00    +0.000 C 
ATOM     10  O   UNL     1      -0.226   9.968  17.871  0.00  0.00    +0.000 OA
BRANCH   9  11
ATOM     11  O   UNL     1       1.707  11.128  18.005  0.00  0.00    +0.000 OA
ATOM     12  H   UNL     1       2.527  11.157  18.530  0.00  0.00    +0.000 HD
ENDBRANCH   9  11
ENDBRANCH   8   9
ENDBRANCH   4   7
BRANCH   1  13
ATOM     13  O   UNL     1       5.303   3.524  19.542  0.00  0.00    +0.000 OA
BRANCH  13  14
ATOM     14  C   UNL     1       4.497   2.455  19.955  0.00  0.00    +0.000 C 
ATOM     15  O   UNL     1       4.088   2.256  21.092  0.00  0.00    +0.000 OA
BRANCH  14  16
ATOM     16  C   UNL     1       4.181   1.573  18.765  0.00  0.00    +0.000 C 
BRANCH  16  17
ATOM     17  C   UNL     1       2.852   1.932  18.087  0.00  0.00    +0.000 C 
BRANCH  17  18
ATOM     18  C   UNL     1       1.664   2.014  19.057  0.00  0.00    +0.000 C 
BRANCH  18  20
ATOM     19  C   UNL     1       1.235   3.977  17.516  0.00  0.00    +0.000 C 
ATOM     20  C   UNL     1       0.719   3.163  18.694  0.00  0.00    +0.000 C 
ENDBRANCH  18  20
ENDBRANCH  17  18
ENDBRANCH  16  17
ENDBRANCH  14  16
ENDBRANCH  13  14
ENDBRANCH   1  13
BRANCH   6  21
ATOM     21  C   UNL     1       5.986   4.651  16.891  0.00  0.00    +0.000 C 
BRANCH  21  22
ATOM     22  C   UNL     1       5.469   4.094  15.588  0.00  0.00    +0.000 C 
ATOM     23  C   UNL     1       6.055   4.252  14.382  0.00  0.00    +0.000 C 
ATOM     24  C   UNL     1       7.301   5.063  14.145  0.00  0.00    +0.000 C 
ATOM     25  C   UNL     1       5.490   3.618  13.137  0.00  0.00    +0.000 C 
ENDBRANCH  21  22
ENDBRANCH   6  21
TORSDOF 11
ENDMDL
MODEL 6
REMARK VINA RESULT:      -7.1      3.476      4.228
REMARK  Name = 
REMARK  14 active torsions:
REMARK  status: ('A' for Active; 'I' for Inactive)
REMARK    1  A    between atoms: C_1  and  C_2
REMARK    2  A    between atoms: C_2  and  C_3
REMARK    3  A    between atoms: C_3  and  C_4
REMARK    4  A    between atoms: C_4  and  C_5
REMARK    5  A    between atoms: C_5  and  C_6
REMARK    6  A    between atoms: C_6  and  O_8
REMARK    7  A    between atoms: O_8  and  C_9
REMARK    8  A    between atoms: C_12  and  C_13
REMARK    9  A    between atoms: C_14  and  C_15
REMARK   10  A    between atoms: C_15  and  O_17
REMARK   11  A    between atoms: C_19  and  C_20
REMARK   12  A    between atoms: C_20  and  C_21
REMARK   13  A    between atoms: C_22  and  C_23
REMARK   14  A    between atoms: C_22  and  C_24
REMARK                            x       y       z     vdW  Elec       q    Type
REMARK                         _______ _______ _______ _____ _____    ______ ____
ROOT
ATOM      1  C   UNL     1       5.507   4.239  17.121  0.00  0.00    +0.000 A 
ATOM      2  C   UNL     1       5.899   4.443  18.450  0.00  0.00    +0.000 A 
ATOM      3  C   UNL     1       6.737   5.501  18.784  0.00  0.00    +0.000 A 
ATOM      4  C   UNL     1       7.177   6.391  17.803  0.00  0.00    +0.000 A 
ATOM      5  C   UNL     1       6.716   6.228  16.486  0.00  0.00    +0.000 A 
ATOM      6  C   UNL     1       5.889   5.142  16.118  0.00  0.00    +0.000 A 
ENDROOT
BRANCH   4   7
ATOM      7  C   UNL     1       8.084   7.471  18.214  0.00  0.00    +0.000 C 
ATOM      8  C   UNL     1       7.858   8.772  17.977  0.00  0.00    +0.000 C 
BRANCH   8   9
ATOM      9  C   UNL     1       8.879   9.761  18.373  0.00  0.00    +0.000 C 
ATOM     10  O   UNL     1       9.375  10.588  17.626  0.00  0.00    +0.000 OA
BRANCH   9  11
ATOM     11  O   UNL     1       9.206   9.653  19.675  0.00  0.00    +0.000 OA
ATOM     12  H   UNL     1      10.160   9.647  19.872  0.00  0.00    +0.000 HD
ENDBRANCH   9  11
ENDBRANCH   8   9
ENDBRANCH   4   7
BRANCH   1  13
ATOM     13  O   UNL     1       4.626   3.178  16.830  0.00  0.00    +0.000 OA
BRANCH  13  14
ATOM     14  C   UNL     1       3.713   2.826  17.832  0.00  0.00    +0.000 C 
ATOM     15  O   UNL     1       3.918   2.048  18.756  0.00  0.00    +0.000 OA
BRANCH  14  16
ATOM     16  C   UNL     1       2.414   3.575  17.617  0.00  0.00    +0.000 C 
BRANCH  16  17
ATOM     17  C   UNL     1       1.780   4.065  18.927  0.00  0.00    +0.000 C 
BRANCH  17  18
ATOM     18  C   UNL     1       0.840   3.041  19.580  0.00  0.00    +0.000 C 
BRANCH  18  20
ATOM     19  C   UNL     1       2.286   3.766  21.529  0.00  0.00    +0.000 C 
ATOM     20  C   UNL     1       1.109   2.910  21.083  0.00  0.00    +0.000 C 
ENDBRANCH  18  20
ENDBRANCH  17  18
ENDBRANCH  16  17
ENDBRANCH  14  16
ENDBRANCH  13  14
ENDBRANCH   1  13
BRANCH   6  21
ATOM     21  C   UNL     1       5.482   5.006  14.665  0.00  0.00    +0.000 C 
BRANCH  21  22
ATOM     22  C   UNL     1       6.427   4.187  13.822  0.00  0.00    +0.000 C 
ATOM     23  C   UNL     1       6.108   3.569  12.665  0.00  0.00    +0.000 C 
ATOM     24  C   UNL     1       4.729   3.558  12.061  0.00  0.00    +0.000 C 
ATOM     25  C   UNL     1       7.134   2.809  11.864  0.00  0.00    +0.000 C 
ENDBRANCH  21  22
ENDBRANCH   6  21
TORSDOF 11
ENDMDL
MODEL 7
REMARK VINA RESULT:      -7.0      1.087      1.245
REMARK  Name = 
REMARK  14 active torsions:
REMARK  status: ('A' for Active; 'I' for Inactive)
REMARK    1  A    between atoms: C_1  and  C_2
REMARK    2  A    between atoms: C_2  and  C_3
REMARK    3  A    between atoms: C_3  and  C_4
REMARK    4  A    between atoms: C_4  and  C_5
REMARK    5  A    between atoms: C_5  and  C_6
REMARK    6  A    between atoms: C_6  and  O_8
REMARK    7  A    between atoms: O_8  and  C_9
REMARK    8  A    between atoms: C_12  and  C_13
REMARK    9  A    between atoms: C_14  and  C_15
REMARK   10  A    between atoms: C_15  and  O_17
REMARK   11  A    between atoms: C_19  and  C_20
REMARK   12  A    between atoms: C_20  and  C_21
REMARK   13  A    between atoms: C_22  and  C_23
REMARK   14  A    between atoms: C_22  and  C_24
REMARK                            x       y       z     vdW  Elec       q    Type
REMARK                         _______ _______ _______ _____ _____    ______ ____
ROOT
ATOM      1  C   UNL     1       4.376   5.911  18.595  0.00  0.00    +0.000 A 
ATOM      2  C   UNL     1       3.304   5.993  19.492  0.00  0.00    +0.000 A 
ATOM      3  C   UNL     1       2.358   7.005  19.371  0.00  0.00    +0.000 A 
ATOM      4  C   UNL     1       2.449   7.938  18.337  0.00  0.00    +0.000 A 
ATOM      5  C   UNL     1       3.481   7.802  17.394  0.00  0.00    +0.000 A 
ATOM      6  C   UNL     1       4.471   6.801  17.514  0.00  0.00    +0.000 A 
ENDROOT
BRANCH   4   7
ATOM      7  C   UNL     1       1.436   8.999  18.280  0.00  0.00    +0.000 C 
ATOM      8  C   UNL     1       0.909   9.594  19.361  0.00  0.00    +0.000 C 
BRANCH   8   9
ATOM      9  C   UNL     1      -0.158  10.597  19.179  0.00  0.00    +0.000 C 
ATOM     10  O   UNL     1      -0.758  11.150  20.087  0.00  0.00    +0.000 OA
BRANCH   9  11
ATOM     11  O   UNL     1      -0.399  10.845  17.878  0.00  0.00    +0.000 OA
ATOM     12  H   UNL     1      -0.159  11.736  17.566  0.00  0.00    +0.000 HD
ENDBRANCH   9  11
ENDBRANCH   8   9
ENDBRANCH   4   7
BRANCH   1  13
ATOM     13  O   UNL     1       5.293   4.849  18.729  0.00  0.00    +0.000 OA
BRANCH  13  14
ATOM     14  C   UNL     1       4.749   3.572  18.919  0.00  0.00    +0.000 C 
ATOM     15  O   UNL     1       4.821   2.901  19.941  0.00  0.00    +0.000 OA
BRANCH  14  16
ATOM     16  C   UNL     1       4.030   3.137  17.659  0.00  0.00    +0.000 C 
BRANCH  16  17
ATOM     17  C   UNL     1       2.518   3.396  17.711  0.00  0.00    +0.000 C 
BRANCH  17  18
ATOM     18  C   UNL     1       1.704   2.204  18.234  0.00  0.00    +0.000 C 
BRANCH  18  20
ATOM     19  C   UNL     1       0.786   3.582  20.149  0.00  0.00    +0.000 C 
ATOM     20  C   UNL     1       1.486   2.292  19.748  0.00  0.00    +0.000 C 
ENDBRANCH  18  20
ENDBRANCH  17  18
ENDBRANCH  16  17
ENDBRANCH  14  16
ENDBRANCH  13  14
ENDBRANCH   1  13
BRANCH   6  21
ATOM     21  C   UNL     1       5.583   6.759  16.486  0.00  0.00    +0.000 C 
BRANCH  21  22
ATOM     22  C   UNL     1       5.297   5.889  15.288  0.00  0.00    +0.000 C 
ATOM     23  C   UNL     1       5.953   4.751  14.972  0.00  0.00    +0.000 C 
ATOM     24  C   UNL     1       7.118   4.200  15.750  0.00  0.00    +0.000 C 
ATOM     25  C   UNL     1       5.565   3.919  13.777  0.00  0.00    +0.000 C 
ENDBRANCH  21  22
ENDBRANCH   6  21
TORSDOF 11
ENDMDL
MODEL 8
REMARK VINA RESULT:      -7.0      3.400      4.137
REMARK  Name = 
REMARK  14 active torsions:
REMARK  status: ('A' for Active; 'I' for Inactive)
REMARK    1  A    between atoms: C_1  and  C_2
REMARK    2  A    between atoms: C_2  and  C_3
REMARK    3  A    between atoms: C_3  and  C_4
REMARK    4  A    between atoms: C_4  and  C_5
REMARK    5  A    between atoms: C_5  and  C_6
REMARK    6  A    between atoms: C_6  and  O_8
REMARK    7  A    between atoms: O_8  and  C_9
REMARK    8  A    between atoms: C_12  and  C_13
REMARK    9  A    between atoms: C_14  and  C_15
REMARK   10  A    between atoms: C_15  and  O_17
REMARK   11  A    between atoms: C_19  and  C_20
REMARK   12  A    between atoms: C_20  and  C_21
REMARK   13  A    between atoms: C_22  and  C_23
REMARK   14  A    between atoms: C_22  and  C_24
REMARK                            x       y       z     vdW  Elec       q    Type
REMARK                         _______ _______ _______ _____ _____    ______ ____
ROOT
ATOM      1  C   UNL     1       5.185   4.374  16.925  0.00  0.00    +0.000 A 
ATOM      2  C   UNL     1       4.957   5.115  18.091  0.00  0.00    +0.000 A 
ATOM      3  C   UNL     1       5.835   6.126  18.468  0.00  0.00    +0.000 A 
ATOM      4  C   UNL     1       6.940   6.435  17.674  0.00  0.00    +0.000 A 
ATOM      5  C   UNL     1       7.118   5.742  16.465  0.00  0.00    +0.000 A 
ATOM      6  C   UNL     1       6.258   4.690  16.077  0.00  0.00    +0.000 A 
ENDROOT
BRANCH   4   7
ATOM      7  C   UNL     1       7.845   7.493  18.140  0.00  0.00    +0.000 C 
ATOM      8  C   UNL     1       7.712   8.790  17.819  0.00  0.00    +0.000 C 
BRANCH   8   9
ATOM      9  C   UNL     1       8.728   9.752  18.289  0.00  0.00    +0.000 C 
ATOM     10  O   UNL     1       9.015  10.794  17.723  0.00  0.00    +0.000 OA
BRANCH   9  11
ATOM     11  O   UNL     1       9.311   9.350  19.434  0.00  0.00    +0.000 OA
ATOM     12  H   UNL     1       8.713   8.968  20.102  0.00  0.00    +0.000 HD
ENDBRANCH   9  11
ENDBRANCH   8   9
ENDBRANCH   4   7
BRANCH   1  13
ATOM     13  O   UNL     1       4.253   3.383  16.558  0.00  0.00    +0.000 OA
BRANCH  13  14
ATOM     14  C   UNL     1       3.496   2.819  17.593  0.00  0.00    +0.000 C 
ATOM     15  O   UNL     1       3.861   1.932  18.354  0.00  0.00    +0.000 OA
BRANCH  14  16
ATOM     16  C   UNL     1       2.139   3.490  17.649  0.00  0.00    +0.000 C 
BRANCH  16  17
ATOM     17  C   UNL     1       1.199   2.857  18.684  0.00  0.00    +0.000 C 
BRANCH  17  18
ATOM     18  C   UNL     1       0.870   3.780  19.867  0.00  0.00    +0.000 C 
BRANCH  18  20
ATOM     19  C   UNL     1       2.326   2.762  21.673  0.00  0.00    +0.000 C 
ATOM     20  C   UNL     1       2.083   3.974  20.784  0.00  0.00    +0.000 C 
ENDBRANCH  18  20
ENDBRANCH  17  18
ENDBRANCH  16  17
ENDBRANCH  14  16
ENDBRANCH  13  14
ENDBRANCH   1  13
BRANCH   6  21
ATOM     21  C   UNL     1       6.553   3.956  14.785  0.00  0.00    +0.000 C 
BRANCH  21  22
ATOM     22  C   UNL     1       5.415   3.944  13.795  0.00  0.00    +0.000 C 
ATOM     23  C   UNL     1       5.495   3.520  12.516  0.00  0.00    +0.000 C 
ATOM     24  C   UNL     1       6.762   3.040  11.859  0.00  0.00    +0.000 C 
ATOM     25  C   UNL     1       4.289   3.501  11.611  0.00  0.00    +0.000 C 
ENDBRANCH  21  22
ENDBRANCH   6  21
TORSDOF 11
ENDMDL
MODEL 9
REMARK VINA RESULT:      -6.9      1.521      5.279
REMARK  Name = 
REMARK  14 active torsions:
REMARK  status: ('A' for Active; 'I' for Inactive)
REMARK    1  A    between atoms: C_1  and  C_2
REMARK    2  A    between atoms: C_2  and  C_3
REMARK    3  A    between atoms: C_3  and  C_4
REMARK    4  A    between atoms: C_4  and  C_5
REMARK    5  A    between atoms: C_5  and  C_6
REMARK    6  A    between atoms: C_6  and  O_8
REMARK    7  A    between atoms: O_8  and  C_9
REMARK    8  A    between atoms: C_12  and  C_13
REMARK    9  A    between atoms: C_14  and  C_15
REMARK   10  A    between atoms: C_15  and  O_17
REMARK   11  A    between atoms: C_19  and  C_20
REMARK   12  A    between atoms: C_20  and  C_21
REMARK   13  A    between atoms: C_22  and  C_23
REMARK   14  A    between atoms: C_22  and  C_24
REMARK                            x       y       z     vdW  Elec       q    Type
REMARK                         _______ _______ _______ _____ _____    ______ ____
ROOT
ATOM      1  C   UNL     1       4.623   5.120  17.094  0.00  0.00    +0.000 A 
ATOM      2  C   UNL     1       5.083   6.442  17.087  0.00  0.00    +0.000 A 
ATOM      3  C   UNL     1       4.227   7.490  17.409  0.00  0.00    +0.000 A 
ATOM      4  C   UNL     1       2.904   7.234  17.772  0.00  0.00    +0.000 A 
ATOM      5  C   UNL     1       2.471   5.901  17.855  0.00  0.00    +0.000 A 
ATOM      6  C   UNL     1       3.314   4.822  17.502  0.00  0.00    +0.000 A 
ENDROOT
BRANCH   4   7
ATOM      7  C   UNL     1       2.042   8.385  18.073  0.00  0.00    +0.000 C 
ATOM      8  C   UNL     1       1.691   8.756  19.314  0.00  0.00    +0.000 C 
BRANCH   8   9
ATOM      9  C   UNL     1       0.758   9.885  19.488  0.00  0.00    +0.000 C 
ATOM     10  O   UNL     1      -0.348   9.805  19.997  0.00  0.00    +0.000 OA
BRANCH   9  11
ATOM     11  O   UNL     1       1.272  11.039  19.021  0.00  0.00    +0.000 OA
ATOM     12  H   UNL     1       1.110  11.827  19.569  0.00  0.00    +0.000 HD
ENDBRANCH   9  11
ENDBRANCH   8   9
ENDBRANCH   4   7
BRANCH   1  13
ATOM     13  O   UNL     1       5.532   4.084  16.799  0.00  0.00    +0.000 OA
BRANCH  13  14
ATOM     14  C   UNL     1       6.741   4.461  16.201  0.00  0.00    +0.000 C 
ATOM     15  O   UNL     1       7.842   4.465  16.737  0.00  0.00    +0.000 OA
BRANCH  14  16
ATOM     16  C   UNL     1       6.490   4.856  14.760  0.00  0.00    +0.000 C 
BRANCH  16  17
ATOM     17  C   UNL     1       5.799   3.751  13.947  0.00  0.00    +0.000 C 
BRANCH  17  18
ATOM     18  C   UNL     1       6.340   3.605  12.517  0.00  0.00    +0.000 C 
BRANCH  18  20
ATOM     19  C   UNL     1       6.355   1.428  11.224  0.00  0.00    +0.000 C 
ATOM     20  C   UNL     1       5.515   2.603  11.703  0.00  0.00    +0.000 C 
ENDBRANCH  18  20
ENDBRANCH  17  18
ENDBRANCH  16  17
ENDBRANCH  14  16
ENDBRANCH  13  14
ENDBRANCH   1  13
BRANCH   6  21
ATOM     21  C   UNL     1       2.752   3.417  17.566  0.00  0.00    +0.000 C 
BRANCH  21  22
ATOM     22  C   UNL     1       1.862   3.150  18.754  0.00  0.00    +0.000 C 
ATOM     23  C   UNL     1       2.288   2.811  19.990  0.00  0.00    +0.000 C 
ATOM     24  C   UNL     1       3.731   2.594  20.360  0.00  0.00    +0.000 C 
ATOM     25  C   UNL     1       1.324   2.610  21.132  0.00  0.00    +0.000 C 
ENDBRANCH  21  22
ENDBRANCH   6  21
TORSDOF 11
ENDMDL
