MODEL 1
REMARK VINA RESULT:      -7.5      0.000      0.000
REMARK  Name = 
REMARK  5 active torsions:
REMARK  status: ('A' for Active; 'I' for Inactive)
REMARK    1  A    between atoms: C_1  and  C_2
REMARK    2  A    between atoms: C_2  and  N_3
REMARK    3  A    between atoms: C_13  and  S_14
REMARK    4  A    between atoms: S_14  and  C_15
REMARK    5  A    between atoms: C_15  and  C_16
REMARK                            x       y       z     vdW  Elec       q    Type
REMARK                         _______ _______ _______ _____ _____    ______ ____
ROOT
ATOM      1  N   UNL     1       2.825   5.901  19.462  0.00  0.00    +0.000 N 
ATOM      2  C   UNL     1       3.679   5.444  18.476  0.00  0.00    +0.000 A 
ATOM      3  C   UNL     1       4.324   4.206  18.315  0.00  0.00    +0.000 A 
ATOM      4  C   UNL     1       5.155   4.031  17.206  0.00  0.00    +0.000 A 
ATOM      5  C   UNL     1       5.343   5.059  16.289  0.00  0.00    +0.000 A 
ATOM      6  C   UNL     1       4.693   6.292  16.448  0.00  0.00    +0.000 A 
ATOM      7  C   UNL     1       3.837   6.493  17.554  0.00  0.00    +0.000 A 
ATOM      8  C   UNL     1       3.019   7.569  18.003  0.00  0.00    +0.000 A 
ATOM      9  N   UNL     1       2.769   8.808  17.504  0.00  0.00    +0.000 NA
ATOM     10  N   UNL     1       1.918   9.576  18.209  0.00  0.00    +0.000 NA
ATOM     11  C   UNL     1       1.342   9.122  19.355  0.00  0.00    +0.000 A 
ATOM     12  N   UNL     1       1.545   7.907  19.905  0.00  0.00    +0.000 NA
ATOM     13  C   UNL     1       2.402   7.170  19.175  0.00  0.00    +0.000 A 
ENDROOT
BRANCH   1  15
ATOM     14  C   UNL     1       1.210   4.306  20.428  0.00  0.00    +0.000 C 
ATOM     15  C   UNL     1       2.439   5.168  20.656  0.00  0.00    +0.000 C 
ENDBRANCH   1  15
BRANCH  11  16
ATOM     16  S   UNL     1       0.304  10.206  20.314  0.00  0.00    +0.000 S 
BRANCH  16  17
ATOM     17  C   UNL     1      -0.153  11.453  19.071  0.00  0.00    +0.000 C 
BRANCH  17  18
ATOM     18  C   UNL     1      -1.524  11.158  18.492  0.00  0.00    +0.000 A 
ATOM     19  C   UNL     1      -2.651  11.868  18.934  0.00  0.00    +0.000 A 
ATOM     20  C   UNL     1      -3.920  11.585  18.422  0.00  0.00    +0.000 A 
ATOM     21  C   UNL     1      -4.081  10.584  17.467  0.00  0.00    +0.000 A 
ATOM     22  C   UNL     1      -2.973   9.864  17.025  0.00  0.00    +0.000 A 
ATOM     23  C   UNL     1      -1.702  10.145  17.536  0.00  0.00    +0.000 A 
ENDBRANCH  17  18
ENDBRANCH  16  17
ENDBRANCH  11  16
TORSDOF 4
ENDMDL
MODEL 2
REMARK VINA RESULT:      -7.5      0.169      1.020
REMARK  Name = 
REMARK  5 active torsions:
REMARK  status: ('A' for Active; 'I' for Inactive)
REMARK    1  A    between atoms: C_1  and  C_2
REMARK    2  A    between atoms: C_2  and  N_3
REMARK    3  A    between atoms: C_13  and  S_14
REMARK    4  A    between atoms: S_14  and  C_15
REMARK    5  A    between atoms: C_15  and  C_16
REMARK                            x       y       z     vdW  Elec       q    Type
REMARK                         _______ _______ _______ _____ _____    ______ ____
ROOT
ATOM      1  N   UNL     1       2.950   5.850  19.322  0.00  0.00    +0.000 N 
ATOM      2  C   UNL     1       3.819   5.462  18.319  0.00  0.00    +0.000 A 
ATOM      3  C   UNL     1       4.505   4.253  18.110  0.00  0.00    +0.000 A 
ATOM      4  C   UNL     1       5.342   4.150  16.997  0.00  0.00    +0.000 A 
ATOM      5  C   UNL     1       5.497   5.219  16.122  0.00  0.00    +0.000 A 
ATOM      6  C   UNL     1       4.805   6.423  16.329  0.00  0.00    +0.000 A 
ATOM      7  C   UNL     1       3.942   6.551  17.440  0.00  0.00    +0.000 A 
ATOM      8  C   UNL     1       3.089   7.581  17.930  0.00  0.00    +0.000 A 
ATOM      9  N   UNL     1       2.798   8.829  17.479  0.00  0.00    +0.000 NA
ATOM     10  N   UNL     1       1.921   9.540  18.213  0.00  0.00    +0.000 NA
ATOM     11  C   UNL     1       1.360   9.023  19.338  0.00  0.00    +0.000 A 
ATOM     12  N   UNL     1       1.603   7.794  19.841  0.00  0.00    +0.000 NA
ATOM     13  C   UNL     1       2.485   7.115  19.084  0.00  0.00    +0.000 A 
ENDROOT
BRANCH   1  15
ATOM     14  C   UNL     1       1.325   4.246  20.256  0.00  0.00    +0.000 C 
ATOM     15  C   UNL     1       2.588   5.059  20.485  0.00  0.00    +0.000 C 
ENDBRANCH   1  15
BRANCH  11  16
ATOM     16  S   UNL     1       0.286  10.032  20.337  0.00  0.00    +0.000 S 
BRANCH  16  17
ATOM     17  C   UNL     1      -0.158  11.349  19.163  0.00  0.00    +0.000 C 
BRANCH  17  18
ATOM     18  C   UNL     1      -1.522  11.088  18.554  0.00  0.00    +0.000 A 
ATOM     19  C   UNL     1      -1.680  10.122  17.548  0.00  0.00    +0.000 A 
ATOM     20  C   UNL     1      -2.931   9.894  16.967  0.00  0.00    +0.000 A 
ATOM     21  C   UNL     1      -4.037  10.633  17.377  0.00  0.00    +0.000 A 
ATOM     22  C   UNL     1      -3.895  11.602  18.368  0.00  0.00    +0.000 A 
ATOM     23  C   UNL     1      -2.645  11.833  18.951  0.00  0.00    +0.000 A 
ENDBRANCH  17  18
ENDBRANCH  16  17
ENDBRANCH  11  16
TORSDOF 4
ENDMDL
MODEL 3
REMARK VINA RESULT:      -7.4      1.219      2.879
REMARK  Name = 
REMARK  5 active torsions:
REMARK  status: ('A' for Active; 'I' for Inactive)
REMARK    1  A    between atoms: C_1  and  C_2
REMARK    2  A    between atoms: C_2  and  N_3
REMARK    3  A    between atoms: C_13  and  S_14
REMARK    4  A    between atoms: S_14  and  C_15
REMARK    5  A    between atoms: C_15  and  C_16
REMARK                            x       y       z     vdW  Elec       q    Type
REMARK                         _______ _______ _______ _____ _____    ______ ____
ROOT
ATOM      1  N   UNL     1       3.345   5.776  18.528  0.00  0.00    +0.000 N 
ATOM      2  C   UNL     1       3.279   4.676  19.362  0.00  0.00    +0.000 A 
ATOM      3  C   UNL     1       3.897   3.416  19.277  0.00  0.00    +0.000 A 
ATOM      4  C   UNL     1       3.629   2.479  20.278  0.00  0.00    +0.000 A 
ATOM      5  C   UNL     1       2.770   2.784  21.328  0.00  0.00    +0.000 A 
ATOM      6  C   UNL     1       2.161   4.046  21.414  0.00  0.00    +0.000 A 
ATOM      7  C   UNL     1       2.423   5.017  20.422  0.00  0.00    +0.000 A 
ATOM      8  C   UNL     1       2.015   6.365  20.211  0.00  0.00    +0.000 A 
ATOM      9  N   UNL     1       1.216   7.208  20.916  0.00  0.00    +0.000 NA
ATOM     10  N   UNL     1       1.054   8.444  20.408  0.00  0.00    +0.000 NA
ATOM     11  C   UNL     1       1.667   8.817  19.252  0.00  0.00    +0.000 A 
ATOM     12  N   UNL     1       2.472   8.034  18.504  0.00  0.00    +0.000 NA
ATOM     13  C   UNL     1       2.607   6.808  19.042  0.00  0.00    +0.000 A 
ENDROOT
BRANCH   1  15
ATOM     14  C   UNL     1       5.494   6.323  17.446  0.00  0.00    +0.000 C 
ATOM     15  C   UNL     1       4.064   5.843  17.267  0.00  0.00    +0.000 C 
ENDBRANCH   1  15
BRANCH  11  16
ATOM     16  S   UNL     1       1.345  10.425  18.558  0.00  0.00    +0.000 S 
BRANCH  16  17
ATOM     17  C   UNL     1      -0.174  10.895  19.441  0.00  0.00    +0.000 C 
BRANCH  17  18
ATOM     18  C   UNL     1      -1.377  10.822  18.520  0.00  0.00    +0.000 A 
ATOM     19  C   UNL     1      -2.525  11.585  18.785  0.00  0.00    +0.000 A 
ATOM     20  C   UNL     1      -3.645  11.504  17.953  0.00  0.00    +0.000 A 
ATOM     21  C   UNL     1      -3.636  10.654  16.850  0.00  0.00    +0.000 A 
ATOM     22  C   UNL     1      -2.507   9.883  16.578  0.00  0.00    +0.000 A 
ATOM     23  C   UNL     1      -1.385   9.962  17.409  0.00  0.00    +0.000 A 
ENDBRANCH  17  18
ENDBRANCH  16  17
ENDBRANCH  11  16
TORSDOF 4
ENDMDL
MODEL 4
REMARK VINA RESULT:      -7.3      1.290      3.078
REMARK  Name = 
REMARK  5 active torsions:
REMARK  status: ('A' for Active; 'I' for Inactive)
REMARK    1  A    between atoms: C_1  and  C_2
REMARK    2  A    between atoms: C_2  and  N_3
REMARK    3  A    between atoms: C_13  and  S_14
REMARK    4  A    between atoms: S_14  and  C_15
REMARK    5  A    between atoms: C_15  and  C_16
REMARK                            x       y       z     vdW  Elec       q    Type
REMARK                         _______ _______ _______ _____ _____    ______ ____
ROOT
ATOM      1  N   UNL     1       3.417   5.565  18.457  0.00  0.00    +0.000 N 
ATOM      2  C   UNL     1       3.318   4.518  19.354  0.00  0.00    +0.000 A 
ATOM      3  C   UNL     1       3.889   3.234  19.339  0.00  0.00    +0.000 A 
ATOM      4  C   UNL     1       3.595   2.367  20.394  0.00  0.00    +0.000 A 
ATOM      5  C   UNL     1       2.756   2.763  21.429  0.00  0.00    +0.000 A 
ATOM      6  C   UNL     1       2.194   4.048  21.445  0.00  0.00    +0.000 A 
ATOM      7  C   UNL     1       2.482   4.951  20.397  0.00  0.00    +0.000 A 
ATOM      8  C   UNL     1       2.122   6.299  20.111  0.00  0.00    +0.000 A 
ATOM      9  N   UNL     1       1.358   7.209  20.770  0.00  0.00    +0.000 NA
ATOM     10  N   UNL     1       1.237   8.419  20.192  0.00  0.00    +0.000 NA
ATOM     11  C   UNL     1       1.854   8.702  19.013  0.00  0.00    +0.000 A 
ATOM     12  N   UNL     1       2.625   7.848  18.308  0.00  0.00    +0.000 NA
ATOM     13  C   UNL     1       2.720   6.651  18.915  0.00  0.00    +0.000 A 
ENDROOT
BRANCH   1  15
ATOM     14  C   UNL     1       5.574   5.974  17.333  0.00  0.00    +0.000 C 
ATOM     15  C   UNL     1       4.128   5.533  17.191  0.00  0.00    +0.000 C 
ENDBRANCH   1  15
BRANCH  11  16
ATOM     16  S   UNL     1       1.584  10.277  18.228  0.00  0.00    +0.000 S 
BRANCH  16  17
ATOM     17  C   UNL     1       0.297  10.991  19.297  0.00  0.00    +0.000 C 
BRANCH  17  18
ATOM     18  C   UNL     1      -1.067  10.883  18.642  0.00  0.00    +0.000 A 
ATOM     19  C   UNL     1      -1.280   9.985  17.585  0.00  0.00    +0.000 A 
ATOM     20  C   UNL     1      -2.528   9.898  16.962  0.00  0.00    +0.000 A 
ATOM     21  C   UNL     1      -3.577  10.713  17.382  0.00  0.00    +0.000 A 
ATOM     22  C   UNL     1      -3.378  11.616  18.424  0.00  0.00    +0.000 A 
ATOM     23  C   UNL     1      -2.130  11.706  19.048  0.00  0.00    +0.000 A 
ENDBRANCH  17  18
ENDBRANCH  16  17
ENDBRANCH  11  16
TORSDOF 4
ENDMDL
MODEL 5
REMARK VINA RESULT:      -7.3      3.062      7.855
REMARK  Name = 
REMARK  5 active torsions:
REMARK  status: ('A' for Active; 'I' for Inactive)
REMARK    1  A    between atoms: C_1  and  C_2
REMARK    2  A    between atoms: C_2  and  N_3
REMARK    3  A    between atoms: C_13  and  S_14
REMARK    4  A    between atoms: S_14  and  C_15
REMARK    5  A    between atoms: C_15  and  C_16
REMARK                            x       y       z     vdW  Elec       q    Type
REMARK                         _______ _______ _______ _____ _____    ______ ____
ROOT
ATOM      1  N   UNL     1       2.355   6.174  20.113  0.00  0.00    +0.000 N 
ATOM      2  C   UNL     1       1.670   7.370  20.214  0.00  0.00    +0.000 A 
ATOM      3  C   UNL     1       0.763   7.834  21.182  0.00  0.00    +0.000 A 
ATOM      4  C   UNL     1       0.207   9.104  21.013  0.00  0.00    +0.000 A 
ATOM      5  C   UNL     1       0.541   9.887  19.913  0.00  0.00    +0.000 A 
ATOM      6  C   UNL     1       1.453   9.424  18.953  0.00  0.00    +0.000 A 
ATOM      7  C   UNL     1       2.039   8.148  19.104  0.00  0.00    +0.000 A 
ATOM      8  C   UNL     1       2.993   7.392  18.364  0.00  0.00    +0.000 A 
ATOM      9  N   UNL     1       3.693   7.650  17.228  0.00  0.00    +0.000 NA
ATOM     10  N   UNL     1       4.531   6.682  16.809  0.00  0.00    +0.000 NA
ATOM     11  C   UNL     1       4.664   5.517  17.499  0.00  0.00    +0.000 A 
ATOM     12  N   UNL     1       4.002   5.198  18.630  0.00  0.00    +0.000 NA
ATOM     13  C   UNL     1       3.174   6.186  19.016  0.00  0.00    +0.000 A 
ENDROOT
BRANCH   1  15
ATOM     14  C   UNL     1       1.078   4.125  20.615  0.00  0.00    +0.000 C 
ATOM     15  C   UNL     1       2.222   5.041  21.012  0.00  0.00    +0.000 C 
ENDBRANCH   1  15
BRANCH  11  16
ATOM     16  S   UNL     1       5.702   4.221  16.856  0.00  0.00    +0.000 S 
BRANCH  16  17
ATOM     17  C   UNL     1       6.899   5.178  15.876  0.00  0.00    +0.000 C 
BRANCH  17  18
ATOM     18  C   UNL     1       6.873   4.744  14.423  0.00  0.00    +0.000 A 
ATOM     19  C   UNL     1       7.757   5.314  13.494  0.00  0.00    +0.000 A 
ATOM     20  C   UNL     1       7.722   4.936  12.149  0.00  0.00    +0.000 A 
ATOM     21  C   UNL     1       6.799   3.989  11.713  0.00  0.00    +0.000 A 
ATOM     22  C   UNL     1       5.909   3.420  12.622  0.00  0.00    +0.000 A 
ATOM     23  C   UNL     1       5.941   3.797  13.968  0.00  0.00    +0.000 A 
ENDBRANCH  17  18
ENDBRANCH  16  17
ENDBRANCH  11  16
TORSDOF 4
ENDMDL
MODEL 6
REMARK VINA RESULT:      -7.2      2.541      7.168
REMARK  Name = 
REMARK  5 active torsions:
REMARK  status: ('A' for Active; 'I' for Inactive)
REMARK    1  A    between atoms: C_1  and  C_2
REMARK    2  A    between atoms: C_2  and  N_3
REMARK    3  A    between atoms: C_13  and  S_14
REMARK    4  A    between atoms: S_14  and  C_15
REMARK    5  A    between atoms: C_15  and  C_16
REMARK                            x       y       z     vdW  Elec       q    Type
REMARK                         _______ _______ _______ _____ _____    ______ ____
ROOT
ATOM      1  N   UNL     1       0.206   9.551  20.634  0.00  0.00    +0.000 N 
ATOM      2  C   UNL     1      -0.337  10.792  20.357  0.00  0.00    +0.000 A 
ATOM      3  C   UNL     1      -1.223  11.597  21.093  0.00  0.00    +0.000 A 
ATOM      4  C   UNL     1      -1.617  12.820  20.545  0.00  0.00    +0.000 A 
ATOM      5  C   UNL     1      -1.147  13.228  19.302  0.00  0.00    +0.000 A 
ATOM      6  C   UNL     1      -0.256  12.426  18.573  0.00  0.00    +0.000 A 
ATOM      7  C   UNL     1       0.168  11.189  19.107  0.00  0.00    +0.000 A 
ATOM      8  C   UNL     1       1.056  10.163  18.672  0.00  0.00    +0.000 A 
ATOM      9  N   UNL     1       1.828  10.022  17.563  0.00  0.00    +0.000 NA
ATOM     10  N   UNL     1       2.563   8.896  17.485  0.00  0.00    +0.000 NA
ATOM     11  C   UNL     1       2.528   7.962  18.473  0.00  0.00    +0.000 A 
ATOM     12  N   UNL     1       1.786   8.039  19.597  0.00  0.00    +0.000 NA
ATOM     13  C   UNL     1       1.065   9.174  19.638  0.00  0.00    +0.000 A 
ENDROOT
BRANCH   1  15
ATOM     14  C   UNL     1       0.290   9.415  23.096  0.00  0.00    +0.000 C 
ATOM     15  C   UNL     1      -0.099   8.733  21.795  0.00  0.00    +0.000 C 
ENDBRANCH   1  15
BRANCH  11  16
ATOM     16  S   UNL     1       3.431   6.439  18.284  0.00  0.00    +0.000 S 
BRANCH  16  17
ATOM     17  C   UNL     1       2.080   5.257  17.997  0.00  0.00    +0.000 C 
BRANCH  17  18
ATOM     18  C   UNL     1       1.900   4.345  19.196  0.00  0.00    +0.000 A 
ATOM     19  C   UNL     1       1.157   3.159  19.084  0.00  0.00    +0.000 A 
ATOM     20  C   UNL     1       0.968   2.327  20.191  0.00  0.00    +0.000 A 
ATOM     21  C   UNL     1       1.512   2.672  21.425  0.00  0.00    +0.000 A 
ATOM     22  C   UNL     1       2.244   3.850  21.555  0.00  0.00    +0.000 A 
ATOM     23  C   UNL     1       2.435   4.685  20.449  0.00  0.00    +0.000 A 
ENDBRANCH  17  18
ENDBRANCH  16  17
ENDBRANCH  11  16
TORSDOF 4
ENDMDL
MODEL 7
REMARK VINA RESULT:      -7.1      2.700      7.810
REMARK  Name = 
REMARK  5 active torsions:
REMARK  status: ('A' for Active; 'I' for Inactive)
REMARK    1  A    between atoms: C_1  and  C_2
REMARK    2  A    between atoms: C_2  and  N_3
REMARK    3  A    between atoms: C_13  and  S_14
REMARK    4  A    between atoms: S_14  and  C_15
REMARK    5  A    between atoms: C_15  and  C_16
REMARK                            x       y       z     vdW  Elec       q    Type
REMARK                         _______ _______ _______ _____ _____    ______ ____
ROOT
ATOM      1  N   UNL     1       0.844  10.541  19.566  0.00  0.00    +0.000 N 
ATOM      2  C   UNL     1       0.148  10.680  20.753  0.00  0.00    +0.000 A 
ATOM      3  C   UNL     1      -0.614  11.749  21.255  0.00  0.00    +0.000 A 
ATOM      4  C   UNL     1      -1.201  11.610  22.514  0.00  0.00    +0.000 A 
ATOM      5  C   UNL     1      -1.032  10.445  23.253  0.00  0.00    +0.000 A 
ATOM      6  C   UNL     1      -0.277   9.376  22.747  0.00  0.00    +0.000 A 
ATOM      7  C   UNL     1       0.319   9.485  21.471  0.00  0.00    +0.000 A 
ATOM      8  C   UNL     1       1.104   8.619  20.656  0.00  0.00    +0.000 A 
ATOM      9  N   UNL     1       1.556   7.349  20.830  0.00  0.00    +0.000 NA
ATOM     10  N   UNL     1       2.285   6.831  19.823  0.00  0.00    +0.000 NA
ATOM     11  C   UNL     1       2.541   7.549  18.696  0.00  0.00    +0.000 A 
ATOM     12  N   UNL     1       2.123   8.810  18.459  0.00  0.00    +0.000 NA
ATOM     13  C   UNL     1       1.403   9.294  19.487  0.00  0.00    +0.000 A 
ENDROOT
BRANCH   1  15
ATOM     14  C   UNL     1       2.040  12.601  18.929  0.00  0.00    +0.000 C 
ATOM     15  C   UNL     1       0.998  11.565  18.548  0.00  0.00    +0.000 C 
ENDBRANCH   1  15
BRANCH  11  16
ATOM     16  S   UNL     1       3.595   6.867  17.433  0.00  0.00    +0.000 S 
BRANCH  16  17
ATOM     17  C   UNL     1       4.656   5.762  18.414  0.00  0.00    +0.000 C 
BRANCH  17  18
ATOM     18  C   UNL     1       4.094   4.353  18.430  0.00  0.00    +0.000 A 
ATOM     19  C   UNL     1       4.534   3.422  19.384  0.00  0.00    +0.000 A 
ATOM     20  C   UNL     1       4.037   2.116  19.390  0.00  0.00    +0.000 A 
ATOM     21  C   UNL     1       3.100   1.720  18.438  0.00  0.00    +0.000 A 
ATOM     22  C   UNL     1       2.660   2.630  17.480  0.00  0.00    +0.000 A 
ATOM     23  C   UNL     1       3.156   3.938  17.471  0.00  0.00    +0.000 A 
ENDBRANCH  17  18
ENDBRANCH  16  17
ENDBRANCH  11  16
TORSDOF 4
ENDMDL
MODEL 8
REMARK VINA RESULT:      -7.0      1.972      8.255
REMARK  Name = 
REMARK  5 active torsions:
REMARK  status: ('A' for Active; 'I' for Inactive)
REMARK    1  A    between atoms: C_1  and  C_2
REMARK    2  A    between atoms: C_2  and  N_3
REMARK    3  A    between atoms: C_13  and  S_14
REMARK    4  A    between atoms: S_14  and  C_15
REMARK    5  A    between atoms: C_15  and  C_16
REMARK                            x       y       z     vdW  Elec       q    Type
REMARK                         _______ _______ _______ _____ _____    ______ ____
ROOT
ATOM      1  N   UNL     1      -2.570  10.598  17.797  0.00  0.00    +0.000 N 
ATOM      2  C   UNL     1      -3.324  11.455  18.577  0.00  0.00    +0.000 A 
ATOM      3  C   UNL     1      -4.676  11.830  18.491  0.00  0.00    +0.000 A 
ATOM      4  C   UNL     1      -5.170  12.744  19.426  0.00  0.00    +0.000 A 
ATOM      5  C   UNL     1      -4.343  13.270  20.412  0.00  0.00    +0.000 A 
ATOM      6  C   UNL     1      -2.996  12.889  20.499  0.00  0.00    +0.000 A 
ATOM      7  C   UNL     1      -2.472  11.958  19.574  0.00  0.00    +0.000 A 
ATOM      8  C   UNL     1      -1.202  11.342  19.386  0.00  0.00    +0.000 A 
ATOM      9  N   UNL     1      -0.023  11.436  20.057  0.00  0.00    +0.000 NA
ATOM     10  N   UNL     1       0.992  10.686  19.588  0.00  0.00    +0.000 NA
ATOM     11  C   UNL     1       0.832   9.879  18.505  0.00  0.00    +0.000 A 
ATOM     12  N   UNL     1      -0.307   9.738  17.796  0.00  0.00    +0.000 NA
ATOM     13  C   UNL     1      -1.297  10.504  18.291  0.00  0.00    +0.000 A 
ENDROOT
BRANCH   1  15
ATOM     14  C   UNL     1      -2.928  10.776  15.363  0.00  0.00    +0.000 C 
ATOM     15  C   UNL     1      -3.031   9.908  16.605  0.00  0.00    +0.000 C 
ENDBRANCH   1  15
BRANCH  11  16
ATOM     16  S   UNL     1       2.227   8.984  17.854  0.00  0.00    +0.000 S 
BRANCH  16  17
ATOM     17  C   UNL     1       2.258   7.530  18.946  0.00  0.00    +0.000 C 
BRANCH  17  18
ATOM     18  C   UNL     1       2.840   6.329  18.226  0.00  0.00    +0.000 A 
ATOM     19  C   UNL     1       2.145   5.110  18.196  0.00  0.00    +0.000 A 
ATOM     20  C   UNL     1       2.687   3.994  17.554  0.00  0.00    +0.000 A 
ATOM     21  C   UNL     1       3.934   4.077  16.940  0.00  0.00    +0.000 A 
ATOM     22  C   UNL     1       4.641   5.278  16.969  0.00  0.00    +0.000 A 
ATOM     23  C   UNL     1       4.101   6.397  17.611  0.00  0.00    +0.000 A 
ENDBRANCH  17  18
ENDBRANCH  16  17
ENDBRANCH  11  16
TORSDOF 4
ENDMDL
MODEL 9
REMARK VINA RESULT:      -7.0      2.661      7.663
REMARK  Name = 
REMARK  5 active torsions:
REMARK  status: ('A' for Active; 'I' for Inactive)
REMARK    1  A    between atoms: C_1  and  C_2
REMARK    2  A    between atoms: C_2  and  N_3
REMARK    3  A    between atoms: C_13  and  S_14
REMARK    4  A    between atoms: S_14  and  C_15
REMARK    5  A    between atoms: C_15  and  C_16
REMARK                            x       y       z     vdW  Elec       q    Type
REMARK                         _______ _______ _______ _____ _____    ______ ____
ROOT
ATOM      1  N   UNL     1       0.970   9.924  21.034  0.00  0.00    +0.000 N 
ATOM      2  C   UNL     1       0.595  11.174  20.578  0.00  0.00    +0.000 A 
ATOM      3  C   UNL     1       0.096  12.294  21.265  0.00  0.00    +0.000 A 
ATOM      4  C   UNL     1      -0.216  13.438  20.528  0.00  0.00    +0.000 A 
ATOM      5  C   UNL     1      -0.042  13.465  19.148  0.00  0.00    +0.000 A 
ATOM      6  C   UNL     1       0.463  12.348  18.466  0.00  0.00    +0.000 A 
ATOM      7  C   UNL     1       0.798  11.181  19.188  0.00  0.00    +0.000 A 
ATOM      8  C   UNL     1       1.343   9.911  18.840  0.00  0.00    +0.000 A 
ATOM      9  N   UNL     1       1.745   9.373  17.659  0.00  0.00    +0.000 NA
ATOM     10  N   UNL     1       2.225   8.116  17.707  0.00  0.00    +0.000 NA
ATOM     11  C   UNL     1       2.301   7.435  18.882  0.00  0.00    +0.000 A 
ATOM     12  N   UNL     1       1.921   7.908  20.088  0.00  0.00    +0.000 NA
ATOM     13  C   UNL     1       1.445   9.164  19.999  0.00  0.00    +0.000 A 
ENDROOT
BRANCH   1  15
ATOM     14  C   UNL     1      -0.572   9.111  22.779  0.00  0.00    +0.000 C 
ATOM     15  C   UNL     1       0.860   9.451  22.403  0.00  0.00    +0.000 C 
ENDBRANCH   1  15
BRANCH  11  16
ATOM     16  S   UNL     1       2.843   5.739  18.889  0.00  0.00    +0.000 S 
BRANCH  16  17
ATOM     17  C   UNL     1       3.938   5.710  17.438  0.00  0.00    +0.000 C 
BRANCH  17  18
ATOM     18  C   UNL     1       5.370   6.013  17.838  0.00  0.00    +0.000 A 
ATOM     19  C   UNL     1       5.960   5.352  18.926  0.00  0.00    +0.000 A 
ATOM     20  C   UNL     1       7.270   5.645  19.314  0.00  0.00    +0.000 A 
ATOM     21  C   UNL     1       8.006   6.606  18.625  0.00  0.00    +0.000 A 
ATOM     22  C   UNL     1       7.430   7.277  17.548  0.00  0.00    +0.000 A 
ATOM     23  C   UNL     1       6.119   6.987  17.158  0.00  0.00    +0.000 A 
ENDBRANCH  17  18
ENDBRANCH  16  17
ENDBRANCH  11  16
TORSDOF 4
ENDMDL
