MODEL 1
REMARK VINA RESULT:      -8.0      0.000      0.000
REMARK  Name = 
REMARK  7 active torsions:
REMARK  status: ('A' for Active; 'I' for Inactive)
REMARK    1  A    between atoms: C_1  and  C_2
REMARK    2  A    between atoms: N_10  and  C_11
REMARK    3  A    between atoms: C_11  and  C_12
REMARK    4  A    between atoms: C_12  and  O_13
REMARK    5  A    between atoms: O_13  and  C_14
REMARK    6  A    between atoms: C_14  and  N_16
REMARK    7  A    between atoms: N_16  and  C_17
REMARK                            x       y       z     vdW  Elec       q    Type
REMARK                         _______ _______ _______ _____ _____    ______ ____
ROOT
ATOM      1  C   UNL     1       4.832   7.004  17.539  0.00  0.00    +0.000 C 
ENDROOT
BRANCH   1   2
ATOM      2  C   UNL     1       3.381   6.553  17.733  0.00  0.00    +0.000 C 
BRANCH   2  12
ATOM      3  C   UNL     1      -0.609   9.853  23.075  0.00  0.00    +0.000 C 
ATOM      4  C   UNL     1       0.086   9.627  21.760  0.00  0.00    +0.000 A 
ATOM      5  C   UNL     1       0.010  10.585  20.719  0.00  0.00    +0.000 A 
ATOM      6  C   UNL     1       0.656  10.375  19.490  0.00  0.00    +0.000 A 
ATOM      7  C   UNL     1       1.370   9.206  19.333  0.00  0.00    +0.000 A 
ATOM      8  C   UNL     1       1.445   8.270  20.350  0.00  0.00    +0.000 A 
ATOM      9  C   UNL     1       0.814   8.443  21.565  0.00  0.00    +0.000 A 
ATOM     10  C   UNL     1       2.243   7.148  19.858  0.00  0.00    +0.000 C 
ATOM     11  O   UNL     1       2.438   6.121  20.479  0.00  0.00    +0.000 OA
ATOM     12  N   UNL     1       2.654   7.475  18.596  0.00  0.00    +0.000 N 
ATOM     13  C   UNL     1       2.125   8.674  18.194  0.00  0.00    +0.000 C 
ATOM     14  O   UNL     1       2.201   9.210  17.105  0.00  0.00    +0.000 OA
ENDBRANCH   2  12
ENDBRANCH   1   2
BRANCH   1  15
ATOM     15  O   UNL     1       5.756   6.219  18.334  0.00  0.00    +0.000 OA
BRANCH  15  16
ATOM     16  C   UNL     1       6.252   5.039  17.852  0.00  0.00    +0.000 C 
ATOM     17  S   UNL     1       7.188   4.904  16.479  0.00  0.00    +0.000 S 
BRANCH  16  18
ATOM     18  N   UNL     1       5.857   3.904  18.512  0.00  0.00    +0.000 N 
ATOM     19  H   UNL     1       6.570   3.507  19.112  0.00  0.00    +0.000 HD
BRANCH  18  20
ATOM     20  C   UNL     1       4.575   3.337  18.602  0.00  0.00    +0.000 A 
ATOM     21  C   UNL     1       3.820   3.027  17.470  0.00  0.00    +0.000 A 
ATOM     22  C   UNL     1       2.494   2.604  17.606  0.00  0.00    +0.000 A 
ATOM     23  C   UNL     1       1.925   2.457  18.872  0.00  0.00    +0.000 A 
ATOM     24 CL   UNL     1       0.275   1.950  18.960  0.00  0.00    +0.000 Cl
ATOM     25  C   UNL     1       2.688   2.737  20.010  0.00  0.00    +0.000 A 
ATOM     26 CL   UNL     1       2.067   2.542  21.611  0.00  0.00    +0.000 Cl
ATOM     27  C   UNL     1       4.003   3.201  19.872  0.00  0.00    +0.000 A 
ENDBRANCH  18  20
ENDBRANCH  16  18
ENDBRANCH  15  16
ENDBRANCH   1  15
TORSDOF 6
ENDMDL
MODEL 2
REMARK VINA RESULT:      -7.5      0.726      1.923
REMARK  Name = 
REMARK  7 active torsions:
REMARK  status: ('A' for Active; 'I' for Inactive)
REMARK    1  A    between atoms: C_1  and  C_2
REMARK    2  A    between atoms: N_10  and  C_11
REMARK    3  A    between atoms: C_11  and  C_12
REMARK    4  A    between atoms: C_12  and  O_13
REMARK    5  A    between atoms: O_13  and  C_14
REMARK    6  A    between atoms: C_14  and  N_16
REMARK    7  A    between atoms: N_16  and  C_17
REMARK                            x       y       z     vdW  Elec       q    Type
REMARK                         _______ _______ _______ _____ _____    ______ ____
ROOT
ATOM      1  C   UNL     1       4.470   6.779  17.920  0.00  0.00    +0.000 C 
ENDROOT
BRANCH   1   2
ATOM      2  C   UNL     1       2.962   6.526  17.831  0.00  0.00    +0.000 C 
BRANCH   2  12
ATOM      3  C   UNL     1      -0.256  12.322  21.207  0.00  0.00    +0.000 C 
ATOM      4  C   UNL     1       0.290  10.939  20.979  0.00  0.00    +0.000 A 
ATOM      5  C   UNL     1       0.283   9.971  22.013  0.00  0.00    +0.000 A 
ATOM      6  C   UNL     1       0.795   8.680  21.804  0.00  0.00    +0.000 A 
ATOM      7  C   UNL     1       1.302   8.387  20.556  0.00  0.00    +0.000 A 
ATOM      8  C   UNL     1       1.310   9.332  19.544  0.00  0.00    +0.000 A 
ATOM      9  C   UNL     1       0.823  10.611  19.722  0.00  0.00    +0.000 A 
ATOM     10  C   UNL     1       1.933   8.720  18.373  0.00  0.00    +0.000 C 
ATOM     11  O   UNL     1       2.165   9.307  17.334  0.00  0.00    +0.000 OA
ATOM     12  N   UNL     1       2.225   7.427  18.708  0.00  0.00    +0.000 N 
ATOM     13  C   UNL     1       1.923   7.171  20.020  0.00  0.00    +0.000 C 
ATOM     14  O   UNL     1       2.144   6.166  20.668  0.00  0.00    +0.000 OA
ENDBRANCH   2  12
ENDBRANCH   1   2
BRANCH   1  15
ATOM     15  O   UNL     1       5.063   6.126  19.070  0.00  0.00    +0.000 OA
BRANCH  15  16
ATOM     16  C   UNL     1       6.108   5.259  18.909  0.00  0.00    +0.000 C 
ATOM     17  S   UNL     1       7.689   5.727  18.660  0.00  0.00    +0.000 S 
BRANCH  16  18
ATOM     18  N   UNL     1       5.786   3.927  18.863  0.00  0.00    +0.000 N 
ATOM     19  H   UNL     1       6.575   3.306  19.001  0.00  0.00    +0.000 HD
BRANCH  18  20
ATOM     20  C   UNL     1       4.516   3.328  18.828  0.00  0.00    +0.000 A 
ATOM     21  C   UNL     1       3.887   2.988  17.630  0.00  0.00    +0.000 A 
ATOM     22  C   UNL     1       2.565   2.532  17.635  0.00  0.00    +0.000 A 
ATOM     23  C   UNL     1       1.875   2.382  18.839  0.00  0.00    +0.000 A 
ATOM     24 CL   UNL     1       0.238   1.834  18.765  0.00  0.00    +0.000 Cl
ATOM     25  C   UNL     1       2.511   2.692  20.045  0.00  0.00    +0.000 A 
ATOM     26 CL   UNL     1       1.736   2.495  21.578  0.00  0.00    +0.000 Cl
ATOM     27  C   UNL     1       3.821   3.188  20.036  0.00  0.00    +0.000 A 
ENDBRANCH  18  20
ENDBRANCH  16  18
ENDBRANCH  15  16
ENDBRANCH   1  15
TORSDOF 6
ENDMDL
MODEL 3
REMARK VINA RESULT:      -7.4      3.395      6.370
REMARK  Name = 
REMARK  7 active torsions:
REMARK  status: ('A' for Active; 'I' for Inactive)
REMARK    1  A    between atoms: C_1  and  C_2
REMARK    2  A    between atoms: N_10  and  C_11
REMARK    3  A    between atoms: C_11  and  C_12
REMARK    4  A    between atoms: C_12  and  O_13
REMARK    5  A    between atoms: O_13  and  C_14
REMARK    6  A    between atoms: C_14  and  N_16
REMARK    7  A    between atoms: N_16  and  C_17
REMARK                            x       y       z     vdW  Elec       q    Type
REMARK                         _______ _______ _______ _____ _____    ______ ____
ROOT
ATOM      1  C   UNL     1       3.419   3.941  17.000  0.00  0.00    +0.000 C 
ENDROOT
BRANCH   1   2
ATOM      2  C   UNL     1       4.768   4.078  16.289  0.00  0.00    +0.000 C 
BRANCH   2  12
ATOM      3  C   UNL     1       8.617  10.233  17.912  0.00  0.00    +0.000 C 
ATOM      4  C   UNL     1       8.109   8.819  17.984  0.00  0.00    +0.000 A 
ATOM      5  C   UNL     1       8.626   7.905  18.935  0.00  0.00    +0.000 A 
ATOM      6  C   UNL     1       8.155   6.584  19.003  0.00  0.00    +0.000 A 
ATOM      7  C   UNL     1       7.170   6.209  18.114  0.00  0.00    +0.000 A 
ATOM      8  C   UNL     1       6.665   7.101  17.185  0.00  0.00    +0.000 A 
ATOM      9  C   UNL     1       7.113   8.402  17.087  0.00  0.00    +0.000 A 
ATOM     10  C   UNL     1       5.669   6.389  16.386  0.00  0.00    +0.000 C 
ATOM     11  O   UNL     1       5.089   6.865  15.430  0.00  0.00    +0.000 OA
ATOM     12  N   UNL     1       5.580   5.124  16.897  0.00  0.00    +0.000 N 
ATOM     13  C   UNL     1       6.490   4.927  17.903  0.00  0.00    +0.000 C 
ATOM     14  O   UNL     1       6.749   3.901  18.501  0.00  0.00    +0.000 OA
ENDBRANCH   2  12
ENDBRANCH   1   2
BRANCH   1  15
ATOM     15  O   UNL     1       3.574   3.572  18.393  0.00  0.00    +0.000 OA
BRANCH  15  16
ATOM     16  C   UNL     1       2.725   4.075  19.340  0.00  0.00    +0.000 C 
ATOM     17  S   UNL     1       1.328   3.318  19.848  0.00  0.00    +0.000 S 
BRANCH  16  18
ATOM     18  N   UNL     1       3.023   5.326  19.815  0.00  0.00    +0.000 N 
ATOM     19  H   UNL     1       3.869   5.367  20.370  0.00  0.00    +0.000 HD
BRANCH  18  20
ATOM     20  C   UNL     1       2.425   6.556  19.492  0.00  0.00    +0.000 A 
ATOM     21  C   UNL     1       2.499   7.104  18.211  0.00  0.00    +0.000 A 
ATOM     22  C   UNL     1       2.020   8.396  17.972  0.00  0.00    +0.000 A 
ATOM     23  C   UNL     1       1.433   9.134  19.001  0.00  0.00    +0.000 A 
ATOM     24 CL   UNL     1       0.882  10.730  18.635  0.00  0.00    +0.000 Cl
ATOM     25  C   UNL     1       1.328   8.576  20.279  0.00  0.00    +0.000 A 
ATOM     26 CL   UNL     1       0.580   9.412  21.595  0.00  0.00    +0.000 Cl
ATOM     27  C   UNL     1       1.847   7.299  20.528  0.00  0.00    +0.000 A 
ENDBRANCH  18  20
ENDBRANCH  16  18
ENDBRANCH  15  16
ENDBRANCH   1  15
TORSDOF 6
ENDMDL
MODEL 4
REMARK VINA RESULT:      -7.4      0.634      1.435
REMARK  Name = 
REMARK  7 active torsions:
REMARK  status: ('A' for Active; 'I' for Inactive)
REMARK    1  A    between atoms: C_1  and  C_2
REMARK    2  A    between atoms: N_10  and  C_11
REMARK    3  A    between atoms: C_11  and  C_12
REMARK    4  A    between atoms: C_12  and  O_13
REMARK    5  A    between atoms: O_13  and  C_14
REMARK    6  A    between atoms: C_14  and  N_16
REMARK    7  A    between atoms: N_16  and  C_17
REMARK                            x       y       z     vdW  Elec       q    Type
REMARK                         _______ _______ _______ _____ _____    ______ ____
ROOT
ATOM      1  C   UNL     1       4.911   6.833  17.419  0.00  0.00    +0.000 C 
ENDROOT
BRANCH   1   2
ATOM      2  C   UNL     1       3.399   6.587  17.420  0.00  0.00    +0.000 C 
BRANCH   2  12
ATOM      3  C   UNL     1      -0.330   9.499  23.161  0.00  0.00    +0.000 C 
ATOM      4  C   UNL     1       0.321   9.375  21.810  0.00  0.00    +0.000 A 
ATOM      5  C   UNL     1       0.247  10.427  20.865  0.00  0.00    +0.000 A 
ATOM      6  C   UNL     1       0.852  10.312  19.602  0.00  0.00    +0.000 A 
ATOM      7  C   UNL     1       1.522   9.141  19.317  0.00  0.00    +0.000 A 
ATOM      8  C   UNL     1       1.595   8.113  20.241  0.00  0.00    +0.000 A 
ATOM      9  C   UNL     1       1.003   8.192  21.485  0.00  0.00    +0.000 A 
ATOM     10  C   UNL     1       2.341   7.018  19.625  0.00  0.00    +0.000 C 
ATOM     11  O   UNL     1       2.519   5.932  20.142  0.00  0.00    +0.000 OA
ATOM     12  N   UNL     1       2.728   7.448  18.386  0.00  0.00    +0.000 N 
ATOM     13  C   UNL     1       2.227   8.694  18.111  0.00  0.00    +0.000 C 
ATOM     14  O   UNL     1       2.291   9.326  17.075  0.00  0.00    +0.000 OA
ENDBRANCH   2  12
ENDBRANCH   1   2
BRANCH   1  15
ATOM     15  O   UNL     1       5.655   5.644  17.786  0.00  0.00    +0.000 OA
BRANCH  15  16
ATOM     16  C   UNL     1       5.744   4.590  16.918  0.00  0.00    +0.000 C 
ATOM     17  S   UNL     1       6.637   4.604  15.509  0.00  0.00    +0.000 S 
BRANCH  16  18
ATOM     18  N   UNL     1       4.963   3.501  17.208  0.00  0.00    +0.000 N 
ATOM     19  H   UNL     1       5.110   2.711  16.592  0.00  0.00    +0.000 HD
BRANCH  18  20
ATOM     20  C   UNL     1       4.139   3.280  18.325  0.00  0.00    +0.000 A 
ATOM     21  C   UNL     1       4.649   3.205  19.621  0.00  0.00    +0.000 A 
ATOM     22  C   UNL     1       3.817   2.836  20.683  0.00  0.00    +0.000 A 
ATOM     23  C   UNL     1       2.464   2.575  20.462  0.00  0.00    +0.000 A 
ATOM     24 CL   UNL     1       1.503   2.105  21.819  0.00  0.00    +0.000 Cl
ATOM     25  C   UNL     1       1.941   2.679  19.169  0.00  0.00    +0.000 A 
ATOM     26 CL   UNL     1       0.269   2.409  18.823  0.00  0.00    +0.000 Cl
ATOM     27  C   UNL     1       2.784   3.008  18.100  0.00  0.00    +0.000 A 
ENDBRANCH  18  20
ENDBRANCH  16  18
ENDBRANCH  15  16
ENDBRANCH   1  15
TORSDOF 6
ENDMDL
MODEL 5
REMARK VINA RESULT:      -7.4      3.437      7.545
REMARK  Name = 
REMARK  7 active torsions:
REMARK  status: ('A' for Active; 'I' for Inactive)
REMARK    1  A    between atoms: C_1  and  C_2
REMARK    2  A    between atoms: N_10  and  C_11
REMARK    3  A    between atoms: C_11  and  C_12
REMARK    4  A    between atoms: C_12  and  O_13
REMARK    5  A    between atoms: O_13  and  C_14
REMARK    6  A    between atoms: C_14  and  N_16
REMARK    7  A    between atoms: N_16  and  C_17
REMARK                            x       y       z     vdW  Elec       q    Type
REMARK                         _______ _______ _______ _____ _____    ______ ____
ROOT
ATOM      1  C   UNL     1       2.271   4.749  20.284  0.00  0.00    +0.000 C 
ENDROOT
BRANCH   1   2
ATOM      2  C   UNL     1       3.375   3.707  20.076  0.00  0.00    +0.000 C 
BRANCH   2  12
ATOM      3  C   UNL     1       6.372   3.941  13.272  0.00  0.00    +0.000 C 
ATOM      4  C   UNL     1       6.193   4.159  14.750  0.00  0.00    +0.000 A 
ATOM      5  C   UNL     1       7.183   4.821  15.516  0.00  0.00    +0.000 A 
ATOM      6  C   UNL     1       7.019   5.023  16.896  0.00  0.00    +0.000 A 
ATOM      7  C   UNL     1       5.858   4.558  17.478  0.00  0.00    +0.000 A 
ATOM      8  C   UNL     1       4.890   3.912  16.729  0.00  0.00    +0.000 A 
ATOM      9  C   UNL     1       5.026   3.690  15.374  0.00  0.00    +0.000 A 
ATOM     10  C   UNL     1       3.814   3.525  17.640  0.00  0.00    +0.000 C 
ATOM     11  O   UNL     1       2.843   2.870  17.315  0.00  0.00    +0.000 OA
ATOM     12  N   UNL     1       4.152   3.996  18.878  0.00  0.00    +0.000 N 
ATOM     13  C   UNL     1       5.391   4.581  18.868  0.00  0.00    +0.000 C 
ATOM     14  O   UNL     1       6.036   5.010  19.805  0.00  0.00    +0.000 OA
ENDBRANCH   2  12
ENDBRANCH   1   2
BRANCH   1  15
ATOM     15  O   UNL     1       2.108   5.605  19.125  0.00  0.00    +0.000 OA
BRANCH  15  16
ATOM     16  C   UNL     1       2.372   6.944  19.213  0.00  0.00    +0.000 C 
ATOM     17  S   UNL     1       2.967   7.870  17.960  0.00  0.00    +0.000 S 
BRANCH  16  18
ATOM     18  N   UNL     1       2.214   7.511  20.452  0.00  0.00    +0.000 N 
ATOM     19  H   UNL     1       2.880   7.187  21.143  0.00  0.00    +0.000 HD
BRANCH  18  20
ATOM     20  C   UNL     1       1.389   8.583  20.832  0.00  0.00    +0.000 A 
ATOM     21  C   UNL     1       1.170   8.912  22.170  0.00  0.00    +0.000 A 
ATOM     22  C   UNL     1       0.227   9.889  22.507  0.00  0.00    +0.000 A 
ATOM     23  C   UNL     1      -0.477  10.566  21.509  0.00  0.00    +0.000 A 
ATOM     24 CL   UNL     1      -1.640  11.744  22.002  0.00  0.00    +0.000 Cl
ATOM     25  C   UNL     1      -0.237  10.260  20.166  0.00  0.00    +0.000 A 
ATOM     26 CL   UNL     1      -1.040  11.081  18.873  0.00  0.00    +0.000 Cl
ATOM     27  C   UNL     1       0.676   9.252  19.831  0.00  0.00    +0.000 A 
ENDBRANCH  18  20
ENDBRANCH  16  18
ENDBRANCH  15  16
ENDBRANCH   1  15
TORSDOF 6
ENDMDL
MODEL 6
REMARK VINA RESULT:      -7.4      5.136      7.301
REMARK  Name = 
REMARK  7 active torsions:
REMARK  status: ('A' for Active; 'I' for Inactive)
REMARK    1  A    between atoms: C_1  and  C_2
REMARK    2  A    between atoms: N_10  and  C_11
REMARK    3  A    between atoms: C_11  and  C_12
REMARK    4  A    between atoms: C_12  and  O_13
REMARK    5  A    between atoms: O_13  and  C_14
REMARK    6  A    between atoms: C_14  and  N_16
REMARK    7  A    between atoms: N_16  and  C_17
REMARK                            x       y       z     vdW  Elec       q    Type
REMARK                         _______ _______ _______ _____ _____    ______ ____
ROOT
ATOM      1  C   UNL     1       6.932   5.425  16.109  0.00  0.00    +0.000 C 
ENDROOT
BRANCH   1   2
ATOM      2  C   UNL     1       5.434   5.555  15.813  0.00  0.00    +0.000 C 
BRANCH   2  12
ATOM      3  C   UNL     1       1.243   2.860  21.337  0.00  0.00    +0.000 C 
ATOM      4  C   UNL     1       1.936   3.844  20.435  0.00  0.00    +0.000 A 
ATOM      5  C   UNL     1       1.758   5.239  20.601  0.00  0.00    +0.000 A 
ATOM      6  C   UNL     1       2.402   6.160  19.758  0.00  0.00    +0.000 A 
ATOM      7  C   UNL     1       3.216   5.657  18.765  0.00  0.00    +0.000 A 
ATOM      8  C   UNL     1       3.391   4.294  18.602  0.00  0.00    +0.000 A 
ATOM      9  C   UNL     1       2.765   3.365  19.408  0.00  0.00    +0.000 A 
ATOM     10  C   UNL     1       4.279   4.097  17.458  0.00  0.00    +0.000 C 
ATOM     11  O   UNL     1       4.575   3.011  16.998  0.00  0.00    +0.000 OA
ATOM     12  N   UNL     1       4.641   5.340  17.016  0.00  0.00    +0.000 N 
ATOM     13  C   UNL     1       3.999   6.326  17.720  0.00  0.00    +0.000 C 
ATOM     14  O   UNL     1       4.011   7.526  17.527  0.00  0.00    +0.000 OA
ENDBRANCH   2  12
ENDBRANCH   1   2
BRANCH   1  15
ATOM     15  O   UNL     1       7.568   6.717  16.268  0.00  0.00    +0.000 OA
BRANCH  15  16
ATOM     16  C   UNL     1       7.685   7.282  17.508  0.00  0.00    +0.000 C 
ATOM     17  S   UNL     1       7.857   6.417  18.923  0.00  0.00    +0.000 S 
BRANCH  16  18
ATOM     18  N   UNL     1       7.556   8.646  17.565  0.00  0.00    +0.000 N 
ATOM     19  H   UNL     1       6.662   8.990  17.236  0.00  0.00    +0.000 HD
BRANCH  18  20
ATOM     20  C   UNL     1       8.406   9.587  18.170  0.00  0.00    +0.000 A 
ATOM     21  C   UNL     1       8.985   9.370  19.420  0.00  0.00    +0.000 A 
ATOM     22  C   UNL     1       9.702  10.392  20.049  0.00  0.00    +0.000 A 
ATOM     23  C   UNL     1       9.874  11.626  19.419  0.00  0.00    +0.000 A 
ATOM     24 CL   UNL     1      10.754  12.847  20.266  0.00  0.00    +0.000 Cl
ATOM     25  C   UNL     1       9.321  11.838  18.152  0.00  0.00    +0.000 A 
ATOM     26 CL   UNL     1       9.523  13.324  17.291  0.00  0.00    +0.000 Cl
ATOM     27  C   UNL     1       8.567  10.827  17.541  0.00  0.00    +0.000 A 
ENDBRANCH  18  20
ENDBRANCH  16  18
ENDBRANCH  15  16
ENDBRANCH   1  15
TORSDOF 6
ENDMDL
MODEL 7
REMARK VINA RESULT:      -7.2      3.436      6.704
REMARK  Name = 
REMARK  7 active torsions:
REMARK  status: ('A' for Active; 'I' for Inactive)
REMARK    1  A    between atoms: C_1  and  C_2
REMARK    2  A    between atoms: N_10  and  C_11
REMARK    3  A    between atoms: C_11  and  C_12
REMARK    4  A    between atoms: C_12  and  O_13
REMARK    5  A    between atoms: O_13  and  C_14
REMARK    6  A    between atoms: C_14  and  N_16
REMARK    7  A    between atoms: N_16  and  C_17
REMARK                            x       y       z     vdW  Elec       q    Type
REMARK                         _______ _______ _______ _____ _____    ______ ____
ROOT
ATOM      1  C   UNL     1       2.282   3.834  18.019  0.00  0.00    +0.000 C 
ENDROOT
BRANCH   1   2
ATOM      2  C   UNL     1       3.499   3.760  17.092  0.00  0.00    +0.000 C 
BRANCH   2  12
ATOM      3  C   UNL     1       8.655   9.075  17.805  0.00  0.00    +0.000 C 
ATOM      4  C   UNL     1       7.869   7.819  18.065  0.00  0.00    +0.000 A 
ATOM      5  C   UNL     1       8.251   6.917  19.088  0.00  0.00    +0.000 A 
ATOM      6  C   UNL     1       7.521   5.743  19.331  0.00  0.00    +0.000 A 
ATOM      7  C   UNL     1       6.418   5.499  18.540  0.00  0.00    +0.000 A 
ATOM      8  C   UNL     1       6.044   6.380  17.540  0.00  0.00    +0.000 A 
ATOM      9  C   UNL     1       6.746   7.537  17.271  0.00  0.00    +0.000 A 
ATOM     10  C   UNL     1       4.866   5.821  16.878  0.00  0.00    +0.000 C 
ATOM     11  O   UNL     1       4.331   6.311  15.903  0.00  0.00    +0.000 OA
ATOM     12  N   UNL     1       4.552   4.664  17.535  0.00  0.00    +0.000 N 
ATOM     13  C   UNL     1       5.471   4.379  18.511  0.00  0.00    +0.000 C 
ATOM     14  O   UNL     1       5.553   3.388  19.211  0.00  0.00    +0.000 OA
ENDBRANCH   2  12
ENDBRANCH   1   2
BRANCH   1  15
ATOM     15  O   UNL     1       2.129   5.148  18.611  0.00  0.00    +0.000 OA
BRANCH  15  16
ATOM     16  C   UNL     1       2.291   5.322  19.958  0.00  0.00    +0.000 C 
ATOM     17  S   UNL     1       2.132   4.107  21.089  0.00  0.00    +0.000 S 
BRANCH  16  18
ATOM     18  N   UNL     1       2.505   6.609  20.379  0.00  0.00    +0.000 N 
ATOM     19  H   UNL     1       3.286   6.712  21.015  0.00  0.00    +0.000 HD
BRANCH  18  20
ATOM     20  C   UNL     1       1.912   7.797  19.919  0.00  0.00    +0.000 A 
ATOM     21  C   UNL     1       2.189   8.324  18.656  0.00  0.00    +0.000 A 
ATOM     22  C   UNL     1       1.695   9.582  18.297  0.00  0.00    +0.000 A 
ATOM     23  C   UNL     1       0.894  10.306  19.182  0.00  0.00    +0.000 A 
ATOM     24 CL   UNL     1       0.337  11.861  18.676  0.00  0.00    +0.000 Cl
ATOM     25  C   UNL     1       0.589   9.768  20.437  0.00  0.00    +0.000 A 
ATOM     26 CL   UNL     1      -0.428  10.586  21.571  0.00  0.00    +0.000 Cl
ATOM     27  C   UNL     1       1.119   8.527  20.812  0.00  0.00    +0.000 A 
ENDBRANCH  18  20
ENDBRANCH  16  18
ENDBRANCH  15  16
ENDBRANCH   1  15
TORSDOF 6
ENDMDL
MODEL 8
REMARK VINA RESULT:      -7.2      1.075      1.271
REMARK  Name = 
REMARK  7 active torsions:
REMARK  status: ('A' for Active; 'I' for Inactive)
REMARK    1  A    between atoms: C_1  and  C_2
REMARK    2  A    between atoms: N_10  and  C_11
REMARK    3  A    between atoms: C_11  and  C_12
REMARK    4  A    between atoms: C_12  and  O_13
REMARK    5  A    between atoms: O_13  and  C_14
REMARK    6  A    between atoms: C_14  and  N_16
REMARK    7  A    between atoms: N_16  and  C_17
REMARK                            x       y       z     vdW  Elec       q    Type
REMARK                         _______ _______ _______ _____ _____    ______ ____
ROOT
ATOM      1  C   UNL     1       4.440   6.961  17.535  0.00  0.00    +0.000 C 
ENDROOT
BRANCH   1   2
ATOM      2  C   UNL     1       2.941   7.190  17.318  0.00  0.00    +0.000 C 
BRANCH   2  12
ATOM      3  C   UNL     1      -0.261   9.668  23.559  0.00  0.00    +0.000 C 
ATOM      4  C   UNL     1       0.281   9.648  22.156  0.00  0.00    +0.000 A 
ATOM      5  C   UNL     1       0.162  10.778  21.311  0.00  0.00    +0.000 A 
ATOM      6  C   UNL     1       0.665  10.761  20.000  0.00  0.00    +0.000 A 
ATOM      7  C   UNL     1       1.281   9.606  19.565  0.00  0.00    +0.000 A 
ATOM      8  C   UNL     1       1.398   8.502  20.391  0.00  0.00    +0.000 A 
ATOM      9  C   UNL     1       0.906   8.485  21.680  0.00  0.00    +0.000 A 
ATOM     10  C   UNL     1       2.067   7.450  19.627  0.00  0.00    +0.000 C 
ATOM     11  O   UNL     1       2.255   6.321  20.036  0.00  0.00    +0.000 OA
ATOM     12  N   UNL     1       2.368   7.977  18.403  0.00  0.00    +0.000 N 
ATOM     13  C   UNL     1       1.880   9.252  18.274  0.00  0.00    +0.000 C 
ATOM     14  O   UNL     1       1.881   9.969  17.293  0.00  0.00    +0.000 OA
ENDBRANCH   2  12
ENDBRANCH   1   2
BRANCH   1  15
ATOM     15  O   UNL     1       5.075   6.380  16.368  0.00  0.00    +0.000 OA
BRANCH  15  16
ATOM     16  C   UNL     1       5.464   5.069  16.374  0.00  0.00    +0.000 C 
ATOM     17  S   UNL     1       7.051   4.559  16.319  0.00  0.00    +0.000 S 
BRANCH  16  18
ATOM     18  N   UNL     1       4.457   4.140  16.329  0.00  0.00    +0.000 N 
ATOM     19  H   UNL     1       4.363   3.675  15.434  0.00  0.00    +0.000 HD
BRANCH  18  20
ATOM     20  C   UNL     1       3.677   3.634  17.383  0.00  0.00    +0.000 A 
ATOM     21  C   UNL     1       2.285   3.740  17.393  0.00  0.00    +0.000 A 
ATOM     22  C   UNL     1       1.561   3.358  18.527  0.00  0.00    +0.000 A 
ATOM     23  C   UNL     1       2.218   2.836  19.643  0.00  0.00    +0.000 A 
ATOM     24 CL   UNL     1       1.259   2.406  21.013  0.00  0.00    +0.000 Cl
ATOM     25  C   UNL     1       3.610   2.700  19.624  0.00  0.00    +0.000 A 
ATOM     26 CL   UNL     1       4.490   2.027  20.951  0.00  0.00    +0.000 Cl
ATOM     27  C   UNL     1       4.338   3.122  18.505  0.00  0.00    +0.000 A 
ENDBRANCH  18  20
ENDBRANCH  16  18
ENDBRANCH  15  16
ENDBRANCH   1  15
TORSDOF 6
ENDMDL
MODEL 9
REMARK VINA RESULT:      -7.1      3.804      7.479
REMARK  Name = 
REMARK  7 active torsions:
REMARK  status: ('A' for Active; 'I' for Inactive)
REMARK    1  A    between atoms: C_1  and  C_2
REMARK    2  A    between atoms: N_10  and  C_11
REMARK    3  A    between atoms: C_11  and  C_12
REMARK    4  A    between atoms: C_12  and  O_13
REMARK    5  A    between atoms: O_13  and  C_14
REMARK    6  A    between atoms: C_14  and  N_16
REMARK    7  A    between atoms: N_16  and  C_17
REMARK                            x       y       z     vdW  Elec       q    Type
REMARK                         _______ _______ _______ _____ _____    ______ ____
ROOT
ATOM      1  C   UNL     1       5.493   4.640  19.098  0.00  0.00    +0.000 C 
ENDROOT
BRANCH   1   2
ATOM      2  C   UNL     1       5.232   5.794  18.126  0.00  0.00    +0.000 C 
BRANCH   2  12
ATOM      3  C   UNL     1       5.755   2.534  11.459  0.00  0.00    +0.000 C 
ATOM      4  C   UNL     1       6.072   3.422  12.631  0.00  0.00    +0.000 A 
ATOM      5  C   UNL     1       7.231   4.237  12.638  0.00  0.00    +0.000 A 
ATOM      6  C   UNL     1       7.531   5.065  13.732  0.00  0.00    +0.000 A 
ATOM      7  C   UNL     1       6.655   5.059  14.798  0.00  0.00    +0.000 A 
ATOM      8  C   UNL     1       5.523   4.264  14.792  0.00  0.00    +0.000 A 
ATOM      9  C   UNL     1       5.206   3.434  13.736  0.00  0.00    +0.000 A 
ATOM     10  C   UNL     1       4.834   4.468  16.065  0.00  0.00    +0.000 C 
ATOM     11  O   UNL     1       3.842   3.859  16.413  0.00  0.00    +0.000 OA
ATOM     12  N   UNL     1       5.546   5.408  16.756  0.00  0.00    +0.000 N 
ATOM     13  C   UNL     1       6.682   5.771  16.080  0.00  0.00    +0.000 C 
ATOM     14  O   UNL     1       7.584   6.500  16.447  0.00  0.00    +0.000 OA
ENDBRANCH   2  12
ENDBRANCH   1   2
BRANCH   1  15
ATOM     15  O   UNL     1       4.263   4.098  19.641  0.00  0.00    +0.000 OA
BRANCH  15  16
ATOM     16  C   UNL     1       3.114   4.840  19.623  0.00  0.00    +0.000 C 
ATOM     17  S   UNL     1       1.652   4.296  19.034  0.00  0.00    +0.000 S 
BRANCH  16  18
ATOM     18  N   UNL     1       3.230   6.141  20.038  0.00  0.00    +0.000 N 
ATOM     19  H   UNL     1       4.142   6.377  20.410  0.00  0.00    +0.000 HD
BRANCH  18  20
ATOM     20  C   UNL     1       2.333   7.207  19.855  0.00  0.00    +0.000 A 
ATOM     21  C   UNL     1       2.293   7.950  18.674  0.00  0.00    +0.000 A 
ATOM     22  C   UNL     1       1.491   9.093  18.591  0.00  0.00    +0.000 A 
ATOM     23  C   UNL     1       0.700   9.482  19.673  0.00  0.00    +0.000 A 
ATOM     24 CL   UNL     1      -0.248  10.916  19.503  0.00  0.00    +0.000 Cl
ATOM     25  C   UNL     1       0.714   8.723  20.848  0.00  0.00    +0.000 A 
ATOM     26 CL   UNL     1      -0.267   9.118  22.216  0.00  0.00    +0.000 Cl
ATOM     27  C   UNL     1       1.549   7.602  20.945  0.00  0.00    +0.000 A 
ENDBRANCH  18  20
ENDBRANCH  16  18
ENDBRANCH  15  16
ENDBRANCH   1  15
TORSDOF 6
ENDMDL
