MODEL 1
REMARK VINA RESULT:      -7.7      0.000      0.000
REMARK  Name = 
REMARK  7 active torsions:
REMARK  status: ('A' for Active; 'I' for Inactive)
REMARK    1  A    between atoms: C_1  and  C_2
REMARK    2  A    between atoms: C_2  and  C_3
REMARK    3  A    between atoms: C_3  and  C_4
REMARK    4  A    between atoms: C_4  and  C_5
REMARK    5  A    between atoms: C_8  and  N_9
REMARK    6  A    between atoms: N_9  and  C_10
REMARK    7  A    between atoms: C_12  and  C_13
REMARK                            x       y       z     vdW  Elec       q    Type
REMARK                         _______ _______ _______ _____ _____    ______ ____
ROOT
ATOM      1  N   UNL     1       3.568   4.448  18.275  0.00  0.00    +0.000 N 
ATOM      2  H   UNL     1       2.872   3.940  17.717  0.00  0.00    +0.000 HD
ENDROOT
BRANCH   1   3
ATOM      3  C   UNL     1       4.791   4.522  17.594  0.00  0.00    +0.000 A 
ATOM      4  C   UNL     1       4.905   4.234  16.283  0.00  0.00    +0.000 A 
ATOM      5  C   UNL     1       6.268   4.290  15.683  0.00  0.00    +0.000 A 
ATOM      6  C   UNL     1       6.380   3.953  14.218  0.00  0.00    +0.000 C 
ATOM      7  N   UNL     1       7.354   4.594  16.328  0.00  0.00    +0.000 NA
ATOM      8  C   UNL     1       7.216   4.890  17.656  0.00  0.00    +0.000 A 
ATOM      9  N   UNL     1       8.142   5.196  18.535  0.00  0.00    +0.000 NA
ATOM     10  C   UNL     1       7.445   5.365  19.691  0.00  0.00    +0.000 A 
ATOM     11  N   UNL     1       6.124   5.193  19.603  0.00  0.00    +0.000 NA
ATOM     12  N   UNL     1       5.965   4.873  18.293  0.00  0.00    +0.000 N 
ENDBRANCH   1   3
BRANCH   1  16
ATOM     13  C   UNL     1       1.717   7.914  19.906  0.00  0.00    +0.000 A 
ATOM     14  C   UNL     1       2.299   7.955  18.634  0.00  0.00    +0.000 A 
ATOM     15  C   UNL     1       2.892   6.815  18.088  0.00  0.00    +0.000 A 
ATOM     16  C   UNL     1       2.968   5.620  18.814  0.00  0.00    +0.000 A 
ATOM     17  C   UNL     1       2.355   5.568  20.071  0.00  0.00    +0.000 A 
ATOM     18  C   UNL     1       1.745   6.706  20.615  0.00  0.00    +0.000 A 
BRANCH  13  19
ATOM     19  C   UNL     1       1.082   9.146  20.504  0.00  0.00    +0.000 C 
BRANCH  19  20
ATOM     20  C   UNL     1       0.991   9.066  22.030  0.00  0.00    +0.000 C 
BRANCH  20  22
ATOM     21  C   UNL     1      -0.833  10.416  23.091  0.00  0.00    +0.000 C 
ATOM     22  C   UNL     1      -0.456   9.059  22.516  0.00  0.00    +0.000 C 
ENDBRANCH  20  22
ENDBRANCH  19  20
ENDBRANCH  13  19
ENDBRANCH   1  16
TORSDOF 5
ENDMDL
MODEL 2
REMARK VINA RESULT:      -7.5      2.321      7.810
REMARK  Name = 
REMARK  7 active torsions:
REMARK  status: ('A' for Active; 'I' for Inactive)
REMARK    1  A    between atoms: C_1  and  C_2
REMARK    2  A    between atoms: C_2  and  C_3
REMARK    3  A    between atoms: C_3  and  C_4
REMARK    4  A    between atoms: C_4  and  C_5
REMARK    5  A    between atoms: C_8  and  N_9
REMARK    6  A    between atoms: N_9  and  C_10
REMARK    7  A    between atoms: C_12  and  C_13
REMARK                            x       y       z     vdW  Elec       q    Type
REMARK                         _______ _______ _______ _____ _____    ______ ____
ROOT
ATOM      1  N   UNL     1       5.516   4.058  18.734  0.00  0.00    +0.000 N 
ATOM      2  H   UNL     1       6.315   4.360  19.303  0.00  0.00    +0.000 HD
ENDROOT
BRANCH   1   3
ATOM      3  C   UNL     1       4.323   4.610  19.221  0.00  0.00    +0.000 A 
ATOM      4  C   UNL     1       3.920   5.853  18.897  0.00  0.00    +0.000 A 
ATOM      5  C   UNL     1       2.664   6.354  19.524  0.00  0.00    +0.000 A 
ATOM      6  C   UNL     1       2.233   7.753  19.161  0.00  0.00    +0.000 C 
ATOM      7  N   UNL     1       1.931   5.684  20.360  0.00  0.00    +0.000 NA
ATOM      8  C   UNL     1       2.354   4.421  20.672  0.00  0.00    +0.000 A 
ATOM      9  N   UNL     1       1.823   3.552  21.501  0.00  0.00    +0.000 NA
ATOM     10  C   UNL     1       2.665   2.487  21.433  0.00  0.00    +0.000 A 
ATOM     11  N   UNL     1       3.703   2.618  20.603  0.00  0.00    +0.000 NA
ATOM     12  N   UNL     1       3.518   3.871  20.113  0.00  0.00    +0.000 N 
ENDBRANCH   1   3
BRANCH   1  16
ATOM     13  C   UNL     1       6.509   4.320  14.606  0.00  0.00    +0.000 A 
ATOM     14  C   UNL     1       7.417   4.749  15.580  0.00  0.00    +0.000 A 
ATOM     15  C   UNL     1       7.102   4.649  16.937  0.00  0.00    +0.000 A 
ATOM     16  C   UNL     1       5.855   4.168  17.357  0.00  0.00    +0.000 A 
ATOM     17  C   UNL     1       4.961   3.705  16.384  0.00  0.00    +0.000 A 
ATOM     18  C   UNL     1       5.282   3.790  15.023  0.00  0.00    +0.000 A 
BRANCH  13  19
ATOM     19  C   UNL     1       6.843   4.434  13.138  0.00  0.00    +0.000 C 
BRANCH  19  20
ATOM     20  C   UNL     1       6.090   3.403  12.294  0.00  0.00    +0.000 C 
BRANCH  20  22
ATOM     21  C   UNL     1       6.389   1.223  11.097  0.00  0.00    +0.000 C 
ATOM     22  C   UNL     1       7.038   2.552  11.451  0.00  0.00    +0.000 C 
ENDBRANCH  20  22
ENDBRANCH  19  20
ENDBRANCH  13  19
ENDBRANCH   1  16
TORSDOF 5
ENDMDL
MODEL 3
REMARK VINA RESULT:      -7.5      2.170      7.758
REMARK  Name = 
REMARK  7 active torsions:
REMARK  status: ('A' for Active; 'I' for Inactive)
REMARK    1  A    between atoms: C_1  and  C_2
REMARK    2  A    between atoms: C_2  and  C_3
REMARK    3  A    between atoms: C_3  and  C_4
REMARK    4  A    between atoms: C_4  and  C_5
REMARK    5  A    between atoms: C_8  and  N_9
REMARK    6  A    between atoms: N_9  and  C_10
REMARK    7  A    between atoms: C_12  and  C_13
REMARK                            x       y       z     vdW  Elec       q    Type
REMARK                         _______ _______ _______ _____ _____    ______ ____
ROOT
ATOM      1  N   UNL     1       5.422   4.343  18.950  0.00  0.00    +0.000 N 
ATOM      2  H   UNL     1       6.189   4.774  19.480  0.00  0.00    +0.000 HD
ENDROOT
BRANCH   1   3
ATOM      3  C   UNL     1       4.182   4.827  19.389  0.00  0.00    +0.000 A 
ATOM      4  C   UNL     1       3.774   6.087  19.151  0.00  0.00    +0.000 A 
ATOM      5  C   UNL     1       2.462   6.505  19.720  0.00  0.00    +0.000 A 
ATOM      6  C   UNL     1       2.026   7.924  19.454  0.00  0.00    +0.000 C 
ATOM      7  N   UNL     1       1.682   5.746  20.428  0.00  0.00    +0.000 NA
ATOM      8  C   UNL     1       2.111   4.467  20.654  0.00  0.00    +0.000 A 
ATOM      9  N   UNL     1       1.539   3.514  21.353  0.00  0.00    +0.000 NA
ATOM     10  C   UNL     1       2.409   2.475  21.254  0.00  0.00    +0.000 A 
ATOM     11  N   UNL     1       3.505   2.702  20.525  0.00  0.00    +0.000 NA
ATOM     12  N   UNL     1       3.328   3.992  20.141  0.00  0.00    +0.000 N 
ENDBRANCH   1   3
BRANCH   1  16
ATOM     13  C   UNL     1       6.438   4.420  14.819  0.00  0.00    +0.000 A 
ATOM     14  C   UNL     1       5.137   4.097  15.222  0.00  0.00    +0.000 A 
ATOM     15  C   UNL     1       4.795   4.088  16.576  0.00  0.00    +0.000 A 
ATOM     16  C   UNL     1       5.751   4.348  17.566  0.00  0.00    +0.000 A 
ATOM     17  C   UNL     1       7.043   4.706  17.162  0.00  0.00    +0.000 A 
ATOM     18  C   UNL     1       7.384   4.732  15.803  0.00  0.00    +0.000 A 
BRANCH  13  19
ATOM     19  C   UNL     1       6.813   4.424  13.357  0.00  0.00    +0.000 C 
BRANCH  19  20
ATOM     20  C   UNL     1       5.939   3.474  12.535  0.00  0.00    +0.000 C 
BRANCH  20  22
ATOM     21  C   UNL     1       6.020   1.323  11.253  0.00  0.00    +0.000 C 
ATOM     22  C   UNL     1       6.769   2.602  11.596  0.00  0.00    +0.000 C 
ENDBRANCH  20  22
ENDBRANCH  19  20
ENDBRANCH  13  19
ENDBRANCH   1  16
TORSDOF 5
ENDMDL
MODEL 4
REMARK VINA RESULT:      -7.4      1.319      2.072
REMARK  Name = 
REMARK  7 active torsions:
REMARK  status: ('A' for Active; 'I' for Inactive)
REMARK    1  A    between atoms: C_1  and  C_2
REMARK    2  A    between atoms: C_2  and  C_3
REMARK    3  A    between atoms: C_3  and  C_4
REMARK    4  A    between atoms: C_4  and  C_5
REMARK    5  A    between atoms: C_8  and  N_9
REMARK    6  A    between atoms: N_9  and  C_10
REMARK    7  A    between atoms: C_12  and  C_13
REMARK                            x       y       z     vdW  Elec       q    Type
REMARK                         _______ _______ _______ _____ _____    ______ ____
ROOT
ATOM      1  N   UNL     1       3.499   4.631  18.281  0.00  0.00    +0.000 N 
ATOM      2  H   UNL     1       2.812   4.047  17.789  0.00  0.00    +0.000 HD
ENDROOT
BRANCH   1   3
ATOM      3  C   UNL     1       4.727   4.629  17.604  0.00  0.00    +0.000 A 
ATOM      4  C   UNL     1       4.830   4.315  16.299  0.00  0.00    +0.000 A 
ATOM      5  C   UNL     1       6.196   4.289  15.705  0.00  0.00    +0.000 A 
ATOM      6  C   UNL     1       6.296   3.923  14.245  0.00  0.00    +0.000 C 
ATOM      7  N   UNL     1       7.294   4.544  16.349  0.00  0.00    +0.000 NA
ATOM      8  C   UNL     1       7.167   4.867  17.672  0.00  0.00    +0.000 A 
ATOM      9  N   UNL     1       8.105   5.137  18.551  0.00  0.00    +0.000 NA
ATOM     10  C   UNL     1       7.414   5.362  19.701  0.00  0.00    +0.000 A 
ATOM     11  N   UNL     1       6.085   5.259  19.610  0.00  0.00    +0.000 NA
ATOM     12  N   UNL     1       5.915   4.928  18.304  0.00  0.00    +0.000 N 
ENDBRANCH   1   3
BRANCH   1  16
ATOM     13  C   UNL     1       1.717   8.331  19.391  0.00  0.00    +0.000 A 
ATOM     14  C   UNL     1       1.748   7.262  20.293  0.00  0.00    +0.000 A 
ATOM     15  C   UNL     1       2.347   6.051  19.939  0.00  0.00    +0.000 A 
ATOM     16  C   UNL     1       2.884   5.857  18.660  0.00  0.00    +0.000 A 
ATOM     17  C   UNL     1       2.886   6.937  17.770  0.00  0.00    +0.000 A 
ATOM     18  C   UNL     1       2.299   8.158  18.130  0.00  0.00    +0.000 A 
BRANCH  13  19
ATOM     19  C   UNL     1       1.063   9.639  19.768  0.00  0.00    +0.000 C 
BRANCH  19  20
ATOM     20  C   UNL     1       0.403  10.320  18.566  0.00  0.00    +0.000 C 
BRANCH  20  22
ATOM     21  C   UNL     1      -1.755  10.019  17.330  0.00  0.00    +0.000 C 
ATOM     22  C   UNL     1      -1.120  10.324  18.678  0.00  0.00    +0.000 C 
ENDBRANCH  20  22
ENDBRANCH  19  20
ENDBRANCH  13  19
ENDBRANCH   1  16
TORSDOF 5
ENDMDL
MODEL 5
REMARK VINA RESULT:      -7.4      2.522      4.044
REMARK  Name = 
REMARK  7 active torsions:
REMARK  status: ('A' for Active; 'I' for Inactive)
REMARK    1  A    between atoms: C_1  and  C_2
REMARK    2  A    between atoms: C_2  and  C_3
REMARK    3  A    between atoms: C_3  and  C_4
REMARK    4  A    between atoms: C_4  and  C_5
REMARK    5  A    between atoms: C_8  and  N_9
REMARK    6  A    between atoms: N_9  and  C_10
REMARK    7  A    between atoms: C_12  and  C_13
REMARK                            x       y       z     vdW  Elec       q    Type
REMARK                         _______ _______ _______ _____ _____    ______ ____
ROOT
ATOM      1  N   UNL     1       2.953   6.439  19.920  0.00  0.00    +0.000 N 
ATOM      2  H   UNL     1       2.827   6.238  20.918  0.00  0.00    +0.000 HD
ENDROOT
BRANCH   1   3
ATOM      3  C   UNL     1       2.830   5.269  19.157  0.00  0.00    +0.000 A 
ATOM      4  C   UNL     1       1.828   4.390  19.343  0.00  0.00    +0.000 A 
ATOM      5  C   UNL     1       1.837   3.152  18.513  0.00  0.00    +0.000 A 
ATOM      6  C   UNL     1       0.715   2.171  18.743  0.00  0.00    +0.000 C 
ATOM      7  N   UNL     1       2.737   2.857  17.626  0.00  0.00    +0.000 NA
ATOM      8  C   UNL     1       3.743   3.767  17.447  0.00  0.00    +0.000 A 
ATOM      9  N   UNL     1       4.783   3.703  16.647  0.00  0.00    +0.000 NA
ATOM     10  C   UNL     1       5.453   4.859  16.898  0.00  0.00    +0.000 A 
ATOM     11  N   UNL     1       4.901   5.665  17.809  0.00  0.00    +0.000 NA
ATOM     12  N   UNL     1       3.800   4.963  18.179  0.00  0.00    +0.000 N 
ENDBRANCH   1   3
BRANCH   1  16
ATOM     13  C   UNL     1       0.671   9.894  18.940  0.00  0.00    +0.000 A 
ATOM     14  C   UNL     1       1.463   9.271  17.969  0.00  0.00    +0.000 A 
ATOM     15  C   UNL     1       2.200   8.127  18.282  0.00  0.00    +0.000 A 
ATOM     16  C   UNL     1       2.209   7.604  19.582  0.00  0.00    +0.000 A 
ATOM     17  C   UNL     1       1.389   8.206  20.544  0.00  0.00    +0.000 A 
ATOM     18  C   UNL     1       0.636   9.345  20.227  0.00  0.00    +0.000 A 
BRANCH  13  19
ATOM     19  C   UNL     1      -0.121  11.136  18.608  0.00  0.00    +0.000 C 
BRANCH  19  20
ATOM     20  C   UNL     1      -1.607  10.834  18.404  0.00  0.00    +0.000 C 
BRANCH  20  22
ATOM     21  C   UNL     1      -2.681  10.743  16.142  0.00  0.00    +0.000 C 
ATOM     22  C   UNL     1      -1.851   9.979  17.163  0.00  0.00    +0.000 C 
ENDBRANCH  20  22
ENDBRANCH  19  20
ENDBRANCH  13  19
ENDBRANCH   1  16
TORSDOF 5
ENDMDL
MODEL 6
REMARK VINA RESULT:      -7.4      2.449      4.078
REMARK  Name = 
REMARK  7 active torsions:
REMARK  status: ('A' for Active; 'I' for Inactive)
REMARK    1  A    between atoms: C_1  and  C_2
REMARK    2  A    between atoms: C_2  and  C_3
REMARK    3  A    between atoms: C_3  and  C_4
REMARK    4  A    between atoms: C_4  and  C_5
REMARK    5  A    between atoms: C_8  and  N_9
REMARK    6  A    between atoms: N_9  and  C_10
REMARK    7  A    between atoms: C_12  and  C_13
REMARK                            x       y       z     vdW  Elec       q    Type
REMARK                         _______ _______ _______ _____ _____    ______ ____
ROOT
ATOM      1  N   UNL     1       3.019   6.260  20.097  0.00  0.00    +0.000 N 
ATOM      2  H   UNL     1       2.546   5.775  20.869  0.00  0.00    +0.000 HD
ENDROOT
BRANCH   1   3
ATOM      3  C   UNL     1       3.454   5.346  19.128  0.00  0.00    +0.000 A 
ATOM      4  C   UNL     1       4.623   5.487  18.475  0.00  0.00    +0.000 A 
ATOM      5  C   UNL     1       4.949   4.484  17.423  0.00  0.00    +0.000 A 
ATOM      6  C   UNL     1       6.256   4.665  16.693  0.00  0.00    +0.000 C 
ATOM      7  N   UNL     1       4.192   3.484  17.087  0.00  0.00    +0.000 NA
ATOM      8  C   UNL     1       3.011   3.353  17.766  0.00  0.00    +0.000 A 
ATOM      9  N   UNL     1       2.060   2.462  17.607  0.00  0.00    +0.000 NA
ATOM     10  C   UNL     1       1.125   2.822  18.526  0.00  0.00    +0.000 A 
ATOM     11  N   UNL     1       1.423   3.889  19.272  0.00  0.00    +0.000 NA
ATOM     12  N   UNL     1       2.637   4.248  18.780  0.00  0.00    +0.000 N 
ENDBRANCH   1   3
BRANCH   1  16
ATOM     13  C   UNL     1       0.792   9.698  18.951  0.00  0.00    +0.000 A 
ATOM     14  C   UNL     1       0.760   9.244  20.273  0.00  0.00    +0.000 A 
ATOM     15  C   UNL     1       1.503   8.126  20.658  0.00  0.00    +0.000 A 
ATOM     16  C   UNL     1       2.255   7.401  19.725  0.00  0.00    +0.000 A 
ATOM     17  C   UNL     1       2.317   7.877  18.410  0.00  0.00    +0.000 A 
ATOM     18  C   UNL     1       1.584   9.008  18.026  0.00  0.00    +0.000 A 
BRANCH  13  19
ATOM     19  C   UNL     1      -0.017  10.902  18.529  0.00  0.00    +0.000 C 
BRANCH  19  20
ATOM     20  C   UNL     1      -1.511  10.585  18.424  0.00  0.00    +0.000 C 
BRANCH  20  22
ATOM     21  C   UNL     1      -2.633  10.804  16.195  0.00  0.00    +0.000 C 
ATOM     22  C   UNL     1      -1.853   9.877  17.114  0.00  0.00    +0.000 C 
ENDBRANCH  20  22
ENDBRANCH  19  20
ENDBRANCH  13  19
ENDBRANCH   1  16
TORSDOF 5
ENDMDL
MODEL 7
REMARK VINA RESULT:      -7.3      2.313      7.564
REMARK  Name = 
REMARK  7 active torsions:
REMARK  status: ('A' for Active; 'I' for Inactive)
REMARK    1  A    between atoms: C_1  and  C_2
REMARK    2  A    between atoms: C_2  and  C_3
REMARK    3  A    between atoms: C_3  and  C_4
REMARK    4  A    between atoms: C_4  and  C_5
REMARK    5  A    between atoms: C_8  and  N_9
REMARK    6  A    between atoms: N_9  and  C_10
REMARK    7  A    between atoms: C_12  and  C_13
REMARK                            x       y       z     vdW  Elec       q    Type
REMARK                         _______ _______ _______ _____ _____    ______ ____
ROOT
ATOM      1  N   UNL     1       6.158   5.062  17.792  0.00  0.00    +0.000 N 
ATOM      2  H   UNL     1       6.785   5.856  17.969  0.00  0.00    +0.000 HD
ENDROOT
BRANCH   1   3
ATOM      3  C   UNL     1       4.904   5.280  18.379  0.00  0.00    +0.000 A 
ATOM      4  C   UNL     1       4.224   6.432  18.222  0.00  0.00    +0.000 A 
ATOM      5  C   UNL     1       2.928   6.571  18.944  0.00  0.00    +0.000 A 
ATOM      6  C   UNL     1       2.187   7.872  18.768  0.00  0.00    +0.000 C 
ATOM      7  N   UNL     1       2.405   5.666  19.714  0.00  0.00    +0.000 NA
ATOM      8  C   UNL     1       3.107   4.500  19.856  0.00  0.00    +0.000 A 
ATOM      9  N   UNL     1       2.823   3.448  20.588  0.00  0.00    +0.000 NA
ATOM     10  C   UNL     1       3.869   2.609  20.365  0.00  0.00    +0.000 A 
ATOM     11  N   UNL     1       4.806   3.058  19.526  0.00  0.00    +0.000 NA
ATOM     12  N   UNL     1       4.328   4.286  19.199  0.00  0.00    +0.000 N 
ENDBRANCH   1   3
BRANCH   1  16
ATOM     13  C   UNL     1       6.457   3.994  13.685  0.00  0.00    +0.000 A 
ATOM     14  C   UNL     1       5.596   3.293  14.538  0.00  0.00    +0.000 A 
ATOM     15  C   UNL     1       5.482   3.651  15.882  0.00  0.00    +0.000 A 
ATOM     16  C   UNL     1       6.260   4.682  16.425  0.00  0.00    +0.000 A 
ATOM     17  C   UNL     1       7.093   5.407  15.565  0.00  0.00    +0.000 A 
ATOM     18  C   UNL     1       7.197   5.059  14.211  0.00  0.00    +0.000 A 
BRANCH  13  19
ATOM     19  C   UNL     1       6.588   3.604  12.232  0.00  0.00    +0.000 C 
BRANCH  19  20
ATOM     20  C   UNL     1       5.379   2.808  11.737  0.00  0.00    +0.000 C 
BRANCH  20  22
ATOM     21  C   UNL     1       3.308   3.161  10.373  0.00  0.00    +0.000 C 
ATOM     22  C   UNL     1       4.161   3.701  11.511  0.00  0.00    +0.000 C 
ENDBRANCH  20  22
ENDBRANCH  19  20
ENDBRANCH  13  19
ENDBRANCH   1  16
TORSDOF 5
ENDMDL
MODEL 8
REMARK VINA RESULT:      -7.3      1.080      2.695
REMARK  Name = 
REMARK  7 active torsions:
REMARK  status: ('A' for Active; 'I' for Inactive)
REMARK    1  A    between atoms: C_1  and  C_2
REMARK    2  A    between atoms: C_2  and  C_3
REMARK    3  A    between atoms: C_3  and  C_4
REMARK    4  A    between atoms: C_4  and  C_5
REMARK    5  A    between atoms: C_8  and  N_9
REMARK    6  A    between atoms: N_9  and  C_10
REMARK    7  A    between atoms: C_12  and  C_13
REMARK                            x       y       z     vdW  Elec       q    Type
REMARK                         _______ _______ _______ _____ _____    ______ ____
ROOT
ATOM      1  N   UNL     1       3.504   5.105  17.794  0.00  0.00    +0.000 N 
ATOM      2  H   UNL     1       3.091   5.007  16.860  0.00  0.00    +0.000 HD
ENDROOT
BRANCH   1   3
ATOM      3  C   UNL     1       4.903   5.070  17.725  0.00  0.00    +0.000 A 
ATOM      4  C   UNL     1       5.685   5.357  18.783  0.00  0.00    +0.000 A 
ATOM      5  C   UNL     1       7.160   5.344  18.572  0.00  0.00    +0.000 A 
ATOM      6  C   UNL     1       8.021   5.680  19.763  0.00  0.00    +0.000 C 
ATOM      7  N   UNL     1       7.749   5.078  17.445  0.00  0.00    +0.000 NA
ATOM      8  C   UNL     1       6.938   4.782  16.384  0.00  0.00    +0.000 A 
ATOM      9  N   UNL     1       7.266   4.509  15.143  0.00  0.00    +0.000 NA
ATOM     10  C   UNL     1       6.070   4.320  14.527  0.00  0.00    +0.000 A 
ATOM     11  N   UNL     1       4.990   4.449  15.302  0.00  0.00    +0.000 NA
ATOM     12  N   UNL     1       5.539   4.759  16.504  0.00  0.00    +0.000 N 
ENDBRANCH   1   3
BRANCH   1  16
ATOM     13  C   UNL     1       1.572   8.288  19.854  0.00  0.00    +0.000 A 
ATOM     14  C   UNL     1       1.757   7.050  20.479  0.00  0.00    +0.000 A 
ATOM     15  C   UNL     1       2.406   6.008  19.813  0.00  0.00    +0.000 A 
ATOM     16  C   UNL     1       2.840   6.155  18.489  0.00  0.00    +0.000 A 
ATOM     17  C   UNL     1       2.688   7.404  17.876  0.00  0.00    +0.000 A 
ATOM     18  C   UNL     1       2.052   8.456  18.549  0.00  0.00    +0.000 A 
BRANCH  13  19
ATOM     19  C   UNL     1       0.864   9.414  20.568  0.00  0.00    +0.000 C 
BRANCH  19  20
ATOM     20  C   UNL     1      -0.289   8.909  21.439  0.00  0.00    +0.000 C 
BRANCH  20  22
ATOM     21  C   UNL     1      -0.995  10.603  23.144  0.00  0.00    +0.000 C 
ATOM     22  C   UNL     1      -0.150   9.364  22.890  0.00  0.00    +0.000 C 
ENDBRANCH  20  22
ENDBRANCH  19  20
ENDBRANCH  13  19
ENDBRANCH   1  16
TORSDOF 5
ENDMDL
MODEL 9
REMARK VINA RESULT:      -7.3      2.418      4.038
REMARK  Name = 
REMARK  7 active torsions:
REMARK  status: ('A' for Active; 'I' for Inactive)
REMARK    1  A    between atoms: C_1  and  C_2
REMARK    2  A    between atoms: C_2  and  C_3
REMARK    3  A    between atoms: C_3  and  C_4
REMARK    4  A    between atoms: C_4  and  C_5
REMARK    5  A    between atoms: C_8  and  N_9
REMARK    6  A    between atoms: N_9  and  C_10
REMARK    7  A    between atoms: C_12  and  C_13
REMARK                            x       y       z     vdW  Elec       q    Type
REMARK                         _______ _______ _______ _____ _____    ______ ____
ROOT
ATOM      1  N   UNL     1       2.937   6.472  19.904  0.00  0.00    +0.000 N 
ATOM      2  H   UNL     1       2.854   6.261  20.906  0.00  0.00    +0.000 HD
ENDROOT
BRANCH   1   3
ATOM      3  C   UNL     1       2.803   5.305  19.139  0.00  0.00    +0.000 A 
ATOM      4  C   UNL     1       1.802   4.426  19.335  0.00  0.00    +0.000 A 
ATOM      5  C   UNL     1       1.798   3.191  18.500  0.00  0.00    +0.000 A 
ATOM      6  C   UNL     1       0.678   2.211  18.741  0.00  0.00    +0.000 C 
ATOM      7  N   UNL     1       2.686   2.899  17.599  0.00  0.00    +0.000 NA
ATOM      8  C   UNL     1       3.690   3.809  17.410  0.00  0.00    +0.000 A 
ATOM      9  N   UNL     1       4.718   3.748  16.595  0.00  0.00    +0.000 NA
ATOM     10  C   UNL     1       5.393   4.902  16.842  0.00  0.00    +0.000 A 
ATOM     11  N   UNL     1       4.855   5.705  17.763  0.00  0.00    +0.000 NA
ATOM     12  N   UNL     1       3.758   5.002  18.146  0.00  0.00    +0.000 N 
ENDBRANCH   1   3
BRANCH   1  16
ATOM     13  C   UNL     1       0.681   9.956  18.974  0.00  0.00    +0.000 A 
ATOM     14  C   UNL     1       0.669   9.431  20.271  0.00  0.00    +0.000 A 
ATOM     15  C   UNL     1       1.421   8.298  20.585  0.00  0.00    +0.000 A 
ATOM     16  C   UNL     1       2.164   7.627  19.604  0.00  0.00    +0.000 A 
ATOM     17  C   UNL     1       2.205   8.173  18.316  0.00  0.00    +0.000 A 
ATOM     18  C   UNL     1       1.463   9.320  18.003  0.00  0.00    +0.000 A 
BRANCH  13  19
ATOM     19  C   UNL     1      -0.138  11.177  18.629  0.00  0.00    +0.000 C 
BRANCH  19  20
ATOM     20  C   UNL     1      -1.536  11.128  19.250  0.00  0.00    +0.000 C 
BRANCH  20  22
ATOM     21  C   UNL     1      -2.732   9.810  17.486  0.00  0.00    +0.000 C 
ATOM     22  C   UNL     1      -2.634  11.156  18.188  0.00  0.00    +0.000 C 
ENDBRANCH  20  22
ENDBRANCH  19  20
ENDBRANCH  13  19
ENDBRANCH   1  16
TORSDOF 5
ENDMDL
