MODEL 1
REMARK VINA RESULT:      -8.5      0.000      0.000
REMARK  Name = 
REMARK  6 active torsions:
REMARK  status: ('A' for Active; 'I' for Inactive)
REMARK    1  A    between atoms: C_1  and  O_2
REMARK    2  A    between atoms: O_2  and  C_3
REMARK    3  A    between atoms: C_12  and  N_13
REMARK    4  A    between atoms: N_13  and  S_14
REMARK    5  A    between atoms: S_14  and  C_15
REMARK    6  A    between atoms: C_20  and  C_21
REMARK                            x       y       z     vdW  Elec       q    Type
REMARK                         _______ _______ _______ _____ _____    ______ ____
ROOT
ATOM      1  C   UNL     1       0.933   9.009  20.159  0.00  0.00    +0.000 A 
ATOM      2  C   UNL     1       0.729  10.335  19.727  0.00  0.00    +0.000 A 
ATOM      3  C   UNL     1       1.382  10.831  18.608  0.00  0.00    +0.000 A 
ATOM      4  C   UNL     1       2.245  10.007  17.910  0.00  0.00    +0.000 A 
ATOM      5  C   UNL     1       2.405   8.669  18.291  0.00  0.00    +0.000 A 
ATOM      6  C   UNL     1       1.724   8.107  19.393  0.00  0.00    +0.000 A 
ATOM      7  C   UNL     1       1.991   6.677  19.716  0.00  0.00    +0.000 A 
ATOM      8  C   UNL     1       1.407   5.963  20.779  0.00  0.00    +0.000 A 
ATOM      9  C   UNL     1       1.847   4.683  21.151  0.00  0.00    +0.000 A 
ATOM     10  C   UNL     1       2.847   4.064  20.421  0.00  0.00    +0.000 A 
ATOM     11  C   UNL     1       3.346   4.683  19.287  0.00  0.00    +0.000 A 
ATOM     12  C   UNL     1       2.914   5.975  18.913  0.00  0.00    +0.000 A 
ATOM     13  C   UNL     1       3.315   6.581  17.574  0.00  0.00    +0.000 C 
ATOM     14  O   UNL     1       3.361   8.011  17.556  0.00  0.00    +0.000 OA
ENDROOT
BRANCH  13  15
ATOM     15  C   UNL     1       4.656   6.070  17.047  0.00  0.00    +0.000 A 
ATOM     16  C   UNL     1       4.709   4.909  16.253  0.00  0.00    +0.000 A 
ATOM     17  C   UNL     1       5.937   4.339  15.910  0.00  0.00    +0.000 A 
ATOM     18  C   UNL     1       7.124   4.931  16.335  0.00  0.00    +0.000 A 
ATOM     19  C   UNL     1       7.087   6.105  17.086  0.00  0.00    +0.000 A 
ATOM     20  C   UNL     1       5.862   6.670  17.441  0.00  0.00    +0.000 A 
ENDBRANCH  13  15
BRANCH   1  22
ATOM     21  C   UNL     1       0.810   9.315  22.513  0.00  0.00    +0.000 C 
ATOM     22  O   UNL     1       0.386   8.595  21.352  0.00  0.00    +0.000 OA
ENDBRANCH   1  22
BRANCH  10  23
ATOM     23  N   UNL     1       3.397   2.811  20.812  0.00  0.00    +0.000 N 
ATOM     24  H   UNL     1       3.602   2.692  21.804  0.00  0.00    +0.000 HD
BRANCH  23  25
ATOM     25  S   UNL     1       4.661   2.184  19.874  0.00  0.00    +0.000 S 
ATOM     26  C   UNL     1       3.763   1.359  18.577  0.00  0.00    +0.000 C 
ATOM     27  O   UNL     1       5.448   3.251  19.308  0.00  0.00    +0.000 OA
ATOM     28  O   UNL     1       5.274   1.158  20.699  0.00  0.00    +0.000 OA
ENDBRANCH  23  25
ENDBRANCH  10  23
TORSDOF 4
ENDMDL
MODEL 2
REMARK VINA RESULT:      -8.1      2.210      4.593
REMARK  Name = 
REMARK  6 active torsions:
REMARK  status: ('A' for Active; 'I' for Inactive)
REMARK    1  A    between atoms: C_1  and  O_2
REMARK    2  A    between atoms: O_2  and  C_3
REMARK    3  A    between atoms: C_12  and  N_13
REMARK    4  A    between atoms: N_13  and  S_14
REMARK    5  A    between atoms: S_14  and  C_15
REMARK    6  A    between atoms: C_20  and  C_21
REMARK                            x       y       z     vdW  Elec       q    Type
REMARK                         _______ _______ _______ _____ _____    ______ ____
ROOT
ATOM      1  C   UNL     1       0.945  10.285  19.466  0.00  0.00    +0.000 A 
ATOM      2  C   UNL     1       0.039  10.957  20.310  0.00  0.00    +0.000 A 
ATOM      3  C   UNL     1      -0.556  10.309  21.383  0.00  0.00    +0.000 A 
ATOM      4  C   UNL     1      -0.250   8.982  21.624  0.00  0.00    +0.000 A 
ATOM      5  C   UNL     1       0.700   8.323  20.832  0.00  0.00    +0.000 A 
ATOM      6  C   UNL     1       1.366   8.957  19.760  0.00  0.00    +0.000 A 
ATOM      7  C   UNL     1       2.340   8.147  18.976  0.00  0.00    +0.000 A 
ATOM      8  C   UNL     1       3.084   8.615  17.876  0.00  0.00    +0.000 A 
ATOM      9  C   UNL     1       3.832   7.754  17.058  0.00  0.00    +0.000 A 
ATOM     10  C   UNL     1       3.899   6.405  17.365  0.00  0.00    +0.000 A 
ATOM     11  C   UNL     1       3.291   5.938  18.517  0.00  0.00    +0.000 A 
ATOM     12  C   UNL     1       2.530   6.797  19.339  0.00  0.00    +0.000 A 
ATOM     13  C   UNL     1       2.018   6.337  20.699  0.00  0.00    +0.000 C 
ATOM     14  O   UNL     1       0.824   6.990  21.140  0.00  0.00    +0.000 OA
ENDROOT
BRANCH  13  15
ATOM     15  C   UNL     1       1.778   4.830  20.785  0.00  0.00    +0.000 A 
ATOM     16  C   UNL     1       2.568   4.033  21.634  0.00  0.00    +0.000 A 
ATOM     17  C   UNL     1       2.473   2.640  21.593  0.00  0.00    +0.000 A 
ATOM     18  C   UNL     1       1.575   2.028  20.723  0.00  0.00    +0.000 A 
ATOM     19  C   UNL     1       0.755   2.806  19.906  0.00  0.00    +0.000 A 
ATOM     20  C   UNL     1       0.857   4.197  19.935  0.00  0.00    +0.000 A 
ENDBRANCH  13  15
BRANCH   1  22
ATOM     21  C   UNL     1       1.886  12.245  18.506  0.00  0.00    +0.000 C 
ATOM     22  O   UNL     1       1.403  10.910  18.329  0.00  0.00    +0.000 OA
ENDBRANCH   1  22
BRANCH  10  23
ATOM     23  N   UNL     1       4.562   5.475  16.516  0.00  0.00    +0.000 N 
ATOM     24  H   UNL     1       4.139   4.551  16.433  0.00  0.00    +0.000 HD
BRANCH  23  25
ATOM     25  S   UNL     1       6.244   5.334  16.674  0.00  0.00    +0.000 S 
ATOM     26  C   UNL     1       6.645   4.313  15.272  0.00  0.00    +0.000 C 
ATOM     27  O   UNL     1       6.876   6.622  16.525  0.00  0.00    +0.000 OA
ATOM     28  O   UNL     1       6.448   4.532  17.867  0.00  0.00    +0.000 OA
ENDBRANCH  23  25
ENDBRANCH  10  23
TORSDOF 4
ENDMDL
MODEL 3
REMARK VINA RESULT:      -7.6      2.199      4.593
REMARK  Name = 
REMARK  6 active torsions:
REMARK  status: ('A' for Active; 'I' for Inactive)
REMARK    1  A    between atoms: C_1  and  O_2
REMARK    2  A    between atoms: O_2  and  C_3
REMARK    3  A    between atoms: C_12  and  N_13
REMARK    4  A    between atoms: N_13  and  S_14
REMARK    5  A    between atoms: S_14  and  C_15
REMARK    6  A    between atoms: C_20  and  C_21
REMARK                            x       y       z     vdW  Elec       q    Type
REMARK                         _______ _______ _______ _____ _____    ______ ____
ROOT
ATOM      1  C   UNL     1       1.120  10.208  19.114  0.00  0.00    +0.000 A 
ATOM      2  C   UNL     1       0.153  10.879  19.890  0.00  0.00    +0.000 A 
ATOM      3  C   UNL     1      -0.490  10.240  20.940  0.00  0.00    +0.000 A 
ATOM      4  C   UNL     1      -0.172   8.926  21.227  0.00  0.00    +0.000 A 
ATOM      5  C   UNL     1       0.834   8.270  20.506  0.00  0.00    +0.000 A 
ATOM      6  C   UNL     1       1.549   8.895  19.460  0.00  0.00    +0.000 A 
ATOM      7  C   UNL     1       2.582   8.091  18.751  0.00  0.00    +0.000 A 
ATOM      8  C   UNL     1       3.379   8.552  17.686  0.00  0.00    +0.000 A 
ATOM      9  C   UNL     1       4.190   7.690  16.931  0.00  0.00    +0.000 A 
ATOM     10  C   UNL     1       4.266   6.349  17.270  0.00  0.00    +0.000 A 
ATOM     11  C   UNL     1       3.602   5.893  18.396  0.00  0.00    +0.000 A 
ATOM     12  C   UNL     1       2.777   6.753  19.154  0.00  0.00    +0.000 A 
ATOM     13  C   UNL     1       2.196   6.309  20.492  0.00  0.00    +0.000 C 
ATOM     14  O   UNL     1       0.966   6.947  20.849  0.00  0.00    +0.000 OA
ENDROOT
BRANCH  13  15
ATOM     15  C   UNL     1       1.981   4.800  20.596  0.00  0.00    +0.000 A 
ATOM     16  C   UNL     1       1.101   4.147  19.713  0.00  0.00    +0.000 A 
ATOM     17  C   UNL     1       0.767   2.804  19.907  0.00  0.00    +0.000 A 
ATOM     18  C   UNL     1       1.323   2.093  20.968  0.00  0.00    +0.000 A 
ATOM     19  C   UNL     1       2.229   2.716  21.825  0.00  0.00    +0.000 A 
ATOM     20  C   UNL     1       2.555   4.061  21.642  0.00  0.00    +0.000 A 
ENDBRANCH  13  15
BRANCH   1  22
ATOM     21  C   UNL     1       2.216  12.108  18.199  0.00  0.00    +0.000 C 
ATOM     22  O   UNL     1       1.630  10.820  17.992  0.00  0.00    +0.000 OA
ENDBRANCH   1  22
BRANCH  10  23
ATOM     23  N   UNL     1       4.995   5.415  16.482  0.00  0.00    +0.000 N 
ATOM     24  H   UNL     1       4.502   4.567  16.207  0.00  0.00    +0.000 HD
BRANCH  23  25
ATOM     25  S   UNL     1       6.573   5.041  16.973  0.00  0.00    +0.000 S 
ATOM     26  C   UNL     1       7.227   6.660  17.321  0.00  0.00    +0.000 C 
ATOM     27  O   UNL     1       6.555   4.261  18.186  0.00  0.00    +0.000 OA
ATOM     28  O   UNL     1       7.238   4.553  15.778  0.00  0.00    +0.000 OA
ENDBRANCH  23  25
ENDBRANCH  10  23
TORSDOF 4
ENDMDL
MODEL 4
REMARK VINA RESULT:      -7.5      2.334      4.748
REMARK  Name = 
REMARK  6 active torsions:
REMARK  status: ('A' for Active; 'I' for Inactive)
REMARK    1  A    between atoms: C_1  and  O_2
REMARK    2  A    between atoms: O_2  and  C_3
REMARK    3  A    between atoms: C_12  and  N_13
REMARK    4  A    between atoms: N_13  and  S_14
REMARK    5  A    between atoms: S_14  and  C_15
REMARK    6  A    between atoms: C_20  and  C_21
REMARK                            x       y       z     vdW  Elec       q    Type
REMARK                         _______ _______ _______ _____ _____    ______ ____
ROOT
ATOM      1  C   UNL     1       1.254  10.228  19.078  0.00  0.00    +0.000 A 
ATOM      2  C   UNL     1       0.367  10.993  19.862  0.00  0.00    +0.000 A 
ATOM      3  C   UNL     1      -0.279  10.438  20.957  0.00  0.00    +0.000 A 
ATOM      4  C   UNL     1      -0.045   9.115  21.281  0.00  0.00    +0.000 A 
ATOM      5  C   UNL     1       0.885   8.364  20.549  0.00  0.00    +0.000 A 
ATOM      6  C   UNL     1       1.602   8.900  19.457  0.00  0.00    +0.000 A 
ATOM      7  C   UNL     1       2.548   7.999  18.741  0.00  0.00    +0.000 A 
ATOM      8  C   UNL     1       3.334   8.365  17.632  0.00  0.00    +0.000 A 
ATOM      9  C   UNL     1       4.052   7.421  16.881  0.00  0.00    +0.000 A 
ATOM     10  C   UNL     1       4.046   6.091  17.266  0.00  0.00    +0.000 A 
ATOM     11  C   UNL     1       3.394   5.723  18.431  0.00  0.00    +0.000 A 
ATOM     12  C   UNL     1       2.662   6.665  19.186  0.00  0.00    +0.000 A 
ATOM     13  C   UNL     1       2.103   6.311  20.559  0.00  0.00    +0.000 C 
ATOM     14  O   UNL     1       0.936   7.047  20.935  0.00  0.00    +0.000 OA
ENDROOT
BRANCH  13  15
ATOM     15  C   UNL     1       1.786   4.825  20.726  0.00  0.00    +0.000 A 
ATOM     16  C   UNL     1       2.475   4.056  21.682  0.00  0.00    +0.000 A 
ATOM     17  C   UNL     1       2.317   2.669  21.727  0.00  0.00    +0.000 A 
ATOM     18  C   UNL     1       1.454   2.037  20.835  0.00  0.00    +0.000 A 
ATOM     19  C   UNL     1       0.733   2.791  19.910  0.00  0.00    +0.000 A 
ATOM     20  C   UNL     1       0.898   4.175  19.854  0.00  0.00    +0.000 A 
ENDBRANCH  13  15
BRANCH   1  22
ATOM     21  C   UNL     1       2.328  12.071  18.031  0.00  0.00    +0.000 C 
ATOM     22  O   UNL     1       1.763  10.762  17.916  0.00  0.00    +0.000 OA
ENDBRANCH   1  22
BRANCH  10  23
ATOM     23  N   UNL     1       4.677   5.081  16.487  0.00  0.00    +0.000 N 
ATOM     24  H   UNL     1       4.480   4.115  16.747  0.00  0.00    +0.000 HD
BRANCH  23  25
ATOM     25  S   UNL     1       6.327   5.271  16.149  0.00  0.00    +0.000 S 
ATOM     26  C   UNL     1       6.799   6.480  17.367  0.00  0.00    +0.000 C 
ATOM     27  O   UNL     1       7.039   4.041  16.393  0.00  0.00    +0.000 OA
ATOM     28  O   UNL     1       6.376   5.921  14.851  0.00  0.00    +0.000 OA
ENDBRANCH  23  25
ENDBRANCH  10  23
TORSDOF 4
ENDMDL
MODEL 5
REMARK VINA RESULT:      -7.3      1.000      1.086
REMARK  Name = 
REMARK  6 active torsions:
REMARK  status: ('A' for Active; 'I' for Inactive)
REMARK    1  A    between atoms: C_1  and  O_2
REMARK    2  A    between atoms: O_2  and  C_3
REMARK    3  A    between atoms: C_12  and  N_13
REMARK    4  A    between atoms: N_13  and  S_14
REMARK    5  A    between atoms: S_14  and  C_15
REMARK    6  A    between atoms: C_20  and  C_21
REMARK                            x       y       z     vdW  Elec       q    Type
REMARK                         _______ _______ _______ _____ _____    ______ ____
ROOT
ATOM      1  C   UNL     1       0.888   9.132  20.231  0.00  0.00    +0.000 A 
ATOM      2  C   UNL     1       0.615  10.480  19.923  0.00  0.00    +0.000 A 
ATOM      3  C   UNL     1       1.245  11.113  18.862  0.00  0.00    +0.000 A 
ATOM      4  C   UNL     1       2.154  10.406  18.098  0.00  0.00    +0.000 A 
ATOM      5  C   UNL     1       2.385   9.047  18.353  0.00  0.00    +0.000 A 
ATOM      6  C   UNL     1       1.730   8.349  19.392  0.00  0.00    +0.000 A 
ATOM      7  C   UNL     1       2.072   6.912  19.581  0.00  0.00    +0.000 A 
ATOM      8  C   UNL     1       1.523   6.070  20.568  0.00  0.00    +0.000 A 
ATOM      9  C   UNL     1       2.030   4.787  20.822  0.00  0.00    +0.000 A 
ATOM     10  C   UNL     1       3.065   4.293  20.046  0.00  0.00    +0.000 A 
ATOM     11  C   UNL     1       3.535   5.042  18.981  0.00  0.00    +0.000 A 
ATOM     12  C   UNL     1       3.035   6.338  18.725  0.00  0.00    +0.000 A 
ATOM     13  C   UNL     1       3.409   7.088  17.452  0.00  0.00    +0.000 C 
ATOM     14  O   UNL     1       3.378   8.514  17.569  0.00  0.00    +0.000 OA
ENDROOT
BRANCH  13  15
ATOM     15  C   UNL     1       4.777   6.701  16.892  0.00  0.00    +0.000 A 
ATOM     16  C   UNL     1       4.874   5.795  15.820  0.00  0.00    +0.000 A 
ATOM     17  C   UNL     1       6.117   5.304  15.413  0.00  0.00    +0.000 A 
ATOM     18  C   UNL     1       7.277   5.728  16.056  0.00  0.00    +0.000 A 
ATOM     19  C   UNL     1       7.201   6.658  17.092  0.00  0.00    +0.000 A 
ATOM     20  C   UNL     1       5.959   7.140  17.509  0.00  0.00    +0.000 A 
ENDBRANCH  13  15
BRANCH   1  22
ATOM     21  C   UNL     1       0.096   9.493  22.443  0.00  0.00    +0.000 C 
ATOM     22  O   UNL     1       0.359   8.579  21.376  0.00  0.00    +0.000 OA
ENDBRANCH   1  22
BRANCH  10  23
ATOM     23  N   UNL     1       3.679   3.039  20.324  0.00  0.00    +0.000 N 
ATOM     24  H   UNL     1       4.644   3.067  20.653  0.00  0.00    +0.000 HD
BRANCH  23  25
ATOM     25  S   UNL     1       3.487   1.805  19.178  0.00  0.00    +0.000 S 
ATOM     26  C   UNL     1       3.919   2.650  17.672  0.00  0.00    +0.000 C 
ATOM     27  O   UNL     1       4.430   0.740  19.418  0.00  0.00    +0.000 OA
ATOM     28  O   UNL     1       2.059   1.545  19.136  0.00  0.00    +0.000 OA
ENDBRANCH  23  25
ENDBRANCH  10  23
TORSDOF 4
ENDMDL
MODEL 6
REMARK VINA RESULT:      -7.3      2.413      4.485
REMARK  Name = 
REMARK  6 active torsions:
REMARK  status: ('A' for Active; 'I' for Inactive)
REMARK    1  A    between atoms: C_1  and  O_2
REMARK    2  A    between atoms: O_2  and  C_3
REMARK    3  A    between atoms: C_12  and  N_13
REMARK    4  A    between atoms: N_13  and  S_14
REMARK    5  A    between atoms: S_14  and  C_15
REMARK    6  A    between atoms: C_20  and  C_21
REMARK                            x       y       z     vdW  Elec       q    Type
REMARK                         _______ _______ _______ _____ _____    ______ ____
ROOT
ATOM      1  C   UNL     1       1.097   9.460  19.536  0.00  0.00    +0.000 A 
ATOM      2  C   UNL     1       0.153   9.842  20.511  0.00  0.00    +0.000 A 
ATOM      3  C   UNL     1      -0.273   8.948  21.482  0.00  0.00    +0.000 A 
ATOM      4  C   UNL     1       0.240   7.664  21.490  0.00  0.00    +0.000 A 
ATOM      5  C   UNL     1       1.227   7.293  20.567  0.00  0.00    +0.000 A 
ATOM      6  C   UNL     1       1.727   8.184  19.592  0.00  0.00    +0.000 A 
ATOM      7  C   UNL     1       2.760   7.671  18.650  0.00  0.00    +0.000 A 
ATOM      8  C   UNL     1       3.359   8.416  17.617  0.00  0.00    +0.000 A 
ATOM      9  C   UNL     1       4.175   7.822  16.643  0.00  0.00    +0.000 A 
ATOM     10  C   UNL     1       4.460   6.469  16.720  0.00  0.00    +0.000 A 
ATOM     11  C   UNL     1       3.998   5.736  17.800  0.00  0.00    +0.000 A 
ATOM     12  C   UNL     1       3.169   6.326  18.779  0.00  0.00    +0.000 A 
ATOM     13  C   UNL     1       2.814   5.583  20.062  0.00  0.00    +0.000 C 
ATOM     14  O   UNL     1       1.565   5.965  20.646  0.00  0.00    +0.000 OA
ENDROOT
BRANCH  13  15
ATOM     15  C   UNL     1       2.804   4.063  19.906  0.00  0.00    +0.000 A 
ATOM     16  C   UNL     1       4.004   3.333  20.001  0.00  0.00    +0.000 A 
ATOM     17  C   UNL     1       4.034   1.971  19.692  0.00  0.00    +0.000 A 
ATOM     18  C   UNL     1       2.866   1.318  19.307  0.00  0.00    +0.000 A 
ATOM     19  C   UNL     1       1.662   2.018  19.249  0.00  0.00    +0.000 A 
ATOM     20  C   UNL     1       1.631   3.382  19.545  0.00  0.00    +0.000 A 
ENDBRANCH  13  15
BRANCH   1  22
ATOM     21  C   UNL     1       1.522  11.699  18.861  0.00  0.00    +0.000 C 
ATOM     22  O   UNL     1       1.388  10.321  18.502  0.00  0.00    +0.000 OA
ENDBRANCH   1  22
BRANCH  10  23
ATOM     23  N   UNL     1       5.201   5.798  15.706  0.00  0.00    +0.000 N 
ATOM     24  H   UNL     1       4.717   5.055  15.203  0.00  0.00    +0.000 HD
BRANCH  23  25
ATOM     25  S   UNL     1       6.781   5.316  16.084  0.00  0.00    +0.000 S 
ATOM     26  C   UNL     1       7.302   6.629  17.167  0.00  0.00    +0.000 C 
ATOM     27  O   UNL     1       6.771   4.070  16.810  0.00  0.00    +0.000 OA
ATOM     28  O   UNL     1       7.526   5.455  14.845  0.00  0.00    +0.000 OA
ENDBRANCH  23  25
ENDBRANCH  10  23
TORSDOF 4
ENDMDL
MODEL 7
REMARK VINA RESULT:      -7.2      0.742      1.288
REMARK  Name = 
REMARK  6 active torsions:
REMARK  status: ('A' for Active; 'I' for Inactive)
REMARK    1  A    between atoms: C_1  and  O_2
REMARK    2  A    between atoms: O_2  and  C_3
REMARK    3  A    between atoms: C_12  and  N_13
REMARK    4  A    between atoms: N_13  and  S_14
REMARK    5  A    between atoms: S_14  and  C_15
REMARK    6  A    between atoms: C_20  and  C_21
REMARK                            x       y       z     vdW  Elec       q    Type
REMARK                         _______ _______ _______ _____ _____    ______ ____
ROOT
ATOM      1  C   UNL     1       0.972   9.044  20.117  0.00  0.00    +0.000 A 
ATOM      2  C   UNL     1       0.803  10.371  19.672  0.00  0.00    +0.000 A 
ATOM      3  C   UNL     1       1.466  10.838  18.547  0.00  0.00    +0.000 A 
ATOM      4  C   UNL     1       2.304   9.984  17.854  0.00  0.00    +0.000 A 
ATOM      5  C   UNL     1       2.428   8.645  18.248  0.00  0.00    +0.000 A 
ATOM      6  C   UNL     1       1.735   8.113  19.357  0.00  0.00    +0.000 A 
ATOM      7  C   UNL     1       1.964   6.680  19.694  0.00  0.00    +0.000 A 
ATOM      8  C   UNL     1       1.364   5.992  20.766  0.00  0.00    +0.000 A 
ATOM      9  C   UNL     1       1.770   4.705  21.148  0.00  0.00    +0.000 A 
ATOM     10  C   UNL     1       2.750   4.051  20.422  0.00  0.00    +0.000 A 
ATOM     11  C   UNL     1       3.262   4.645  19.281  0.00  0.00    +0.000 A 
ATOM     12  C   UNL     1       2.865   5.944  18.895  0.00  0.00    +0.000 A 
ATOM     13  C   UNL     1       3.278   6.527  17.548  0.00  0.00    +0.000 C 
ATOM     14  O   UNL     1       3.363   7.954  17.517  0.00  0.00    +0.000 OA
ENDROOT
BRANCH  13  15
ATOM     15  C   UNL     1       4.602   5.974  17.022  0.00  0.00    +0.000 A 
ATOM     16  C   UNL     1       5.816   6.601  17.358  0.00  0.00    +0.000 A 
ATOM     17  C   UNL     1       7.011   6.211  16.749  0.00  0.00    +0.000 A 
ATOM     18  C   UNL     1       7.012   5.176  15.816  0.00  0.00    +0.000 A 
ATOM     19  C   UNL     1       5.823   4.517  15.505  0.00  0.00    +0.000 A 
ATOM     20  C   UNL     1       4.626   4.914  16.102  0.00  0.00    +0.000 A 
ENDBRANCH  13  15
BRANCH   1  22
ATOM     21  C   UNL     1       0.962   9.281  22.482  0.00  0.00    +0.000 C 
ATOM     22  O   UNL     1       0.418   8.657  21.316  0.00  0.00    +0.000 OA
ENDBRANCH   1  22
BRANCH  10  23
ATOM     23  N   UNL     1       3.266   2.787  20.824  0.00  0.00    +0.000 N 
ATOM     24  H   UNL     1       3.502   2.683  21.810  0.00  0.00    +0.000 HD
BRANCH  23  25
ATOM     25  S   UNL     1       4.474   2.092  19.858  0.00  0.00    +0.000 S 
ATOM     26  C   UNL     1       5.416   3.527  19.386  0.00  0.00    +0.000 C 
ATOM     27  O   UNL     1       5.303   1.210  20.640  0.00  0.00    +0.000 OA
ATOM     28  O   UNL     1       3.784   1.617  18.671  0.00  0.00    +0.000 OA
ENDBRANCH  23  25
ENDBRANCH  10  23
TORSDOF 4
ENDMDL
MODEL 8
REMARK VINA RESULT:      -7.0      5.609      9.811
REMARK  Name = 
REMARK  6 active torsions:
REMARK  status: ('A' for Active; 'I' for Inactive)
REMARK    1  A    between atoms: C_1  and  O_2
REMARK    2  A    between atoms: O_2  and  C_3
REMARK    3  A    between atoms: C_12  and  N_13
REMARK    4  A    between atoms: N_13  and  S_14
REMARK    5  A    between atoms: S_14  and  C_15
REMARK    6  A    between atoms: C_20  and  C_21
REMARK                            x       y       z     vdW  Elec       q    Type
REMARK                         _______ _______ _______ _____ _____    ______ ____
ROOT
ATOM      1  C   UNL     1      -4.517  11.300  17.348  0.00  0.00    +0.000 A 
ATOM      2  C   UNL     1      -5.822  11.603  16.910  0.00  0.00    +0.000 A 
ATOM      3  C   UNL     1      -6.654  12.425  17.656  0.00  0.00    +0.000 A 
ATOM      4  C   UNL     1      -6.190  12.953  18.846  0.00  0.00    +0.000 A 
ATOM      5  C   UNL     1      -4.873  12.713  19.259  0.00  0.00    +0.000 A 
ATOM      6  C   UNL     1      -3.975  11.922  18.508  0.00  0.00    +0.000 A 
ATOM      7  C   UNL     1      -2.605  11.719  19.059  0.00  0.00    +0.000 A 
ATOM      8  C   UNL     1      -1.590  10.958  18.448  0.00  0.00    +0.000 A 
ATOM      9  C   UNL     1      -0.394  10.642  19.110  0.00  0.00    +0.000 A 
ATOM     10  C   UNL     1      -0.162  11.137  20.382  0.00  0.00    +0.000 A 
ATOM     11  C   UNL     1      -1.081  12.000  20.954  0.00  0.00    +0.000 A 
ATOM     12  C   UNL     1      -2.291  12.315  20.298  0.00  0.00    +0.000 A 
ATOM     13  C   UNL     1      -3.215  13.404  20.832  0.00  0.00    +0.000 C 
ATOM     14  O   UNL     1      -4.596  13.229  20.501  0.00  0.00    +0.000 OA
ENDROOT
BRANCH  13  15
ATOM     15  C   UNL     1      -3.124  13.597  22.345  0.00  0.00    +0.000 A 
ATOM     16  C   UNL     1      -3.848  12.757  23.212  0.00  0.00    +0.000 A 
ATOM     17  C   UNL     1      -3.908  13.030  24.581  0.00  0.00    +0.000 A 
ATOM     18  C   UNL     1      -3.229  14.129  25.103  0.00  0.00    +0.000 A 
ATOM     19  C   UNL     1      -2.474  14.945  24.262  0.00  0.00    +0.000 A 
ATOM     20  C   UNL     1      -2.422  14.683  22.893  0.00  0.00    +0.000 A 
ENDBRANCH  13  15
BRANCH   1  22
ATOM     21  C   UNL     1      -3.441  10.707  15.314  0.00  0.00    +0.000 C 
ATOM     22  O   UNL     1      -3.772  10.367  16.662  0.00  0.00    +0.000 OA
ENDBRANCH   1  22
BRANCH  10  23
ATOM     23  N   UNL     1       0.989  10.768  21.133  0.00  0.00    +0.000 N 
ATOM     24  H   UNL     1       1.886  10.828  20.653  0.00  0.00    +0.000 HD
BRANCH  23  25
ATOM     25  S   UNL     1       0.905   9.338  22.039  0.00  0.00    +0.000 S 
ATOM     26  C   UNL     1       1.448   8.133  20.847  0.00  0.00    +0.000 C 
ATOM     27  O   UNL     1       1.838   9.379  23.138  0.00  0.00    +0.000 OA
ATOM     28  O   UNL     1      -0.511   9.115  22.267  0.00  0.00    +0.000 OA
ENDBRANCH  23  25
ENDBRANCH  10  23
TORSDOF 4
ENDMDL
MODEL 9
REMARK VINA RESULT:      -6.7      9.084     11.401
REMARK  Name = 
REMARK  6 active torsions:
REMARK  status: ('A' for Active; 'I' for Inactive)
REMARK    1  A    between atoms: C_1  and  O_2
REMARK    2  A    between atoms: O_2  and  C_3
REMARK    3  A    between atoms: C_12  and  N_13
REMARK    4  A    between atoms: N_13  and  S_14
REMARK    5  A    between atoms: S_14  and  C_15
REMARK    6  A    between atoms: C_20  and  C_21
REMARK                            x       y       z     vdW  Elec       q    Type
REMARK                         _______ _______ _______ _____ _____    ______ ____
ROOT
ATOM      1  C   UNL     1       9.731  11.456  19.081  0.00  0.00    +0.000 A 
ATOM      2  C   UNL     1      10.283  11.569  17.789  0.00  0.00    +0.000 A 
ATOM      3  C   UNL     1      10.847  12.760  17.355  0.00  0.00    +0.000 A 
ATOM      4  C   UNL     1      10.867  13.848  18.207  0.00  0.00    +0.000 A 
ATOM      5  C   UNL     1      10.382  13.728  19.516  0.00  0.00    +0.000 A 
ATOM      6  C   UNL     1       9.843  12.523  20.017  0.00  0.00    +0.000 A 
ATOM      7  C   UNL     1       9.338  12.521  21.419  0.00  0.00    +0.000 A 
ATOM      8  C   UNL     1       8.765  11.414  22.074  0.00  0.00    +0.000 A 
ATOM      9  C   UNL     1       8.129  11.530  23.319  0.00  0.00    +0.000 A 
ATOM     10  C   UNL     1       8.108  12.753  23.967  0.00  0.00    +0.000 A 
ATOM     11  C   UNL     1       8.782  13.829  23.413  0.00  0.00    +0.000 A 
ATOM     12  C   UNL     1       9.415  13.722  22.155  0.00  0.00    +0.000 A 
ATOM     13  C   UNL     1      10.312  14.836  21.629  0.00  0.00    +0.000 C 
ATOM     14  O   UNL     1      10.388  14.917  20.202  0.00  0.00    +0.000 OA
ENDROOT
BRANCH  13  15
ATOM     15  C   UNL     1       9.936  16.223  22.150  0.00  0.00    +0.000 A 
ATOM     16  C   UNL     1      10.640  16.789  23.229  0.00  0.00    +0.000 A 
ATOM     17  C   UNL     1      10.199  17.975  23.822  0.00  0.00    +0.000 A 
ATOM     18  C   UNL     1       9.065  18.619  23.332  0.00  0.00    +0.000 A 
ATOM     19  C   UNL     1       8.383  18.092  22.237  0.00  0.00    +0.000 A 
ATOM     20  C   UNL     1       8.813  16.901  21.651  0.00  0.00    +0.000 A 
ENDBRANCH  13  15
BRANCH   1  22
ATOM     21  C   UNL     1       8.550   9.532  18.338  0.00  0.00    +0.000 C 
ATOM     22  O   UNL     1       9.049  10.311  19.428  0.00  0.00    +0.000 OA
ENDBRANCH   1  22
BRANCH  10  23
ATOM     23  N   UNL     1       7.395  12.947  25.184  0.00  0.00    +0.000 N 
ATOM     24  H   UNL     1       7.750  12.456  26.004  0.00  0.00    +0.000 HD
BRANCH  23  25
ATOM     25  S   UNL     1       5.705  12.840  25.124  0.00  0.00    +0.000 S 
ATOM     26  C   UNL     1       5.251  13.561  26.687  0.00  0.00    +0.000 C 
ATOM     27  O   UNL     1       5.183  13.651  24.052  0.00  0.00    +0.000 OA
ATOM     28  O   UNL     1       5.411  11.420  25.200  0.00  0.00    +0.000 OA
ENDBRANCH  23  25
ENDBRANCH  10  23
TORSDOF 4
ENDMDL
