MODEL 1
REMARK VINA RESULT:      -7.6      0.000      0.000
REMARK  Name = 
REMARK  7 active torsions:
REMARK  status: ('A' for Active; 'I' for Inactive)
REMARK    1  A    between atoms: C_1  and  O_2
REMARK    2  A    between atoms: O_2  and  C_3
REMARK    3  A    between atoms: C_6  and  N_7
REMARK    4  A    between atoms: N_10  and  C_11
REMARK    5  A    between atoms: C_11  and  C_12
REMARK    6  A    between atoms: C_12  and  C_13
REMARK    7  A    between atoms: C_13  and  N_14
REMARK                            x       y       z     vdW  Elec       q    Type
REMARK                         _______ _______ _______ _____ _____    ______ ____
ROOT
ATOM      1  N   UNL     1       2.549   6.304  20.421  0.00  0.00    +0.000 N 
ATOM      2  C   UNL     1       2.231   5.060  19.932  0.00  0.00    +0.000 C 
ATOM      3  O   UNL     1       1.465   4.817  19.007  0.00  0.00    +0.000 OA
ATOM      4  N   UNL     1       2.880   4.039  20.588  0.00  0.00    +0.000 N 
ATOM      5  H   UNL     1       3.285   6.353  21.107  0.00  0.00    +0.000 HD
ATOM      6  H   UNL     1       3.277   4.220  21.495  0.00  0.00    +0.000 HD
ENDROOT
BRANCH   1  10
ATOM      7  C   UNL     1       0.940  10.012  19.142  0.00  0.00    +0.000 A 
ATOM      8  C   UNL     1       1.713   9.252  18.271  0.00  0.00    +0.000 A 
ATOM      9  C   UNL     1       2.234   8.022  18.674  0.00  0.00    +0.000 A 
ATOM     10  C   UNL     1       2.019   7.538  19.966  0.00  0.00    +0.000 A 
ATOM     11  C   UNL     1       1.249   8.309  20.845  0.00  0.00    +0.000 A 
ATOM     12  C   UNL     1       0.711   9.541  20.434  0.00  0.00    +0.000 A 
BRANCH   7  14
ATOM     13  C   UNL     1       1.432  12.279  18.697  0.00  0.00    +0.000 C 
ATOM     14  O   UNL     1       0.510  11.201  18.629  0.00  0.00    +0.000 OA
ENDBRANCH   7  14
ENDBRANCH   1  10
BRANCH   4  15
ATOM     15  C   UNL     1       2.600   2.663  20.212  0.00  0.00    +0.000 C 
BRANCH  15  16
ATOM     16  C   UNL     1       3.781   1.989  19.517  0.00  0.00    +0.000 C 
BRANCH  16  17
ATOM     17  C   UNL     1       3.963   2.528  18.103  0.00  0.00    +0.000 C 
BRANCH  17  18
ATOM     18  N   UNL     1       4.881   3.638  18.059  0.00  0.00    +0.000 N 
ATOM     19  N   UNL     1       5.743   3.938  19.096  0.00  0.00    +0.000 NA
ATOM     20  C   UNL     1       6.385   4.980  18.665  0.00  0.00    +0.000 A 
ATOM     21  C   UNL     1       7.451   5.732  19.357  0.00  0.00    +0.000 A 
ATOM     22  C   UNL     1       8.002   6.774  18.710  0.00  0.00    +0.000 A 
ATOM     23  C   UNL     1       7.565   7.155  17.377  0.00  0.00    +0.000 A 
ATOM     24  C   UNL     1       6.583   6.468  16.774  0.00  0.00    +0.000 A 
ATOM     25  N   UNL     1       6.021   5.407  17.427  0.00  0.00    +0.000 N 
ATOM     26  C   UNL     1       5.027   4.557  17.007  0.00  0.00    +0.000 A 
ATOM     27  O   UNL     1       4.410   4.577  15.953  0.00  0.00    +0.000 OA
ENDBRANCH  17  18
ENDBRANCH  16  17
ENDBRANCH  15  16
ENDBRANCH   4  15
TORSDOF 6
ENDMDL
MODEL 2
REMARK VINA RESULT:      -7.6      0.734      1.217
REMARK  Name = 
REMARK  7 active torsions:
REMARK  status: ('A' for Active; 'I' for Inactive)
REMARK    1  A    between atoms: C_1  and  O_2
REMARK    2  A    between atoms: O_2  and  C_3
REMARK    3  A    between atoms: C_6  and  N_7
REMARK    4  A    between atoms: N_10  and  C_11
REMARK    5  A    between atoms: C_11  and  C_12
REMARK    6  A    between atoms: C_12  and  C_13
REMARK    7  A    between atoms: C_13  and  N_14
REMARK                            x       y       z     vdW  Elec       q    Type
REMARK                         _______ _______ _______ _____ _____    ______ ____
ROOT
ATOM      1  N   UNL     1       2.069   6.520  20.929  0.00  0.00    +0.000 N 
ATOM      2  C   UNL     1       1.945   5.248  20.425  0.00  0.00    +0.000 C 
ATOM      3  O   UNL     1       1.448   4.938  19.348  0.00  0.00    +0.000 OA
ATOM      4  N   UNL     1       2.460   4.283  21.260  0.00  0.00    +0.000 N 
ATOM      5  H   UNL     1       2.607   6.628  21.773  0.00  0.00    +0.000 HD
ATOM      6  H   UNL     1       2.607   4.508  22.230  0.00  0.00    +0.000 HD
ENDROOT
BRANCH   1  10
ATOM      7  C   UNL     1       0.735  10.052  19.000  0.00  0.00    +0.000 A 
ATOM      8  C   UNL     1       0.262   9.731  20.267  0.00  0.00    +0.000 A 
ATOM      9  C   UNL     1       0.707   8.581  20.920  0.00  0.00    +0.000 A 
ATOM     10  C   UNL     1       1.610   7.710  20.309  0.00  0.00    +0.000 A 
ATOM     11  C   UNL     1       2.078   8.029  19.029  0.00  0.00    +0.000 A 
ATOM     12  C   UNL     1       1.642   9.196  18.377  0.00  0.00    +0.000 A 
BRANCH   7  14
ATOM     13  C   UNL     1      -1.189  11.377  18.655  0.00  0.00    +0.000 C 
ATOM     14  O   UNL     1       0.206  11.192  18.468  0.00  0.00    +0.000 OA
ENDBRANCH   7  14
ENDBRANCH   1  10
BRANCH   4  15
ATOM     15  C   UNL     1       2.351   2.884  20.880  0.00  0.00    +0.000 C 
BRANCH  15  16
ATOM     16  C   UNL     1       3.674   2.301  20.387  0.00  0.00    +0.000 C 
BRANCH  16  17
ATOM     17  C   UNL     1       3.843   2.523  18.889  0.00  0.00    +0.000 C 
BRANCH  17  18
ATOM     18  N   UNL     1       4.745   3.610  18.600  0.00  0.00    +0.000 N 
ATOM     19  N   UNL     1       5.735   4.014  19.475  0.00  0.00    +0.000 NA
ATOM     20  C   UNL     1       6.312   4.992  18.848  0.00  0.00    +0.000 A 
ATOM     21  C   UNL     1       7.458   5.804  19.306  0.00  0.00    +0.000 A 
ATOM     22  C   UNL     1       7.917   6.760  18.478  0.00  0.00    +0.000 A 
ATOM     23  C   UNL     1       7.309   6.993  17.179  0.00  0.00    +0.000 A 
ATOM     24  C   UNL     1       6.258   6.254  16.790  0.00  0.00    +0.000 A 
ATOM     25  N   UNL     1       5.788   5.282  17.628  0.00  0.00    +0.000 N 
ATOM     26  C   UNL     1       4.751   4.402  17.440  0.00  0.00    +0.000 A 
ATOM     27  O   UNL     1       4.001   4.311  16.480  0.00  0.00    +0.000 OA
ENDBRANCH  17  18
ENDBRANCH  16  17
ENDBRANCH  15  16
ENDBRANCH   4  15
TORSDOF 6
ENDMDL
MODEL 3
REMARK VINA RESULT:      -7.2      4.433      7.168
REMARK  Name = 
REMARK  7 active torsions:
REMARK  status: ('A' for Active; 'I' for Inactive)
REMARK    1  A    between atoms: C_1  and  O_2
REMARK    2  A    between atoms: O_2  and  C_3
REMARK    3  A    between atoms: C_6  and  N_7
REMARK    4  A    between atoms: N_10  and  C_11
REMARK    5  A    between atoms: C_11  and  C_12
REMARK    6  A    between atoms: C_12  and  C_13
REMARK    7  A    between atoms: C_13  and  N_14
REMARK                            x       y       z     vdW  Elec       q    Type
REMARK                         _______ _______ _______ _____ _____    ______ ____
ROOT
ATOM      1  N   UNL     1       8.239   9.759  17.809  0.00  0.00    +0.000 N 
ATOM      2  C   UNL     1       8.172   8.421  18.112  0.00  0.00    +0.000 C 
ATOM      3  O   UNL     1       8.799   7.843  18.993  0.00  0.00    +0.000 OA
ATOM      4  N   UNL     1       7.288   7.729  17.315  0.00  0.00    +0.000 N 
ATOM      5  H   UNL     1       7.576  10.111  17.138  0.00  0.00    +0.000 HD
ATOM      6  H   UNL     1       6.997   8.140  16.444  0.00  0.00    +0.000 HD
ENDROOT
BRANCH   1  10
ATOM      7  C   UNL     1      10.736  12.570  19.767  0.00  0.00    +0.000 A 
ATOM      8  C   UNL     1      10.585  12.618  18.386  0.00  0.00    +0.000 A 
ATOM      9  C   UNL     1       9.753  11.710  17.731  0.00  0.00    +0.000 A 
ATOM     10  C   UNL     1       9.077  10.715  18.439  0.00  0.00    +0.000 A 
ATOM     11  C   UNL     1       9.236  10.662  19.829  0.00  0.00    +0.000 A 
ATOM     12  C   UNL     1      10.063  11.586  20.491  0.00  0.00    +0.000 A 
BRANCH   7  14
ATOM     13  C   UNL     1      12.229  14.347  19.331  0.00  0.00    +0.000 C 
ATOM     14  O   UNL     1      11.593  13.502  20.278  0.00  0.00    +0.000 OA
ENDBRANCH   7  14
ENDBRANCH   1  10
BRANCH   4  15
ATOM     15  C   UNL     1       7.152   6.292  17.488  0.00  0.00    +0.000 C 
BRANCH  15  16
ATOM     16  C   UNL     1       6.585   5.599  16.250  0.00  0.00    +0.000 C 
BRANCH  16  17
ATOM     17  C   UNL     1       5.135   6.002  16.015  0.00  0.00    +0.000 C 
BRANCH  17  18
ATOM     18  N   UNL     1       4.221   5.243  16.829  0.00  0.00    +0.000 N 
ATOM     19  N   UNL     1       4.044   3.881  16.684  0.00  0.00    +0.000 NA
ATOM     20  C   UNL     1       3.162   3.591  17.590  0.00  0.00    +0.000 A 
ATOM     21  C   UNL     1       2.594   2.264  17.905  0.00  0.00    +0.000 A 
ATOM     22  C   UNL     1       1.704   2.187  18.910  0.00  0.00    +0.000 A 
ATOM     23  C   UNL     1       1.308   3.365  19.663  0.00  0.00    +0.000 A 
ATOM     24  C   UNL     1       1.824   4.564  19.349  0.00  0.00    +0.000 A 
ATOM     25  N   UNL     1       2.729   4.647  18.328  0.00  0.00    +0.000 N 
ATOM     26  C   UNL     1       3.394   5.747  17.846  0.00  0.00    +0.000 A 
ATOM     27  O   UNL     1       3.305   6.908  18.218  0.00  0.00    +0.000 OA
ENDBRANCH  17  18
ENDBRANCH  16  17
ENDBRANCH  15  16
ENDBRANCH   4  15
TORSDOF 6
ENDMDL
MODEL 4
REMARK VINA RESULT:      -7.2      1.471      1.963
REMARK  Name = 
REMARK  7 active torsions:
REMARK  status: ('A' for Active; 'I' for Inactive)
REMARK    1  A    between atoms: C_1  and  O_2
REMARK    2  A    between atoms: O_2  and  C_3
REMARK    3  A    between atoms: C_6  and  N_7
REMARK    4  A    between atoms: N_10  and  C_11
REMARK    5  A    between atoms: C_11  and  C_12
REMARK    6  A    between atoms: C_12  and  C_13
REMARK    7  A    between atoms: C_13  and  N_14
REMARK                            x       y       z     vdW  Elec       q    Type
REMARK                         _______ _______ _______ _____ _____    ______ ____
ROOT
ATOM      1  N   UNL     1       2.148   6.353  20.889  0.00  0.00    +0.000 N 
ATOM      2  C   UNL     1       1.732   5.099  20.511  0.00  0.00    +0.000 C 
ATOM      3  O   UNL     1       0.977   4.833  19.583  0.00  0.00    +0.000 OA
ATOM      4  N   UNL     1       2.265   4.096  21.288  0.00  0.00    +0.000 N 
ATOM      5  H   UNL     1       2.863   6.405  21.596  0.00  0.00    +0.000 HD
ATOM      6  H   UNL     1       2.648   4.331  22.189  0.00  0.00    +0.000 HD
ENDROOT
BRANCH   1  10
ATOM      7  C   UNL     1       0.921  10.039  19.190  0.00  0.00    +0.000 A 
ATOM      8  C   UNL     1       1.713   9.164  18.456  0.00  0.00    +0.000 A 
ATOM      9  C   UNL     1       2.109   7.940  18.996  0.00  0.00    +0.000 A 
ATOM     10  C   UNL     1       1.748   7.577  20.295  0.00  0.00    +0.000 A 
ATOM     11  C   UNL     1       0.958   8.463  21.038  0.00  0.00    +0.000 A 
ATOM     12  C   UNL     1       0.546   9.689  20.488  0.00  0.00    +0.000 A 
BRANCH   7  14
ATOM     13  C   UNL     1       1.473  12.307  18.836  0.00  0.00    +0.000 C 
ATOM     14  O   UNL     1       0.622  11.207  18.552  0.00  0.00    +0.000 OA
ENDBRANCH   7  14
ENDBRANCH   1  10
BRANCH   4  15
ATOM     15  C   UNL     1       1.872   2.719  21.037  0.00  0.00    +0.000 C 
BRANCH  15  16
ATOM     16  C   UNL     1       2.563   2.122  19.812  0.00  0.00    +0.000 C 
BRANCH  16  17
ATOM     17  C   UNL     1       4.058   2.411  19.833  0.00  0.00    +0.000 C 
BRANCH  17  18
ATOM     18  N   UNL     1       4.455   3.302  18.773  0.00  0.00    +0.000 N 
ATOM     19  N   UNL     1       4.524   2.909  17.451  0.00  0.00    +0.000 NA
ATOM     20  C   UNL     1       4.905   3.984  16.834  0.00  0.00    +0.000 A 
ATOM     21  C   UNL     1       5.136   4.158  15.385  0.00  0.00    +0.000 A 
ATOM     22  C   UNL     1       5.507   5.377  14.953  0.00  0.00    +0.000 A 
ATOM     23  C   UNL     1       5.679   6.487  15.875  0.00  0.00    +0.000 A 
ATOM     24  C   UNL     1       5.480   6.302  17.189  0.00  0.00    +0.000 A 
ATOM     25  N   UNL     1       5.103   5.066  17.633  0.00  0.00    +0.000 N 
ATOM     26  C   UNL     1       4.829   4.649  18.912  0.00  0.00    +0.000 A 
ATOM     27  O   UNL     1       4.883   5.297  19.946  0.00  0.00    +0.000 OA
ENDBRANCH  17  18
ENDBRANCH  16  17
ENDBRANCH  15  16
ENDBRANCH   4  15
TORSDOF 6
ENDMDL
MODEL 5
REMARK VINA RESULT:      -7.2      3.644      8.338
REMARK  Name = 
REMARK  7 active torsions:
REMARK  status: ('A' for Active; 'I' for Inactive)
REMARK    1  A    between atoms: C_1  and  O_2
REMARK    2  A    between atoms: O_2  and  C_3
REMARK    3  A    between atoms: C_6  and  N_7
REMARK    4  A    between atoms: N_10  and  C_11
REMARK    5  A    between atoms: C_11  and  C_12
REMARK    6  A    between atoms: C_12  and  C_13
REMARK    7  A    between atoms: C_13  and  N_14
REMARK                            x       y       z     vdW  Elec       q    Type
REMARK                         _______ _______ _______ _____ _____    ______ ____
ROOT
ATOM      1  N   UNL     1       1.744   7.999  21.008  0.00  0.00    +0.000 N 
ATOM      2  C   UNL     1       0.558   8.388  21.583  0.00  0.00    +0.000 C 
ATOM      3  O   UNL     1      -0.509   7.788  21.525  0.00  0.00    +0.000 OA
ATOM      4  N   UNL     1       0.659   9.569  22.283  0.00  0.00    +0.000 N 
ATOM      5  H   UNL     1       2.564   8.534  21.242  0.00  0.00    +0.000 HD
ATOM      6  H   UNL     1       1.439  10.177  22.099  0.00  0.00    +0.000 HD
ENDROOT
BRANCH   1  10
ATOM      7  C   UNL     1       2.297   4.500  18.679  0.00  0.00    +0.000 A 
ATOM      8  C   UNL     1       2.569   5.749  18.133  0.00  0.00    +0.000 A 
ATOM      9  C   UNL     1       2.408   6.907  18.894  0.00  0.00    +0.000 A 
ATOM     10  C   UNL     1       1.943   6.845  20.208  0.00  0.00    +0.000 A 
ATOM     11  C   UNL     1       1.660   5.587  20.755  0.00  0.00    +0.000 A 
ATOM     12  C   UNL     1       1.837   4.419  19.993  0.00  0.00    +0.000 A 
BRANCH   7  14
ATOM     13  C   UNL     1       2.812   2.210  18.419  0.00  0.00    +0.000 C 
ATOM     14  O   UNL     1       2.478   3.453  17.822  0.00  0.00    +0.000 OA
ENDBRANCH   7  14
ENDBRANCH   1  10
BRANCH   4  15
ATOM     15  C   UNL     1      -0.531  10.130  22.901  0.00  0.00    +0.000 C 
BRANCH  15  16
ATOM     16  C   UNL     1      -0.780  11.582  22.495  0.00  0.00    +0.000 C 
BRANCH  16  17
ATOM     17  C   UNL     1      -0.114  11.897  21.161  0.00  0.00    +0.000 C 
BRANCH  17  18
ATOM     18  N   UNL     1      -0.937  11.521  20.040  0.00  0.00    +0.000 N 
ATOM     19  N   UNL     1      -2.207  12.025  19.843  0.00  0.00    +0.000 NA
ATOM     20  C   UNL     1      -2.594  11.452  18.745  0.00  0.00    +0.000 A 
ATOM     21  C   UNL     1      -3.881  11.626  18.041  0.00  0.00    +0.000 A 
ATOM     22  C   UNL     1      -4.063  10.948  16.894  0.00  0.00    +0.000 A 
ATOM     23  C   UNL     1      -3.036  10.069  16.362  0.00  0.00    +0.000 A 
ATOM     24  C   UNL     1      -1.880   9.913  17.026  0.00  0.00    +0.000 A 
ATOM     25  N   UNL     1      -1.690  10.600  18.192  0.00  0.00    +0.000 N 
ATOM     26  C   UNL     1      -0.597  10.613  19.024  0.00  0.00    +0.000 A 
ATOM     27  O   UNL     1       0.447   9.988  18.910  0.00  0.00    +0.000 OA
ENDBRANCH  17  18
ENDBRANCH  16  17
ENDBRANCH  15  16
ENDBRANCH   4  15
TORSDOF 6
ENDMDL
MODEL 6
REMARK VINA RESULT:      -7.2      1.000      1.201
REMARK  Name = 
REMARK  7 active torsions:
REMARK  status: ('A' for Active; 'I' for Inactive)
REMARK    1  A    between atoms: C_1  and  O_2
REMARK    2  A    between atoms: O_2  and  C_3
REMARK    3  A    between atoms: C_6  and  N_7
REMARK    4  A    between atoms: N_10  and  C_11
REMARK    5  A    between atoms: C_11  and  C_12
REMARK    6  A    between atoms: C_12  and  C_13
REMARK    7  A    between atoms: C_13  and  N_14
REMARK                            x       y       z     vdW  Elec       q    Type
REMARK                         _______ _______ _______ _____ _____    ______ ____
ROOT
ATOM      1  N   UNL     1       2.129   6.233  20.969  0.00  0.00    +0.000 N 
ATOM      2  C   UNL     1       1.751   4.983  20.542  0.00  0.00    +0.000 C 
ATOM      3  O   UNL     1       1.053   4.727  19.567  0.00  0.00    +0.000 OA
ATOM      4  N   UNL     1       2.252   3.969  21.328  0.00  0.00    +0.000 N 
ATOM      5  H   UNL     1       2.802   6.279  21.716  0.00  0.00    +0.000 HD
ATOM      6  H   UNL     1       2.580   4.190  22.253  0.00  0.00    +0.000 HD
ENDROOT
BRANCH   1  10
ATOM      7  C   UNL     1       0.959   9.942  19.281  0.00  0.00    +0.000 A 
ATOM      8  C   UNL     1       1.725   9.052  18.539  0.00  0.00    +0.000 A 
ATOM      9  C   UNL     1       2.102   7.820  19.076  0.00  0.00    +0.000 A 
ATOM     10  C   UNL     1       1.747   7.465  20.378  0.00  0.00    +0.000 A 
ATOM     11  C   UNL     1       0.983   8.366  21.128  0.00  0.00    +0.000 A 
ATOM     12  C   UNL     1       0.590   9.601  20.582  0.00  0.00    +0.000 A 
BRANCH   7  14
ATOM     13  C   UNL     1      -0.694  11.479  18.587  0.00  0.00    +0.000 C 
ATOM     14  O   UNL     1       0.677  11.117  18.645  0.00  0.00    +0.000 OA
ENDBRANCH   7  14
ENDBRANCH   1  10
BRANCH   4  15
ATOM     15  C   UNL     1       1.891   2.594  21.026  0.00  0.00    +0.000 C 
BRANCH  15  16
ATOM     16  C   UNL     1       2.458   2.114  19.691  0.00  0.00    +0.000 C 
BRANCH  16  17
ATOM     17  C   UNL     1       3.982   2.119  19.712  0.00  0.00    +0.000 C 
BRANCH  17  18
ATOM     18  N   UNL     1       4.531   3.248  19.006  0.00  0.00    +0.000 N 
ATOM     19  N   UNL     1       5.653   3.928  19.439  0.00  0.00    +0.000 NA
ATOM     20  C   UNL     1       5.814   4.850  18.540  0.00  0.00    +0.000 A 
ATOM     21  C   UNL     1       6.877   5.875  18.481  0.00  0.00    +0.000 A 
ATOM     22  C   UNL     1       6.869   6.723  17.438  0.00  0.00    +0.000 A 
ATOM     23  C   UNL     1       5.852   6.642  16.402  0.00  0.00    +0.000 A 
ATOM     24  C   UNL     1       4.887   5.713  16.485  0.00  0.00    +0.000 A 
ATOM     25  N   UNL     1       4.891   4.848  17.543  0.00  0.00    +0.000 N 
ATOM     26  C   UNL     1       4.027   3.819  17.825  0.00  0.00    +0.000 A 
ATOM     27  O   UNL     1       3.044   3.461  17.194  0.00  0.00    +0.000 OA
ENDBRANCH  17  18
ENDBRANCH  16  17
ENDBRANCH  15  16
ENDBRANCH   4  15
TORSDOF 6
ENDMDL
MODEL 7
REMARK VINA RESULT:      -7.1      4.126      6.769
REMARK  Name = 
REMARK  7 active torsions:
REMARK  status: ('A' for Active; 'I' for Inactive)
REMARK    1  A    between atoms: C_1  and  O_2
REMARK    2  A    between atoms: O_2  and  C_3
REMARK    3  A    between atoms: C_6  and  N_7
REMARK    4  A    between atoms: N_10  and  C_11
REMARK    5  A    between atoms: C_11  and  C_12
REMARK    6  A    between atoms: C_12  and  C_13
REMARK    7  A    between atoms: C_13  and  N_14
REMARK                            x       y       z     vdW  Elec       q    Type
REMARK                         _______ _______ _______ _____ _____    ______ ____
ROOT
ATOM      1  N   UNL     1       8.938   8.828  19.039  0.00  0.00    +0.000 N 
ATOM      2  C   UNL     1       8.062   8.324  18.109  0.00  0.00    +0.000 C 
ATOM      3  O   UNL     1       7.446   8.968  17.267  0.00  0.00    +0.000 OA
ATOM      4  N   UNL     1       7.921   6.957  18.183  0.00  0.00    +0.000 N 
ATOM      5  H   UNL     1       9.458   8.163  19.587  0.00  0.00    +0.000 HD
ATOM      6  H   UNL     1       8.204   6.485  19.026  0.00  0.00    +0.000 HD
ENDROOT
BRANCH   1  10
ATOM      7  C   UNL     1       9.915  12.928  19.494  0.00  0.00    +0.000 A 
ATOM      8  C   UNL     1       9.531  12.179  20.600  0.00  0.00    +0.000 A 
ATOM      9  C   UNL     1       9.223  10.824  20.467  0.00  0.00    +0.000 A 
ATOM     10  C   UNL     1       9.264  10.197  19.221  0.00  0.00    +0.000 A 
ATOM     11  C   UNL     1       9.642  10.955  18.106  0.00  0.00    +0.000 A 
ATOM     12  C   UNL     1       9.966  12.316  18.243  0.00  0.00    +0.000 A 
BRANCH   7  14
ATOM     13  C   UNL     1       9.147  15.159  19.396  0.00  0.00    +0.000 C 
ATOM     14  O   UNL     1      10.168  14.243  19.760  0.00  0.00    +0.000 OA
ENDBRANCH   7  14
ENDBRANCH   1  10
BRANCH   4  15
ATOM     15  C   UNL     1       6.985   6.290  17.293  0.00  0.00    +0.000 C 
BRANCH  15  16
ATOM     16  C   UNL     1       6.904   4.785  17.540  0.00  0.00    +0.000 C 
BRANCH  16  17
ATOM     17  C   UNL     1       5.673   4.188  16.870  0.00  0.00    +0.000 C 
BRANCH  17  18
ATOM     18  N   UNL     1       4.553   4.098  17.772  0.00  0.00    +0.000 N 
ATOM     19  N   UNL     1       4.067   5.185  18.472  0.00  0.00    +0.000 NA
ATOM     20  C   UNL     1       3.076   4.691  19.148  0.00  0.00    +0.000 A 
ATOM     21  C   UNL     1       2.171   5.405  20.072  0.00  0.00    +0.000 A 
ATOM     22  C   UNL     1       1.186   4.697  20.653  0.00  0.00    +0.000 A 
ATOM     23  C   UNL     1       1.013   3.279  20.388  0.00  0.00    +0.000 A 
ATOM     24  C   UNL     1       1.857   2.647  19.557  0.00  0.00    +0.000 A 
ATOM     25  N   UNL     1       2.860   3.362  18.965  0.00  0.00    +0.000 N 
ATOM     26  C   UNL     1       3.820   2.940  18.078  0.00  0.00    +0.000 A 
ATOM     27  O   UNL     1       3.999   1.814  17.636  0.00  0.00    +0.000 OA
ENDBRANCH  17  18
ENDBRANCH  16  17
ENDBRANCH  15  16
ENDBRANCH   4  15
TORSDOF 6
ENDMDL
MODEL 8
REMARK VINA RESULT:      -7.1      1.263      1.709
REMARK  Name = 
REMARK  7 active torsions:
REMARK  status: ('A' for Active; 'I' for Inactive)
REMARK    1  A    between atoms: C_1  and  O_2
REMARK    2  A    between atoms: O_2  and  C_3
REMARK    3  A    between atoms: C_6  and  N_7
REMARK    4  A    between atoms: N_10  and  C_11
REMARK    5  A    between atoms: C_11  and  C_12
REMARK    6  A    between atoms: C_12  and  C_13
REMARK    7  A    between atoms: C_13  and  N_14
REMARK                            x       y       z     vdW  Elec       q    Type
REMARK                         _______ _______ _______ _____ _____    ______ ____
ROOT
ATOM      1  N   UNL     1       2.230   7.353  20.419  0.00  0.00    +0.000 N 
ATOM      2  C   UNL     1       1.877   6.028  20.487  0.00  0.00    +0.000 C 
ATOM      3  O   UNL     1       0.748   5.584  20.662  0.00  0.00    +0.000 OA
ATOM      4  N   UNL     1       2.945   5.175  20.324  0.00  0.00    +0.000 N 
ATOM      5  H   UNL     1       3.177   7.563  20.153  0.00  0.00    +0.000 HD
ATOM      6  H   UNL     1       3.877   5.533  20.456  0.00  0.00    +0.000 HD
ENDROOT
BRANCH   1  10
ATOM      7  C   UNL     1      -0.392  10.663  20.802  0.00  0.00    +0.000 A 
ATOM      8  C   UNL     1      -0.109   9.870  21.907  0.00  0.00    +0.000 A 
ATOM      9  C   UNL     1       0.766   8.788  21.799  0.00  0.00    +0.000 A 
ATOM     10  C   UNL     1       1.353   8.457  20.577  0.00  0.00    +0.000 A 
ATOM     11  C   UNL     1       1.059   9.251  19.462  0.00  0.00    +0.000 A 
ATOM     12  C   UNL     1       0.190  10.351  19.574  0.00  0.00    +0.000 A 
BRANCH   7  14
ATOM     13  C   UNL     1      -1.599  12.495  19.927  0.00  0.00    +0.000 C 
ATOM     14  O   UNL     1      -1.277  11.675  21.040  0.00  0.00    +0.000 OA
ENDBRANCH   7  14
ENDBRANCH   1  10
BRANCH   4  15
ATOM     15  C   UNL     1       2.730   3.741  20.424  0.00  0.00    +0.000 C 
BRANCH  15  16
ATOM     16  C   UNL     1       2.627   3.062  19.060  0.00  0.00    +0.000 C 
BRANCH  16  17
ATOM     17  C   UNL     1       3.997   2.607  18.572  0.00  0.00    +0.000 C 
BRANCH  17  18
ATOM     18  N   UNL     1       4.904   3.712  18.391  0.00  0.00    +0.000 N 
ATOM     19  N   UNL     1       5.859   4.057  19.328  0.00  0.00    +0.000 NA
ATOM     20  C   UNL     1       6.455   5.077  18.791  0.00  0.00    +0.000 A 
ATOM     21  C   UNL     1       7.580   5.858  19.345  0.00  0.00    +0.000 A 
ATOM     22  C   UNL     1       8.066   6.868  18.602  0.00  0.00    +0.000 A 
ATOM     23  C   UNL     1       7.506   7.188  17.299  0.00  0.00    +0.000 A 
ATOM     24  C   UNL     1       6.473   6.475  16.822  0.00  0.00    +0.000 A 
ATOM     25  N   UNL     1       5.976   5.447  17.574  0.00  0.00    +0.000 N 
ATOM     26  C   UNL     1       4.950   4.581  17.289  0.00  0.00    +0.000 A 
ATOM     27  O   UNL     1       4.237   4.553  16.296  0.00  0.00    +0.000 OA
ENDBRANCH  17  18
ENDBRANCH  16  17
ENDBRANCH  15  16
ENDBRANCH   4  15
TORSDOF 6
ENDMDL
MODEL 9
REMARK VINA RESULT:      -7.1      4.659      7.239
REMARK  Name = 
REMARK  7 active torsions:
REMARK  status: ('A' for Active; 'I' for Inactive)
REMARK    1  A    between atoms: C_1  and  O_2
REMARK    2  A    between atoms: O_2  and  C_3
REMARK    3  A    between atoms: C_6  and  N_7
REMARK    4  A    between atoms: N_10  and  C_11
REMARK    5  A    between atoms: C_11  and  C_12
REMARK    6  A    between atoms: C_12  and  C_13
REMARK    7  A    between atoms: C_13  and  N_14
REMARK                            x       y       z     vdW  Elec       q    Type
REMARK                         _______ _______ _______ _____ _____    ______ ____
ROOT
ATOM      1  N   UNL     1       9.308   9.781  19.062  0.00  0.00    +0.000 N 
ATOM      2  C   UNL     1       8.579   8.946  18.251  0.00  0.00    +0.000 C 
ATOM      3  O   UNL     1       8.148   9.211  17.134  0.00  0.00    +0.000 OA
ATOM      4  N   UNL     1       8.361   7.706  18.808  0.00  0.00    +0.000 N 
ATOM      5  H   UNL     1       9.695   9.382  19.902  0.00  0.00    +0.000 HD
ATOM      6  H   UNL     1       8.473   7.594  19.802  0.00  0.00    +0.000 HD
ENDROOT
BRANCH   1  10
ATOM      7  C   UNL     1      10.461  13.769  18.201  0.00  0.00    +0.000 A 
ATOM      8  C   UNL     1       9.148  13.364  17.991  0.00  0.00    +0.000 A 
ATOM      9  C   UNL     1       8.752  12.059  18.286  0.00  0.00    +0.000 A 
ATOM     10  C   UNL     1       9.666  11.122  18.770  0.00  0.00    +0.000 A 
ATOM     11  C   UNL     1      10.990  11.528  18.973  0.00  0.00    +0.000 A 
ATOM     12  C   UNL     1      11.386  12.847  18.690  0.00  0.00    +0.000 A 
BRANCH   7  14
ATOM     13  C   UNL     1      10.955  15.961  18.926  0.00  0.00    +0.000 C 
ATOM     14  O   UNL     1      10.720  15.063  17.853  0.00  0.00    +0.000 OA
ENDBRANCH   7  14
ENDBRANCH   1  10
BRANCH   4  15
ATOM     15  C   UNL     1       7.558   6.734  18.083  0.00  0.00    +0.000 C 
BRANCH  15  16
ATOM     16  C   UNL     1       7.303   5.461  18.888  0.00  0.00    +0.000 C 
BRANCH  16  17
ATOM     17  C   UNL     1       6.425   4.490  18.109  0.00  0.00    +0.000 C 
BRANCH  17  18
ATOM     18  N   UNL     1       5.148   4.284  18.743  0.00  0.00    +0.000 N 
ATOM     19  N   UNL     1       4.902   3.236  19.608  0.00  0.00    +0.000 NA
ATOM     20  C   UNL     1       3.664   3.411  19.954  0.00  0.00    +0.000 A 
ATOM     21  C   UNL     1       2.861   2.589  20.883  0.00  0.00    +0.000 A 
ATOM     22  C   UNL     1       1.594   2.971  21.119  0.00  0.00    +0.000 A 
ATOM     23  C   UNL     1       1.026   4.148  20.484  0.00  0.00    +0.000 A 
ATOM     24  C   UNL     1       1.768   4.871  19.631  0.00  0.00    +0.000 A 
ATOM     25  N   UNL     1       3.057   4.488  19.388  0.00  0.00    +0.000 N 
ATOM     26  C   UNL     1       3.998   5.074  18.578  0.00  0.00    +0.000 A 
ATOM     27  O   UNL     1       3.879   6.067  17.876  0.00  0.00    +0.000 OA
ENDBRANCH  17  18
ENDBRANCH  16  17
ENDBRANCH  15  16
ENDBRANCH   4  15
TORSDOF 6
ENDMDL
