MODEL 1
REMARK VINA RESULT:      -8.4      0.000      0.000
REMARK  Name = 
REMARK  3 active torsions:
REMARK  status: ('A' for Active; 'I' for Inactive)
REMARK    1  A    between atoms: C_11  and  C_12
REMARK    2  A    between atoms: C_16  and  C_17
REMARK    3  A    between atoms: C_17  and  C_18
REMARK                            x       y       z     vdW  Elec       q    Type
REMARK                         _______ _______ _______ _____ _____    ______ ____
ROOT
ATOM      1  C   UNL     1       1.314   8.333  20.281  0.00  0.00    +0.000 A 
ATOM      2  N   UNL     1       1.337   7.143  20.991  0.00  0.00    +0.000 NA
ATOM      3  C   UNL     1       2.102   6.385  20.254  0.00  0.00    +0.000 A 
ATOM      4  S   UNL     1       2.676   4.776  20.352  0.00  0.00    +0.000 S 
ATOM      5  C   UNL     1       3.411   5.057  18.751  0.00  0.00    +0.000 A 
ATOM      6  N   UNL     1       3.270   6.240  18.212  0.00  0.00    +0.000 NA
ATOM      7  N   UNL     1       2.529   6.964  19.101  0.00  0.00    +0.000 N 
ATOM      8  C   UNL     1       2.020   8.232  19.092  0.00  0.00    +0.000 A 
ATOM      9 BR   UNL     1       2.221   9.513  17.760  0.00  0.00    +0.000 Br
ENDROOT
BRANCH   1  20
ATOM     10  O   UNL     1       1.756   9.323  22.884  0.00  0.00    +0.000 OA
ATOM     11  C   UNL     1       0.869   9.848  22.215  0.00  0.00    +0.000 A 
ATOM     12  O   UNL     1       0.070  10.852  22.759  0.00  0.00    +0.000 OA
ATOM     13  C   UNL     1      -0.889  11.536  21.992  0.00  0.00    +0.000 A 
ATOM     14  C   UNL     1      -1.607  12.554  22.614  0.00  0.00    +0.000 A 
ATOM     15  C   UNL     1      -2.546  13.271  21.877  0.00  0.00    +0.000 A 
ATOM     16  C   UNL     1      -2.758  12.960  20.530  0.00  0.00    +0.000 A 
ATOM     17  C   UNL     1      -2.038  11.925  19.922  0.00  0.00    +0.000 A 
ATOM     18  C   UNL     1      -1.095  11.202  20.658  0.00  0.00    +0.000 A 
ATOM     19  C   UNL     1      -0.337  10.102  20.084  0.00  0.00    +0.000 A 
ATOM     20  C   UNL     1       0.593   9.450  20.803  0.00  0.00    +0.000 A 
ENDBRANCH   1  20
BRANCH   5  21
ATOM     21  C   UNL     1       4.103   3.896  18.087  0.00  0.00    +0.000 C 
BRANCH  21  22
ATOM     22  C   UNL     1       5.020   4.276  16.947  0.00  0.00    +0.000 A 
ATOM     23  C   UNL     1       6.337   4.690  17.199  0.00  0.00    +0.000 A 
ATOM     24  C   UNL     1       7.208   4.980  16.143  0.00  0.00    +0.000 A 
ATOM     25  C   UNL     1       6.765   4.862  14.828  0.00  0.00    +0.000 A 
ATOM     26 CL   UNL     1       7.838   5.207  13.529  0.00  0.00    +0.000 Cl
ATOM     27  C   UNL     1       5.460   4.455  14.562  0.00  0.00    +0.000 A 
ATOM     28  C   UNL     1       4.590   4.163  15.617  0.00  0.00    +0.000 A 
ENDBRANCH  21  22
ENDBRANCH   5  21
TORSDOF 3
ENDMDL
MODEL 2
REMARK VINA RESULT:      -8.2      4.265      9.788
REMARK  Name = 
REMARK  3 active torsions:
REMARK  status: ('A' for Active; 'I' for Inactive)
REMARK    1  A    between atoms: C_11  and  C_12
REMARK    2  A    between atoms: C_16  and  C_17
REMARK    3  A    between atoms: C_17  and  C_18
REMARK                            x       y       z     vdW  Elec       q    Type
REMARK                         _______ _______ _______ _____ _____    ______ ____
ROOT
ATOM      1  C   UNL     1       1.680   8.017  19.999  0.00  0.00    +0.000 A 
ATOM      2  N   UNL     1       1.333   7.817  21.326  0.00  0.00    +0.000 NA
ATOM      3  C   UNL     1       0.702   8.919  21.625  0.00  0.00    +0.000 A 
ATOM      4  S   UNL     1      -0.063   9.540  23.024  0.00  0.00    +0.000 S 
ATOM      5  C   UNL     1      -0.319  11.037  22.088  0.00  0.00    +0.000 A 
ATOM      6  N   UNL     1       0.097  11.061  20.847  0.00  0.00    +0.000 NA
ATOM      7  N   UNL     1       0.661   9.838  20.624  0.00  0.00    +0.000 N 
ATOM      8  C   UNL     1       1.301   9.276  19.556  0.00  0.00    +0.000 A 
ATOM      9 BR   UNL     1       1.605  10.051  17.894  0.00  0.00    +0.000 Br
ENDROOT
BRANCH   1  20
ATOM     10  O   UNL     1       1.372   5.289  20.638  0.00  0.00    +0.000 OA
ATOM     11  C   UNL     1       2.172   5.582  19.754  0.00  0.00    +0.000 A 
ATOM     12  O   UNL     1       2.946   4.597  19.142  0.00  0.00    +0.000 OA
ATOM     13  C   UNL     1       3.801   4.887  18.065  0.00  0.00    +0.000 A 
ATOM     14  C   UNL     1       4.499   3.827  17.491  0.00  0.00    +0.000 A 
ATOM     15  C   UNL     1       5.334   4.073  16.405  0.00  0.00    +0.000 A 
ATOM     16  C   UNL     1       5.465   5.374  15.908  0.00  0.00    +0.000 A 
ATOM     17  C   UNL     1       4.768   6.431  16.504  0.00  0.00    +0.000 A 
ATOM     18  C   UNL     1       3.928   6.190  17.595  0.00  0.00    +0.000 A 
ATOM     19  C   UNL     1       3.199   7.254  18.267  0.00  0.00    +0.000 A 
ATOM     20  C   UNL     1       2.367   6.987  19.288  0.00  0.00    +0.000 A 
ENDBRANCH   1  20
BRANCH   5  21
ATOM     21  C   UNL     1      -0.945  12.207  22.798  0.00  0.00    +0.000 C 
BRANCH  21  22
ATOM     22  C   UNL     1      -2.417  12.404  22.512  0.00  0.00    +0.000 A 
ATOM     23  C   UNL     1      -3.347  12.456  23.561  0.00  0.00    +0.000 A 
ATOM     24  C   UNL     1      -4.700  12.702  23.303  0.00  0.00    +0.000 A 
ATOM     25  C   UNL     1      -5.131  12.895  21.993  0.00  0.00    +0.000 A 
ATOM     26 CL   UNL     1      -6.792  13.209  21.677  0.00  0.00    +0.000 Cl
ATOM     27  C   UNL     1      -4.221  12.843  20.941  0.00  0.00    +0.000 A 
ATOM     28  C   UNL     1      -2.868  12.598  21.198  0.00  0.00    +0.000 A 
ENDBRANCH  21  22
ENDBRANCH   5  21
TORSDOF 3
ENDMDL
MODEL 3
REMARK VINA RESULT:      -8.0      3.576      4.760
REMARK  Name = 
REMARK  3 active torsions:
REMARK  status: ('A' for Active; 'I' for Inactive)
REMARK    1  A    between atoms: C_11  and  C_12
REMARK    2  A    between atoms: C_16  and  C_17
REMARK    3  A    between atoms: C_17  and  C_18
REMARK                            x       y       z     vdW  Elec       q    Type
REMARK                         _______ _______ _______ _____ _____    ______ ____
ROOT
ATOM      1  C   UNL     1      -0.467  11.418  21.041  0.00  0.00    +0.000 A 
ATOM      2  N   UNL     1      -0.085  11.612  19.723  0.00  0.00    +0.000 NA
ATOM      3  C   UNL     1       0.567  10.516  19.449  0.00  0.00    +0.000 A 
ATOM      4  S   UNL     1       1.382   9.896  18.078  0.00  0.00    +0.000 S 
ATOM      5  C   UNL     1       1.852   8.522  19.114  0.00  0.00    +0.000 A 
ATOM      6  N   UNL     1       1.420   8.510  20.349  0.00  0.00    +0.000 NA
ATOM      7  N   UNL     1       0.689   9.655  20.494  0.00  0.00    +0.000 N 
ATOM      8  C   UNL     1       0.030  10.226  21.546  0.00  0.00    +0.000 A 
ATOM      9 BR   UNL     1      -0.132   9.548  23.269  0.00  0.00    +0.000 Br
ENDROOT
BRANCH   1  20
ATOM     10  O   UNL     1       0.682  13.693  22.247  0.00  0.00    +0.000 OA
ATOM     11  C   UNL     1      -0.533  13.541  22.353  0.00  0.00    +0.000 A 
ATOM     12  O   UNL     1      -1.296  14.432  23.105  0.00  0.00    +0.000 OA
ATOM     13  C   UNL     1      -2.697  14.338  23.170  0.00  0.00    +0.000 A 
ATOM     14  C   UNL     1      -3.375  15.303  23.911  0.00  0.00    +0.000 A 
ATOM     15  C   UNL     1      -4.765  15.258  23.975  0.00  0.00    +0.000 A 
ATOM     16  C   UNL     1      -5.460  14.248  23.300  0.00  0.00    +0.000 A 
ATOM     17  C   UNL     1      -4.764  13.278  22.570  0.00  0.00    +0.000 A 
ATOM     18  C   UNL     1      -3.369  13.319  22.504  0.00  0.00    +0.000 A 
ATOM     19  C   UNL     1      -2.594  12.323  21.781  0.00  0.00    +0.000 A 
ATOM     20  C   UNL     1      -1.255  12.410  21.699  0.00  0.00    +0.000 A 
ENDBRANCH   1  20
BRANCH   5  21
ATOM     21  C   UNL     1       2.767   7.483  18.523  0.00  0.00    +0.000 C 
BRANCH  21  22
ATOM     22  C   UNL     1       2.355   6.053  18.789  0.00  0.00    +0.000 A 
ATOM     23  C   UNL     1       2.031   5.194  17.728  0.00  0.00    +0.000 A 
ATOM     24  C   UNL     1       1.711   3.854  17.968  0.00  0.00    +0.000 A 
ATOM     25  C   UNL     1       1.710   3.365  19.271  0.00  0.00    +0.000 A 
ATOM     26 CL   UNL     1       1.329   1.714  19.565  0.00  0.00    +0.000 Cl
ATOM     27  C   UNL     1       2.026   4.205  20.336  0.00  0.00    +0.000 A 
ATOM     28  C   UNL     1       2.347   5.545  20.096  0.00  0.00    +0.000 A 
ENDBRANCH  21  22
ENDBRANCH   5  21
TORSDOF 3
ENDMDL
MODEL 4
REMARK VINA RESULT:      -7.8      3.505      4.717
REMARK  Name = 
REMARK  3 active torsions:
REMARK  status: ('A' for Active; 'I' for Inactive)
REMARK    1  A    between atoms: C_11  and  C_12
REMARK    2  A    between atoms: C_16  and  C_17
REMARK    3  A    between atoms: C_17  and  C_18
REMARK                            x       y       z     vdW  Elec       q    Type
REMARK                         _______ _______ _______ _____ _____    ______ ____
ROOT
ATOM      1  C   UNL     1      -0.531  11.366  20.514  0.00  0.00    +0.000 A 
ATOM      2  N   UNL     1       0.028  11.326  19.246  0.00  0.00    +0.000 NA
ATOM      3  C   UNL     1       0.689  10.202  19.261  0.00  0.00    +0.000 A 
ATOM      4  S   UNL     1       1.668   9.353  18.143  0.00  0.00    +0.000 S 
ATOM      5  C   UNL     1       1.968   8.186  19.458  0.00  0.00    +0.000 A 
ATOM      6  N   UNL     1       1.374   8.391  20.606  0.00  0.00    +0.000 NA
ATOM      7  N   UNL     1       0.653   9.540  20.447  0.00  0.00    +0.000 N 
ATOM      8  C   UNL     1      -0.129  10.285  21.283  0.00  0.00    +0.000 A 
ATOM      9 BR   UNL     1      -0.534   9.922  23.061  0.00  0.00    +0.000 Br
ENDROOT
BRANCH   1  20
ATOM     10  O   UNL     1       0.378  13.527  22.081  0.00  0.00    +0.000 OA
ATOM     11  C   UNL     1      -0.807  13.514  21.757  0.00  0.00    +0.000 A 
ATOM     12  O   UNL     1      -1.678  14.503  22.212  0.00  0.00    +0.000 OA
ATOM     13  C   UNL     1      -3.016  14.567  21.786  0.00  0.00    +0.000 A 
ATOM     14  C   UNL     1      -3.794  15.619  22.262  0.00  0.00    +0.000 A 
ATOM     15  C   UNL     1      -5.116  15.731  21.839  0.00  0.00    +0.000 A 
ATOM     16  C   UNL     1      -5.644  14.789  20.949  0.00  0.00    +0.000 A 
ATOM     17  C   UNL     1      -4.852  13.730  20.490  0.00  0.00    +0.000 A 
ATOM     18  C   UNL     1      -3.526  13.613  20.912  0.00  0.00    +0.000 A 
ATOM     19  C   UNL     1      -2.666  12.520  20.485  0.00  0.00    +0.000 A 
ATOM     20  C   UNL     1      -1.381  12.456  20.875  0.00  0.00    +0.000 A 
ENDBRANCH   1  20
BRANCH   5  21
ATOM     21  C   UNL     1       2.934   7.063  19.189  0.00  0.00    +0.000 C 
BRANCH  21  22
ATOM     22  C   UNL     1       2.301   5.694  19.094  0.00  0.00    +0.000 A 
ATOM     23  C   UNL     1       2.282   4.998  17.876  0.00  0.00    +0.000 A 
ATOM     24  C   UNL     1       1.754   3.705  17.800  0.00  0.00    +0.000 A 
ATOM     25  C   UNL     1       1.237   3.101  18.944  0.00  0.00    +0.000 A 
ATOM     26 CL   UNL     1       0.598   1.507  18.854  0.00  0.00    +0.000 Cl
ATOM     27  C   UNL     1       1.245   3.779  20.160  0.00  0.00    +0.000 A 
ATOM     28  C   UNL     1       1.774   5.072  20.236  0.00  0.00    +0.000 A 
ENDBRANCH  21  22
ENDBRANCH   5  21
TORSDOF 3
ENDMDL
MODEL 5
REMARK VINA RESULT:      -7.8      3.665      4.820
REMARK  Name = 
REMARK  3 active torsions:
REMARK  status: ('A' for Active; 'I' for Inactive)
REMARK    1  A    between atoms: C_11  and  C_12
REMARK    2  A    between atoms: C_16  and  C_17
REMARK    3  A    between atoms: C_17  and  C_18
REMARK                            x       y       z     vdW  Elec       q    Type
REMARK                         _______ _______ _______ _____ _____    ______ ____
ROOT
ATOM      1  C   UNL     1      -0.365  11.369  20.712  0.00  0.00    +0.000 A 
ATOM      2  N   UNL     1       0.177  11.652  19.468  0.00  0.00    +0.000 NA
ATOM      3  C   UNL     1       0.818  10.553  19.179  0.00  0.00    +0.000 A 
ATOM      4  S   UNL     1       1.767  10.009  17.863  0.00  0.00    +0.000 S 
ATOM      5  C   UNL     1       2.062   8.536  18.824  0.00  0.00    +0.000 A 
ATOM      6  N   UNL     1       1.486   8.445  19.996  0.00  0.00    +0.000 NA
ATOM      7  N   UNL     1       0.784   9.605  20.153  0.00  0.00    +0.000 N 
ATOM      8  C   UNL     1       0.026  10.118  21.167  0.00  0.00    +0.000 A 
ATOM      9 BR   UNL     1      -0.364   9.312  22.796  0.00  0.00    +0.000 Br
ENDROOT
BRANCH   1  20
ATOM     10  O   UNL     1      -2.915  12.065  19.730  0.00  0.00    +0.000 OA
ATOM     11  C   UNL     1      -2.496  12.670  20.714  0.00  0.00    +0.000 A 
ATOM     12  O   UNL     1      -3.235  13.710  21.275  0.00  0.00    +0.000 OA
ATOM     13  C   UNL     1      -2.827  14.359  22.454  0.00  0.00    +0.000 A 
ATOM     14  C   UNL     1      -3.657  15.356  22.961  0.00  0.00    +0.000 A 
ATOM     15  C   UNL     1      -3.299  16.001  24.142  0.00  0.00    +0.000 A 
ATOM     16  C   UNL     1      -2.116  15.644  24.798  0.00  0.00    +0.000 A 
ATOM     17  C   UNL     1      -1.287  14.650  24.269  0.00  0.00    +0.000 A 
ATOM     18  C   UNL     1      -1.641  14.000  23.084  0.00  0.00    +0.000 A 
ATOM     19  C   UNL     1      -0.805  12.976  22.477  0.00  0.00    +0.000 A 
ATOM     20  C   UNL     1      -1.191  12.339  21.358  0.00  0.00    +0.000 A 
ENDBRANCH   1  20
BRANCH   5  21
ATOM     21  C   UNL     1       3.004   7.508  18.256  0.00  0.00    +0.000 C 
BRANCH  21  22
ATOM     22  C   UNL     1       2.661   6.078  18.604  0.00  0.00    +0.000 A 
ATOM     23  C   UNL     1       1.784   5.337  17.798  0.00  0.00    +0.000 A 
ATOM     24  C   UNL     1       1.516   3.994  18.082  0.00  0.00    +0.000 A 
ATOM     25  C   UNL     1       2.121   3.384  19.177  0.00  0.00    +0.000 A 
ATOM     26 CL   UNL     1       1.801   1.729  19.520  0.00  0.00    +0.000 Cl
ATOM     27  C   UNL     1       2.992   4.106  19.990  0.00  0.00    +0.000 A 
ATOM     28  C   UNL     1       3.261   5.449  19.705  0.00  0.00    +0.000 A 
ENDBRANCH  21  22
ENDBRANCH   5  21
TORSDOF 3
ENDMDL
MODEL 6
REMARK VINA RESULT:      -7.7      5.212     10.550
REMARK  Name = 
REMARK  3 active torsions:
REMARK  status: ('A' for Active; 'I' for Inactive)
REMARK    1  A    between atoms: C_11  and  C_12
REMARK    2  A    between atoms: C_16  and  C_17
REMARK    3  A    between atoms: C_17  and  C_18
REMARK                            x       y       z     vdW  Elec       q    Type
REMARK                         _______ _______ _______ _____ _____    ______ ____
ROOT
ATOM      1  C   UNL     1       0.503  10.100  19.777  0.00  0.00    +0.000 A 
ATOM      2  N   UNL     1       0.845  10.885  20.867  0.00  0.00    +0.000 NA
ATOM      3  C   UNL     1      -0.138  11.741  20.924  0.00  0.00    +0.000 A 
ATOM      4  S   UNL     1      -0.545  13.061  21.934  0.00  0.00    +0.000 S 
ATOM      5  C   UNL     1      -1.927  13.332  20.840  0.00  0.00    +0.000 A 
ATOM      6  N   UNL     1      -2.088  12.504  19.840  0.00  0.00    +0.000 NA
ATOM      7  N   UNL     1      -1.057  11.614  19.930  0.00  0.00    +0.000 N 
ATOM      8  C   UNL     1      -0.655  10.556  19.164  0.00  0.00    +0.000 A 
ATOM      9 BR   UNL     1      -1.480   9.902  17.632  0.00  0.00    +0.000 Br
ENDROOT
BRANCH   1  20
ATOM     10  O   UNL     1       2.178  10.170  17.511  0.00  0.00    +0.000 OA
ATOM     11  C   UNL     1       2.136   9.127  18.158  0.00  0.00    +0.000 A 
ATOM     12  O   UNL     1       2.843   8.002  17.739  0.00  0.00    +0.000 OA
ATOM     13  C   UNL     1       2.889   6.825  18.507  0.00  0.00    +0.000 A 
ATOM     14  C   UNL     1       3.660   5.770  18.025  0.00  0.00    +0.000 A 
ATOM     15  C   UNL     1       3.751   4.599  18.772  0.00  0.00    +0.000 A 
ATOM     16  C   UNL     1       3.069   4.496  19.989  0.00  0.00    +0.000 A 
ATOM     17  C   UNL     1       2.288   5.560  20.454  0.00  0.00    +0.000 A 
ATOM     18  C   UNL     1       2.192   6.737  19.707  0.00  0.00    +0.000 A 
ATOM     19  C   UNL     1       1.377   7.864  20.130  0.00  0.00    +0.000 A 
ATOM     20  C   UNL     1       1.336   9.000  19.412  0.00  0.00    +0.000 A 
ENDBRANCH   1  20
BRANCH   5  21
ATOM     21  C   UNL     1      -2.796  14.534  21.098  0.00  0.00    +0.000 C 
BRANCH  21  22
ATOM     22  C   UNL     1      -4.000  14.267  21.971  0.00  0.00    +0.000 A 
ATOM     23  C   UNL     1      -4.316  15.126  23.034  0.00  0.00    +0.000 A 
ATOM     24  C   UNL     1      -5.465  14.917  23.804  0.00  0.00    +0.000 A 
ATOM     25  C   UNL     1      -6.305  13.843  23.517  0.00  0.00    +0.000 A 
ATOM     26 CL   UNL     1      -7.724  13.592  24.455  0.00  0.00    +0.000 Cl
ATOM     27  C   UNL     1      -6.004  12.979  22.467  0.00  0.00    +0.000 A 
ATOM     28  C   UNL     1      -4.855  13.189  21.697  0.00  0.00    +0.000 A 
ENDBRANCH  21  22
ENDBRANCH   5  21
TORSDOF 3
ENDMDL
MODEL 7
REMARK VINA RESULT:      -7.7      3.046      3.876
REMARK  Name = 
REMARK  3 active torsions:
REMARK  status: ('A' for Active; 'I' for Inactive)
REMARK    1  A    between atoms: C_11  and  C_12
REMARK    2  A    between atoms: C_16  and  C_17
REMARK    3  A    between atoms: C_17  and  C_18
REMARK                            x       y       z     vdW  Elec       q    Type
REMARK                         _______ _______ _______ _____ _____    ______ ____
ROOT
ATOM      1  C   UNL     1       0.140  11.110  20.919  0.00  0.00    +0.000 A 
ATOM      2  N   UNL     1       0.554   9.891  21.433  0.00  0.00    +0.000 NA
ATOM      3  C   UNL     1       1.127   9.328  20.405  0.00  0.00    +0.000 A 
ATOM      4  S   UNL     1       1.908   7.833  20.116  0.00  0.00    +0.000 S 
ATOM      5  C   UNL     1       2.030   8.349  18.413  0.00  0.00    +0.000 A 
ATOM      6  N   UNL     1       1.563   9.530  18.097  0.00  0.00    +0.000 NA
ATOM      7  N   UNL     1       1.068  10.053  19.257  0.00  0.00    +0.000 N 
ATOM      8  C   UNL     1       0.421  11.216  19.565  0.00  0.00    +0.000 A 
ATOM      9 BR   UNL     1       0.001  12.608  18.407  0.00  0.00    +0.000 Br
ENDROOT
BRANCH   1  20
ATOM     10  O   UNL     1       1.290  13.604  21.558  0.00  0.00    +0.000 OA
ATOM     11  C   UNL     1       0.222  13.314  22.091  0.00  0.00    +0.000 A 
ATOM     12  O   UNL     1      -0.358  14.166  23.029  0.00  0.00    +0.000 OA
ATOM     13  C   UNL     1      -1.622  13.906  23.586  0.00  0.00    +0.000 A 
ATOM     14  C   UNL     1      -2.137  14.841  24.482  0.00  0.00    +0.000 A 
ATOM     15  C   UNL     1      -3.398  14.631  25.032  0.00  0.00    +0.000 A 
ATOM     16  C   UNL     1      -4.128  13.489  24.683  0.00  0.00    +0.000 A 
ATOM     17  C   UNL     1      -3.592  12.553  23.792  0.00  0.00    +0.000 A 
ATOM     18  C   UNL     1      -2.326  12.759  23.238  0.00  0.00    +0.000 A 
ATOM     19  C   UNL     1      -1.711  11.807  22.326  0.00  0.00    +0.000 A 
ATOM     20  C   UNL     1      -0.509  12.051  21.775  0.00  0.00    +0.000 A 
ENDBRANCH   1  20
BRANCH   5  21
ATOM     21  C   UNL     1       2.611   7.371  17.427  0.00  0.00    +0.000 C 
BRANCH  21  22
ATOM     22  C   UNL     1       3.062   6.060  18.030  0.00  0.00    +0.000 A 
ATOM     23  C   UNL     1       4.367   5.914  18.526  0.00  0.00    +0.000 A 
ATOM     24  C   UNL     1       4.766   4.723  19.142  0.00  0.00    +0.000 A 
ATOM     25  C   UNL     1       3.864   3.669  19.262  0.00  0.00    +0.000 A 
ATOM     26 CL   UNL     1       4.351   2.209  20.029  0.00  0.00    +0.000 Cl
ATOM     27  C   UNL     1       2.567   3.797  18.772  0.00  0.00    +0.000 A 
ATOM     28  C   UNL     1       2.167   4.989  18.157  0.00  0.00    +0.000 A 
ENDBRANCH  21  22
ENDBRANCH   5  21
TORSDOF 3
ENDMDL
MODEL 8
REMARK VINA RESULT:      -7.7      3.664      4.872
REMARK  Name = 
REMARK  3 active torsions:
REMARK  status: ('A' for Active; 'I' for Inactive)
REMARK    1  A    between atoms: C_11  and  C_12
REMARK    2  A    between atoms: C_16  and  C_17
REMARK    3  A    between atoms: C_17  and  C_18
REMARK                            x       y       z     vdW  Elec       q    Type
REMARK                         _______ _______ _______ _____ _____    ______ ____
ROOT
ATOM      1  C   UNL     1      -0.768  11.513  20.237  0.00  0.00    +0.000 A 
ATOM      2  N   UNL     1      -0.217  11.396  18.970  0.00  0.00    +0.000 NA
ATOM      3  C   UNL     1       0.504  10.313  19.070  0.00  0.00    +0.000 A 
ATOM      4  S   UNL     1       1.518   9.426  18.016  0.00  0.00    +0.000 S 
ATOM      5  C   UNL     1       1.891   8.391  19.420  0.00  0.00    +0.000 A 
ATOM      6  N   UNL     1       1.295   8.661  20.554  0.00  0.00    +0.000 NA
ATOM      7  N   UNL     1       0.513   9.752  20.308  0.00  0.00    +0.000 N 
ATOM      8  C   UNL     1      -0.302  10.522  21.089  0.00  0.00    +0.000 A 
ATOM      9 BR   UNL     1      -0.674  10.289  22.895  0.00  0.00    +0.000 Br
ENDROOT
BRANCH   1  20
ATOM     10  O   UNL     1       0.116  14.030  21.147  0.00  0.00    +0.000 OA
ATOM     11  C   UNL     1      -1.095  13.851  21.049  0.00  0.00    +0.000 A 
ATOM     12  O   UNL     1      -1.993  14.841  21.443  0.00  0.00    +0.000 OA
ATOM     13  C   UNL     1      -3.380  14.702  21.258  0.00  0.00    +0.000 A 
ATOM     14  C   UNL     1      -4.192  15.766  21.643  0.00  0.00    +0.000 A 
ATOM     15  C   UNL     1      -5.568  15.675  21.449  0.00  0.00    +0.000 A 
ATOM     16  C   UNL     1      -6.114  14.521  20.876  0.00  0.00    +0.000 A 
ATOM     17  C   UNL     1      -5.286  13.455  20.507  0.00  0.00    +0.000 A 
ATOM     18  C   UNL     1      -3.905  13.542  20.700  0.00  0.00    +0.000 A 
ATOM     19  C   UNL     1      -3.001  12.455  20.357  0.00  0.00    +0.000 A 
ATOM     20  C   UNL     1      -1.672  12.582  20.516  0.00  0.00    +0.000 A 
ENDBRANCH   1  20
BRANCH   5  21
ATOM     21  C   UNL     1       2.914   7.303  19.234  0.00  0.00    +0.000 C 
BRANCH  21  22
ATOM     22  C   UNL     1       2.342   5.905  19.163  0.00  0.00    +0.000 A 
ATOM     23  C   UNL     1       1.935   5.241  20.330  0.00  0.00    +0.000 A 
ATOM     24  C   UNL     1       1.347   3.973  20.261  0.00  0.00    +0.000 A 
ATOM     25  C   UNL     1       1.167   3.360  19.024  0.00  0.00    +0.000 A 
ATOM     26 CL   UNL     1       0.433   1.807  18.938  0.00  0.00    +0.000 Cl
ATOM     27  C   UNL     1       1.568   4.005  17.857  0.00  0.00    +0.000 A 
ATOM     28  C   UNL     1       2.155   5.273  17.925  0.00  0.00    +0.000 A 
ENDBRANCH  21  22
ENDBRANCH   5  21
TORSDOF 3
ENDMDL
MODEL 9
REMARK VINA RESULT:      -7.6      4.146      9.754
REMARK  Name = 
REMARK  3 active torsions:
REMARK  status: ('A' for Active; 'I' for Inactive)
REMARK    1  A    between atoms: C_11  and  C_12
REMARK    2  A    between atoms: C_16  and  C_17
REMARK    3  A    between atoms: C_17  and  C_18
REMARK                            x       y       z     vdW  Elec       q    Type
REMARK                         _______ _______ _______ _____ _____    ______ ____
ROOT
ATOM      1  C   UNL     1       4.230   6.049  17.436  0.00  0.00    +0.000 A 
ATOM      2  N   UNL     1       3.620   7.291  17.365  0.00  0.00    +0.000 NA
ATOM      3  C   UNL     1       2.938   7.339  18.476  0.00  0.00    +0.000 A 
ATOM      4  S   UNL     1       1.899   8.479  19.217  0.00  0.00    +0.000 S 
ATOM      5  C   UNL     1       1.629   7.249  20.481  0.00  0.00    +0.000 A 
ATOM      6  N   UNL     1       2.273   6.114  20.378  0.00  0.00    +0.000 NA
ATOM      7  N   UNL     1       3.009   6.211  19.232  0.00  0.00    +0.000 N 
ATOM      8  C   UNL     1       3.838   5.352  18.569  0.00  0.00    +0.000 A 
ATOM      9 BR   UNL     1       4.308   3.627  19.080  0.00  0.00    +0.000 Br
ENDROOT
BRANCH   1  20
ATOM     10  O   UNL     1       6.952   6.780  17.399  0.00  0.00    +0.000 OA
ATOM     11  C   UNL     1       6.521   6.136  16.447  0.00  0.00    +0.000 A 
ATOM     12  O   UNL     1       7.341   5.841  15.360  0.00  0.00    +0.000 OA
ATOM     13  C   UNL     1       6.905   5.028  14.299  0.00  0.00    +0.000 A 
ATOM     14  C   UNL     1       7.814   4.753  13.280  0.00  0.00    +0.000 A 
ATOM     15  C   UNL     1       7.425   3.929  12.227  0.00  0.00    +0.000 A 
ATOM     16  C   UNL     1       6.134   3.392  12.205  0.00  0.00    +0.000 A 
ATOM     17  C   UNL     1       5.228   3.687  13.230  0.00  0.00    +0.000 A 
ATOM     18  C   UNL     1       5.612   4.514  14.288  0.00  0.00    +0.000 A 
ATOM     19  C   UNL     1       4.704   4.873  15.366  0.00  0.00    +0.000 A 
ATOM     20  C   UNL     1       5.114   5.638  16.393  0.00  0.00    +0.000 A 
ENDBRANCH   1  20
BRANCH   5  21
ATOM     21  C   UNL     1       0.632   7.566  21.563  0.00  0.00    +0.000 C 
BRANCH  21  22
ATOM     22  C   UNL     1       0.106   8.983  21.540  0.00  0.00    +0.000 A 
ATOM     23  C   UNL     1      -0.246   9.595  20.327  0.00  0.00    +0.000 A 
ATOM     24  C   UNL     1      -0.793  10.882  20.310  0.00  0.00    +0.000 A 
ATOM     25  C   UNL     1      -0.987  11.568  21.506  0.00  0.00    +0.000 A 
ATOM     26 CL   UNL     1      -1.670  13.146  21.486  0.00  0.00    +0.000 Cl
ATOM     27  C   UNL     1      -0.640  10.976  22.718  0.00  0.00    +0.000 A 
ATOM     28  C   UNL     1      -0.094   9.688  22.736  0.00  0.00    +0.000 A 
ENDBRANCH  21  22
ENDBRANCH   5  21
TORSDOF 3
ENDMDL
