MODEL 1
REMARK VINA RESULT:      -6.8      0.000      0.000
REMARK  Name = 
REMARK  9 active torsions:
REMARK  status: ('A' for Active; 'I' for Inactive)
REMARK    1  A    between atoms: C_1  and  C_2
REMARK    2  A    between atoms: C_2  and  C_3
REMARK    3  A    between atoms: C_3  and  O_4
REMARK    4  A    between atoms: O_4  and  C_5
REMARK    5  A    between atoms: C_9  and  C_10
REMARK    6  A    between atoms: C_10  and  C_11
REMARK    7  A    between atoms: C_11  and  N_12
REMARK    8  A    between atoms: N_12  and  C_13
REMARK    9  A    between atoms: N_21  and  C_22
REMARK                            x       y       z     vdW  Elec       q    Type
REMARK                         _______ _______ _______ _____ _____    ______ ____
ROOT
ATOM      1  C   UNL     1       2.660   6.683  18.050  0.00  0.00    +0.000 C 
ENDROOT
BRANCH   1   2
ATOM      2  N   UNL     1       2.147   6.055  19.282  0.00  0.00    +0.000 NA
ATOM      3  H   UNL     1       1.395   6.636  19.648  0.00  0.00    +0.000 HD
BRANCH   2   4
ATOM      4  C   UNL     1       1.631   4.694  19.076  0.00  0.00    +0.000 C 
ATOM      5  C   UNL     1       1.753   4.245  17.598  0.00  0.00    +0.000 C 
ATOM      6  C   UNL     1       2.843   3.246  17.169  0.00  0.00    +0.000 C 
ATOM      7  C   UNL     1       3.660   2.497  18.218  0.00  0.00    +0.000 C 
ATOM      8  C   UNL     1       3.256   2.833  19.597  0.00  0.00    +0.000 A 
ATOM      9  C   UNL     1       2.351   3.775  20.002  0.00  0.00    +0.000 A 
ATOM     10  C   UNL     1       2.255   3.587  21.396  0.00  0.00    +0.000 A 
ATOM     11  N   UNL     1       3.095   2.647  21.844  0.00  0.00    +0.000 NA
ATOM     12  N   UNL     1       3.743   2.245  20.730  0.00  0.00    +0.000 N 
ATOM     13  C   UNL     1       4.830   1.302  20.832  0.00  0.00    +0.000 C 
ENDBRANCH   2   4
ENDBRANCH   1   2
BRANCH   1  14
ATOM     14  C   UNL     1       4.135   7.116  18.082  0.00  0.00    +0.000 C 
BRANCH  14  19
ATOM     15  C   UNL     1       5.684   4.998  15.322  0.00  0.00    +0.000 A 
ATOM     16  C   UNL     1       6.695   4.346  16.020  0.00  0.00    +0.000 A 
ATOM     17  C   UNL     1       6.909   4.612  17.376  0.00  0.00    +0.000 A 
ATOM     18  C   UNL     1       6.091   5.525  18.039  0.00  0.00    +0.000 A 
ATOM     19  C   UNL     1       5.046   6.156  17.359  0.00  0.00    +0.000 A 
ATOM     20  C   UNL     1       4.844   5.888  15.995  0.00  0.00    +0.000 A 
BRANCH  15  21
ATOM     21  O   UNL     1       5.570   4.675  14.000  0.00  0.00    +0.000 OA
BRANCH  21  22
ATOM     22  C   UNL     1       6.672   3.958  13.438  0.00  0.00    +0.000 C 
BRANCH  22  24
ATOM     23  C   UNL     1       4.691   3.502  11.936  0.00  0.00    +0.000 C 
ATOM     24  C   UNL     1       6.151   3.201  12.220  0.00  0.00    +0.000 C 
ENDBRANCH  22  24
ENDBRANCH  21  22
ENDBRANCH  15  21
ENDBRANCH  14  19
ENDBRANCH   1  14
TORSDOF 7
ENDMDL
MODEL 2
REMARK VINA RESULT:      -6.5      1.719      3.130
REMARK  Name = 
REMARK  9 active torsions:
REMARK  status: ('A' for Active; 'I' for Inactive)
REMARK    1  A    between atoms: C_1  and  C_2
REMARK    2  A    between atoms: C_2  and  C_3
REMARK    3  A    between atoms: C_3  and  O_4
REMARK    4  A    between atoms: O_4  and  C_5
REMARK    5  A    between atoms: C_9  and  C_10
REMARK    6  A    between atoms: C_10  and  C_11
REMARK    7  A    between atoms: C_11  and  N_12
REMARK    8  A    between atoms: N_12  and  C_13
REMARK    9  A    between atoms: N_21  and  C_22
REMARK                            x       y       z     vdW  Elec       q    Type
REMARK                         _______ _______ _______ _____ _____    ______ ____
ROOT
ATOM      1  C   UNL     1       5.999   5.604  16.796  0.00  0.00    +0.000 C 
ENDROOT
BRANCH   1   2
ATOM      2  N   UNL     1       5.218   5.262  17.999  0.00  0.00    +0.000 NA
ATOM      3  H   UNL     1       5.164   6.089  18.591  0.00  0.00    +0.000 HD
BRANCH   2   4
ATOM      4  C   UNL     1       3.851   4.808  17.703  0.00  0.00    +0.000 C 
ATOM      5  C   UNL     1       3.843   3.499  16.872  0.00  0.00    +0.000 C 
ATOM      6  C   UNL     1       3.500   2.152  17.534  0.00  0.00    +0.000 C 
ATOM      7  C   UNL     1       2.928   2.109  18.948  0.00  0.00    +0.000 C 
ATOM      8  C   UNL     1       2.744   3.455  19.526  0.00  0.00    +0.000 A 
ATOM      9  C   UNL     1       3.117   4.657  18.991  0.00  0.00    +0.000 A 
ATOM     10  C   UNL     1       2.592   5.613  19.886  0.00  0.00    +0.000 A 
ATOM     11  N   UNL     1       1.998   5.049  20.945  0.00  0.00    +0.000 NA
ATOM     12  N   UNL     1       2.162   3.726  20.732  0.00  0.00    +0.000 N 
ATOM     13  C   UNL     1       1.745   2.780  21.738  0.00  0.00    +0.000 C 
ENDBRANCH   2   4
ENDBRANCH   1   2
BRANCH   1  14
ATOM     14  C   UNL     1       6.878   4.478  16.226  0.00  0.00    +0.000 C 
BRANCH  14  19
ATOM     15  C   UNL     1       6.122   3.691  12.577  0.00  0.00    +0.000 A 
ATOM     16  C   UNL     1       7.088   4.456  11.932  0.00  0.00    +0.000 A 
ATOM     17  C   UNL     1       7.965   5.260  12.667  0.00  0.00    +0.000 A 
ATOM     18  C   UNL     1       7.884   5.282  14.058  0.00  0.00    +0.000 A 
ATOM     19  C   UNL     1       6.944   4.487  14.720  0.00  0.00    +0.000 A 
ATOM     20  C   UNL     1       6.062   3.688  13.973  0.00  0.00    +0.000 A 
BRANCH  15  21
ATOM     21  O   UNL     1       5.308   2.953  11.766  0.00  0.00    +0.000 OA
BRANCH  21  22
ATOM     22  C   UNL     1       3.933   3.346  11.742  0.00  0.00    +0.000 C 
BRANCH  22  24
ATOM     23  C   UNL     1       2.879   4.278   9.642  0.00  0.00    +0.000 C 
ATOM     24  C   UNL     1       3.394   3.037  10.348  0.00  0.00    +0.000 C 
ENDBRANCH  22  24
ENDBRANCH  21  22
ENDBRANCH  15  21
ENDBRANCH  14  19
ENDBRANCH   1  14
TORSDOF 7
ENDMDL
MODEL 3
REMARK VINA RESULT:      -6.5      2.913      5.599
REMARK  Name = 
REMARK  9 active torsions:
REMARK  status: ('A' for Active; 'I' for Inactive)
REMARK    1  A    between atoms: C_1  and  C_2
REMARK    2  A    between atoms: C_2  and  C_3
REMARK    3  A    between atoms: C_3  and  O_4
REMARK    4  A    between atoms: O_4  and  C_5
REMARK    5  A    between atoms: C_9  and  C_10
REMARK    6  A    between atoms: C_10  and  C_11
REMARK    7  A    between atoms: C_11  and  N_12
REMARK    8  A    between atoms: N_12  and  C_13
REMARK    9  A    between atoms: N_21  and  C_22
REMARK                            x       y       z     vdW  Elec       q    Type
REMARK                         _______ _______ _______ _____ _____    ______ ____
ROOT
ATOM      1  C   UNL     1       1.671   4.643  20.939  0.00  0.00    +0.000 C 
ENDROOT
BRANCH   1   2
ATOM      2  N   UNL     1       1.112   5.897  20.400  0.00  0.00    +0.000 NA
ATOM      3  H   UNL     1       0.405   6.238  21.048  0.00  0.00    +0.000 HD
BRANCH   2   4
ATOM      4  C   UNL     1       2.118   6.953  20.205  0.00  0.00    +0.000 C 
ATOM      5  C   UNL     1       2.576   7.051  18.728  0.00  0.00    +0.000 C 
ATOM      6  C   UNL     1       2.079   8.197  17.827  0.00  0.00    +0.000 C 
ATOM      7  C   UNL     1       1.331   9.383  18.428  0.00  0.00    +0.000 C 
ATOM      8  C   UNL     1       1.192   9.281  19.894  0.00  0.00    +0.000 A 
ATOM      9  C   UNL     1       1.551   8.238  20.702  0.00  0.00    +0.000 A 
ATOM     10  C   UNL     1       1.320   8.715  22.009  0.00  0.00    +0.000 A 
ATOM     11  N   UNL     1       0.784   9.942  22.017  0.00  0.00    +0.000 NA
ATOM     12  N   UNL     1       0.656  10.240  20.706  0.00  0.00    +0.000 N 
ATOM     13  C   UNL     1      -0.003  11.460  20.309  0.00  0.00    +0.000 C 
ENDBRANCH   2   4
ENDBRANCH   1   2
BRANCH   1  14
ATOM     14  C   UNL     1       1.749   3.466  19.953  0.00  0.00    +0.000 C 
BRANCH  14  19
ATOM     15  C   UNL     1       5.237   4.005  18.523  0.00  0.00    +0.000 A 
ATOM     16  C   UNL     1       4.990   3.882  17.159  0.00  0.00    +0.000 A 
ATOM     17  C   UNL     1       3.705   3.587  16.694  0.00  0.00    +0.000 A 
ATOM     18  C   UNL     1       2.658   3.433  17.601  0.00  0.00    +0.000 A 
ATOM     19  C   UNL     1       2.886   3.594  18.971  0.00  0.00    +0.000 A 
ATOM     20  C   UNL     1       4.182   3.883  19.429  0.00  0.00    +0.000 A 
BRANCH  15  21
ATOM     21  O   UNL     1       6.529   4.280  18.871  0.00  0.00    +0.000 OA
BRANCH  21  22
ATOM     22  C   UNL     1       6.815   5.651  19.162  0.00  0.00    +0.000 C 
BRANCH  22  24
ATOM     23  C   UNL     1       7.295   7.529  17.540  0.00  0.00    +0.000 C 
ATOM     24  C   UNL     1       7.731   6.171  18.058  0.00  0.00    +0.000 C 
ENDBRANCH  22  24
ENDBRANCH  21  22
ENDBRANCH  15  21
ENDBRANCH  14  19
ENDBRANCH   1  14
TORSDOF 7
ENDMDL
MODEL 4
REMARK VINA RESULT:      -6.4      2.946      4.673
REMARK  Name = 
REMARK  9 active torsions:
REMARK  status: ('A' for Active; 'I' for Inactive)
REMARK    1  A    between atoms: C_1  and  C_2
REMARK    2  A    between atoms: C_2  and  C_3
REMARK    3  A    between atoms: C_3  and  O_4
REMARK    4  A    between atoms: O_4  and  C_5
REMARK    5  A    between atoms: C_9  and  C_10
REMARK    6  A    between atoms: C_10  and  C_11
REMARK    7  A    between atoms: C_11  and  N_12
REMARK    8  A    between atoms: N_12  and  C_13
REMARK    9  A    between atoms: N_21  and  C_22
REMARK                            x       y       z     vdW  Elec       q    Type
REMARK                         _______ _______ _______ _____ _____    ______ ____
ROOT
ATOM      1  C   UNL     1       4.999   4.696  15.716  0.00  0.00    +0.000 C 
ENDROOT
BRANCH   1   2
ATOM      2  N   UNL     1       3.981   4.403  16.742  0.00  0.00    +0.000 NA
ATOM      3  H   UNL     1       3.932   3.393  16.865  0.00  0.00    +0.000 HD
BRANCH   2   4
ATOM      4  C   UNL     1       4.267   5.021  18.046  0.00  0.00    +0.000 C 
ATOM      5  C   UNL     1       3.543   6.381  18.213  0.00  0.00    +0.000 C 
ATOM      6  C   UNL     1       2.296   6.501  19.108  0.00  0.00    +0.000 C 
ATOM      7  C   UNL     1       1.896   5.356  20.033  0.00  0.00    +0.000 C 
ATOM      8  C   UNL     1       2.830   4.216  19.960  0.00  0.00    +0.000 A 
ATOM      9  C   UNL     1       3.894   4.053  19.115  0.00  0.00    +0.000 A 
ATOM     10  C   UNL     1       4.510   2.864  19.558  0.00  0.00    +0.000 A 
ATOM     11  N   UNL     1       3.839   2.283  20.560  0.00  0.00    +0.000 NA
ATOM     12  N   UNL     1       2.778   3.098  20.744  0.00  0.00    +0.000 N 
ATOM     13  C   UNL     1       1.746   2.731  21.682  0.00  0.00    +0.000 C 
ENDBRANCH   2   4
ENDBRANCH   1   2
BRANCH   1  14
ATOM     14  C   UNL     1       6.444   4.317  16.078  0.00  0.00    +0.000 C 
BRANCH  14  19
ATOM     15  C   UNL     1       7.749   7.515  17.683  0.00  0.00    +0.000 A 
ATOM     16  C   UNL     1       8.273   7.023  18.874  0.00  0.00    +0.000 A 
ATOM     17  C   UNL     1       8.175   5.664  19.185  0.00  0.00    +0.000 A 
ATOM     18  C   UNL     1       7.565   4.790  18.287  0.00  0.00    +0.000 A 
ATOM     19  C   UNL     1       7.071   5.265  17.070  0.00  0.00    +0.000 A 
ATOM     20  C   UNL     1       7.167   6.634  16.769  0.00  0.00    +0.000 A 
BRANCH  15  21
ATOM     21  O   UNL     1       7.885   8.859  17.483  0.00  0.00    +0.000 OA
BRANCH  21  22
ATOM     22  C   UNL     1       8.658   9.558  18.462  0.00  0.00    +0.000 C 
BRANCH  22  24
ATOM     23  C   UNL     1      10.273  11.440  17.974  0.00  0.00    +0.000 C 
ATOM     24  C   UNL     1       8.823  10.994  17.975  0.00  0.00    +0.000 C 
ENDBRANCH  22  24
ENDBRANCH  21  22
ENDBRANCH  15  21
ENDBRANCH  14  19
ENDBRANCH   1  14
TORSDOF 7
ENDMDL
MODEL 5
REMARK VINA RESULT:      -6.3      2.000      4.095
REMARK  Name = 
REMARK  9 active torsions:
REMARK  status: ('A' for Active; 'I' for Inactive)
REMARK    1  A    between atoms: C_1  and  C_2
REMARK    2  A    between atoms: C_2  and  C_3
REMARK    3  A    between atoms: C_3  and  O_4
REMARK    4  A    between atoms: O_4  and  C_5
REMARK    5  A    between atoms: C_9  and  C_10
REMARK    6  A    between atoms: C_10  and  C_11
REMARK    7  A    between atoms: C_11  and  N_12
REMARK    8  A    between atoms: N_12  and  C_13
REMARK    9  A    between atoms: N_21  and  C_22
REMARK                            x       y       z     vdW  Elec       q    Type
REMARK                         _______ _______ _______ _____ _____    ______ ____
ROOT
ATOM      1  C   UNL     1       5.215   5.233  16.619  0.00  0.00    +0.000 C 
ENDROOT
BRANCH   1   2
ATOM      2  N   UNL     1       4.573   4.721  17.844  0.00  0.00    +0.000 NA
ATOM      3  H   UNL     1       4.915   5.263  18.636  0.00  0.00    +0.000 HD
BRANCH   2   4
ATOM      4  C   UNL     1       3.105   4.805  17.818  0.00  0.00    +0.000 C 
ATOM      5  C   UNL     1       2.443   3.603  18.539  0.00  0.00    +0.000 C 
ATOM      6  C   UNL     1       1.824   3.774  19.939  0.00  0.00    +0.000 C 
ATOM      7  C   UNL     1       1.632   5.165  20.535  0.00  0.00    +0.000 C 
ATOM      8  C   UNL     1       2.073   6.238  19.622  0.00  0.00    +0.000 A 
ATOM      9  C   UNL     1       2.699   6.108  18.413  0.00  0.00    +0.000 A 
ATOM     10  C   UNL     1       2.771   7.427  17.917  0.00  0.00    +0.000 A 
ATOM     11  N   UNL     1       2.292   8.326  18.785  0.00  0.00    +0.000 NA
ATOM     12  N   UNL     1       1.930   7.577  19.849  0.00  0.00    +0.000 N 
ATOM     13  C   UNL     1       1.467   8.220  21.054  0.00  0.00    +0.000 C 
ENDBRANCH   2   4
ENDBRANCH   1   2
BRANCH   1  14
ATOM     14  C   UNL     1       6.482   4.489  16.166  0.00  0.00    +0.000 C 
BRANCH  14  19
ATOM     15  C   UNL     1       5.915   3.607  12.505  0.00  0.00    +0.000 A 
ATOM     16  C   UNL     1       6.941   4.321  11.895  0.00  0.00    +0.000 A 
ATOM     17  C   UNL     1       7.798   5.122  12.655  0.00  0.00    +0.000 A 
ATOM     18  C   UNL     1       7.637   5.192  14.037  0.00  0.00    +0.000 A 
ATOM     19  C   UNL     1       6.636   4.447  14.666  0.00  0.00    +0.000 A 
ATOM     20  C   UNL     1       5.775   3.651  13.894  0.00  0.00    +0.000 A 
BRANCH  15  21
ATOM     21  O   UNL     1       5.127   2.867  11.670  0.00  0.00    +0.000 OA
BRANCH  21  22
ATOM     22  C   UNL     1       3.780   3.323  11.521  0.00  0.00    +0.000 C 
BRANCH  22  24
ATOM     23  C   UNL     1       2.801   4.457   9.486  0.00  0.00    +0.000 C 
ATOM     24  C   UNL     1       3.410   3.186  10.047  0.00  0.00    +0.000 C 
ENDBRANCH  22  24
ENDBRANCH  21  22
ENDBRANCH  15  21
ENDBRANCH  14  19
ENDBRANCH   1  14
TORSDOF 7
ENDMDL
MODEL 6
REMARK VINA RESULT:      -6.3      3.986      7.370
REMARK  Name = 
REMARK  9 active torsions:
REMARK  status: ('A' for Active; 'I' for Inactive)
REMARK    1  A    between atoms: C_1  and  C_2
REMARK    2  A    between atoms: C_2  and  C_3
REMARK    3  A    between atoms: C_3  and  O_4
REMARK    4  A    between atoms: O_4  and  C_5
REMARK    5  A    between atoms: C_9  and  C_10
REMARK    6  A    between atoms: C_10  and  C_11
REMARK    7  A    between atoms: C_11  and  N_12
REMARK    8  A    between atoms: N_12  and  C_13
REMARK    9  A    between atoms: N_21  and  C_22
REMARK                            x       y       z     vdW  Elec       q    Type
REMARK                         _______ _______ _______ _____ _____    ______ ____
ROOT
ATOM      1  C   UNL     1       4.415   5.068  19.045  0.00  0.00    +0.000 C 
ENDROOT
BRANCH   1   2
ATOM      2  N   UNL     1       5.075   3.816  18.633  0.00  0.00    +0.000 NA
ATOM      3  H   UNL     1       4.368   3.191  18.251  0.00  0.00    +0.000 HD
BRANCH   2   4
ATOM      4  C   UNL     1       6.124   4.010  17.620  0.00  0.00    +0.000 C 
ATOM      5  C   UNL     1       5.541   4.071  16.186  0.00  0.00    +0.000 C 
ATOM      6  C   UNL     1       5.420   5.415  15.445  0.00  0.00    +0.000 C 
ATOM      7  C   UNL     1       6.091   6.667  16.002  0.00  0.00    +0.000 C 
ATOM      8  C   UNL     1       6.835   6.404  17.249  0.00  0.00    +0.000 A 
ATOM      9  C   UNL     1       6.888   5.242  17.967  0.00  0.00    +0.000 A 
ATOM     10  C   UNL     1       7.834   5.502  18.980  0.00  0.00    +0.000 A 
ATOM     11  N   UNL     1       8.287   6.761  18.945  0.00  0.00    +0.000 NA
ATOM     12  N   UNL     1       7.610   7.312  17.914  0.00  0.00    +0.000 N 
ATOM     13  C   UNL     1       7.749   8.720  17.635  0.00  0.00    +0.000 C 
ENDBRANCH   2   4
ENDBRANCH   1   2
BRANCH   1  14
ATOM     14  C   UNL     1       3.138   5.438  18.273  0.00  0.00    +0.000 C 
BRANCH  14  19
ATOM     15  C   UNL     1       1.542   8.077  20.507  0.00  0.00    +0.000 A 
ATOM     16  C   UNL     1       1.338   9.110  19.599  0.00  0.00    +0.000 A 
ATOM     17  C   UNL     1       1.748   8.978  18.269  0.00  0.00    +0.000 A 
ATOM     18  C   UNL     1       2.349   7.795  17.844  0.00  0.00    +0.000 A 
ATOM     19  C   UNL     1       2.523   6.734  18.737  0.00  0.00    +0.000 A 
ATOM     20  C   UNL     1       2.114   6.879  20.074  0.00  0.00    +0.000 A 
BRANCH  15  21
ATOM     21  O   UNL     1       1.116   8.314  21.784  0.00  0.00    +0.000 OA
BRANCH  21  22
ATOM     22  C   UNL     1      -0.187   8.890  21.907  0.00  0.00    +0.000 C 
BRANCH  22  24
ATOM     23  C   UNL     1      -1.216  10.885  23.068  0.00  0.00    +0.000 C 
ATOM     24  C   UNL     1      -0.177   9.781  23.145  0.00  0.00    +0.000 C 
ENDBRANCH  22  24
ENDBRANCH  21  22
ENDBRANCH  15  21
ENDBRANCH  14  19
ENDBRANCH   1  14
TORSDOF 7
ENDMDL
MODEL 7
REMARK VINA RESULT:      -6.2      4.198      6.769
REMARK  Name = 
REMARK  9 active torsions:
REMARK  status: ('A' for Active; 'I' for Inactive)
REMARK    1  A    between atoms: C_1  and  C_2
REMARK    2  A    between atoms: C_2  and  C_3
REMARK    3  A    between atoms: C_3  and  O_4
REMARK    4  A    between atoms: O_4  and  C_5
REMARK    5  A    between atoms: C_9  and  C_10
REMARK    6  A    between atoms: C_10  and  C_11
REMARK    7  A    between atoms: C_11  and  N_12
REMARK    8  A    between atoms: N_12  and  C_13
REMARK    9  A    between atoms: N_21  and  C_22
REMARK                            x       y       z     vdW  Elec       q    Type
REMARK                         _______ _______ _______ _____ _____    ______ ____
ROOT
ATOM      1  C   UNL     1       1.987   7.108  20.379  0.00  0.00    +0.000 C 
ENDROOT
BRANCH   1   2
ATOM      2  N   UNL     1       1.667   8.308  21.175  0.00  0.00    +0.000 NA
ATOM      3  H   UNL     1       2.263   9.071  20.858  0.00  0.00    +0.000 HD
BRANCH   2   4
ATOM      4  C   UNL     1       0.263   8.731  21.060  0.00  0.00    +0.000 C 
ATOM      5  C   UNL     1      -0.444   8.770  22.439  0.00  0.00    +0.000 C 
ATOM      6  C   UNL     1      -0.727  10.112  23.138  0.00  0.00    +0.000 C 
ATOM      7  C   UNL     1      -0.543  11.428  22.388  0.00  0.00    +0.000 C 
ATOM      8  C   UNL     1      -0.110  11.227  20.990  0.00  0.00    +0.000 A 
ATOM      9  C   UNL     1       0.226  10.053  20.375  0.00  0.00    +0.000 A 
ATOM     10  C   UNL     1       0.431  10.415  19.027  0.00  0.00    +0.000 A 
ATOM     11  N   UNL     1       0.307  11.732  18.827  0.00  0.00    +0.000 NA
ATOM     12  N   UNL     1       0.038  12.215  20.059  0.00  0.00    +0.000 N 
ATOM     13  C   UNL     1      -0.050  13.640  20.267  0.00  0.00    +0.000 C 
ENDBRANCH   2   4
ENDBRANCH   1   2
BRANCH   1  14
ATOM     14  C   UNL     1       2.446   7.366  18.934  0.00  0.00    +0.000 C 
BRANCH  14  19
ATOM     15  C   UNL     1       4.669   4.982  16.965  0.00  0.00    +0.000 A 
ATOM     16  C   UNL     1       3.871   3.843  16.924  0.00  0.00    +0.000 A 
ATOM     17  C   UNL     1       2.628   3.823  17.564  0.00  0.00    +0.000 A 
ATOM     18  C   UNL     1       2.175   4.959  18.232  0.00  0.00    +0.000 A 
ATOM     19  C   UNL     1       2.949   6.122  18.245  0.00  0.00    +0.000 A 
ATOM     20  C   UNL     1       4.200   6.130  17.606  0.00  0.00    +0.000 A 
BRANCH  15  21
ATOM     21  O   UNL     1       5.870   4.890  16.320  0.00  0.00    +0.000 OA
BRANCH  21  22
ATOM     22  C   UNL     1       6.915   5.721  16.832  0.00  0.00    +0.000 C 
BRANCH  22  24
ATOM     23  C   UNL     1       7.746   5.753  19.218  0.00  0.00    +0.000 C 
ATOM     24  C   UNL     1       7.614   4.943  17.942  0.00  0.00    +0.000 C 
ENDBRANCH  22  24
ENDBRANCH  21  22
ENDBRANCH  15  21
ENDBRANCH  14  19
ENDBRANCH   1  14
TORSDOF 7
ENDMDL
MODEL 8
REMARK VINA RESULT:      -6.2      3.508      6.221
REMARK  Name = 
REMARK  9 active torsions:
REMARK  status: ('A' for Active; 'I' for Inactive)
REMARK    1  A    between atoms: C_1  and  C_2
REMARK    2  A    between atoms: C_2  and  C_3
REMARK    3  A    between atoms: C_3  and  O_4
REMARK    4  A    between atoms: O_4  and  C_5
REMARK    5  A    between atoms: C_9  and  C_10
REMARK    6  A    between atoms: C_10  and  C_11
REMARK    7  A    between atoms: C_11  and  N_12
REMARK    8  A    between atoms: N_12  and  C_13
REMARK    9  A    between atoms: N_21  and  C_22
REMARK                            x       y       z     vdW  Elec       q    Type
REMARK                         _______ _______ _______ _____ _____    ______ ____
ROOT
ATOM      1  C   UNL     1       1.983   4.913  20.159  0.00  0.00    +0.000 C 
ENDROOT
BRANCH   1   2
ATOM      2  N   UNL     1       2.823   3.884  20.801  0.00  0.00    +0.000 NA
ATOM      3  H   UNL     1       2.212   3.218  21.270  0.00  0.00    +0.000 HD
BRANCH   2   4
ATOM      4  C   UNL     1       3.678   3.150  19.856  0.00  0.00    +0.000 C 
ATOM      5  C   UNL     1       2.860   2.176  18.971  0.00  0.00    +0.000 C 
ATOM      6  C   UNL     1       2.562   2.516  17.499  0.00  0.00    +0.000 C 
ATOM      7  C   UNL     1       3.264   3.688  16.820  0.00  0.00    +0.000 C 
ATOM      8  C   UNL     1       4.218   4.373  17.714  0.00  0.00    +0.000 A 
ATOM      9  C   UNL     1       4.438   4.141  19.044  0.00  0.00    +0.000 A 
ATOM     10  C   UNL     1       5.529   4.975  19.365  0.00  0.00    +0.000 A 
ATOM     11  N   UNL     1       5.917   5.730  18.331  0.00  0.00    +0.000 NA
ATOM     12  N   UNL     1       5.055   5.389  17.349  0.00  0.00    +0.000 N 
ATOM     13  C   UNL     1       5.088   6.091  16.090  0.00  0.00    +0.000 C 
ENDBRANCH   2   4
ENDBRANCH   1   2
BRANCH   1  14
ATOM     14  C   UNL     1       1.943   6.280  20.863  0.00  0.00    +0.000 C 
BRANCH  14  19
ATOM     15  C   UNL     1       1.180   9.694  19.359  0.00  0.00    +0.000 A 
ATOM     16  C   UNL     1       1.766   9.572  18.104  0.00  0.00    +0.000 A 
ATOM     17  C   UNL     1       2.444   8.402  17.748  0.00  0.00    +0.000 A 
ATOM     18  C   UNL     1       2.518   7.342  18.649  0.00  0.00    +0.000 A 
ATOM     19  C   UNL     1       1.899   7.438  19.898  0.00  0.00    +0.000 A 
ATOM     20  C   UNL     1       1.226   8.620  20.251  0.00  0.00    +0.000 A 
BRANCH  15  21
ATOM     21  O   UNL     1       0.555  10.883  19.611  0.00  0.00    +0.000 OA
BRANCH  21  22
ATOM     22  C   UNL     1      -0.287  11.375  18.565  0.00  0.00    +0.000 C 
BRANCH  22  24
ATOM     23  C   UNL     1      -1.934  10.027  17.203  0.00  0.00    +0.000 C 
ATOM     24  C   UNL     1      -1.568  10.546  18.581  0.00  0.00    +0.000 C 
ENDBRANCH  22  24
ENDBRANCH  21  22
ENDBRANCH  15  21
ENDBRANCH  14  19
ENDBRANCH   1  14
TORSDOF 7
ENDMDL
MODEL 9
REMARK VINA RESULT:      -6.2      4.291      7.198
REMARK  Name = 
REMARK  9 active torsions:
REMARK  status: ('A' for Active; 'I' for Inactive)
REMARK    1  A    between atoms: C_1  and  C_2
REMARK    2  A    between atoms: C_2  and  C_3
REMARK    3  A    between atoms: C_3  and  O_4
REMARK    4  A    between atoms: O_4  and  C_5
REMARK    5  A    between atoms: C_9  and  C_10
REMARK    6  A    between atoms: C_10  and  C_11
REMARK    7  A    between atoms: C_11  and  N_12
REMARK    8  A    between atoms: N_12  and  C_13
REMARK    9  A    between atoms: N_21  and  C_22
REMARK                            x       y       z     vdW  Elec       q    Type
REMARK                         _______ _______ _______ _____ _____    ______ ____
ROOT
ATOM      1  C   UNL     1       2.056   8.411  17.920  0.00  0.00    +0.000 C 
ENDROOT
BRANCH   1   2
ATOM      2  N   UNL     1       1.801   9.275  19.087  0.00  0.00    +0.000 NA
ATOM      3  H   UNL     1       1.672  10.230  18.757  0.00  0.00    +0.000 HD
BRANCH   2   4
ATOM      4  C   UNL     1       0.612   8.883  19.860  0.00  0.00    +0.000 C 
ATOM      5  C   UNL     1       0.980   8.421  21.293  0.00  0.00    +0.000 C 
ATOM      6  C   UNL     1       0.720   9.337  22.503  0.00  0.00    +0.000 C 
ATOM      7  C   UNL     1      -0.121  10.601  22.348  0.00  0.00    +0.000 C 
ATOM      8  C   UNL     1      -0.626  10.781  20.973  0.00  0.00    +0.000 A 
ATOM      9  C   UNL     1      -0.341  10.028  19.868  0.00  0.00    +0.000 A 
ATOM     10  C   UNL     1      -1.182  10.552  18.864  0.00  0.00    +0.000 A 
ATOM     11  N   UNL     1      -1.889  11.606  19.290  0.00  0.00    +0.000 NA
ATOM     12  N   UNL     1      -1.482  11.765  20.567  0.00  0.00    +0.000 N 
ATOM     13  C   UNL     1      -1.948  12.895  21.333  0.00  0.00    +0.000 C 
ENDBRANCH   2   4
ENDBRANCH   1   2
BRANCH   1  14
ATOM     14  C   UNL     1       3.437   7.735  17.876  0.00  0.00    +0.000 C 
BRANCH  14  19
ATOM     15  C   UNL     1       2.090   4.174  17.780  0.00  0.00    +0.000 A 
ATOM     16  C   UNL     1       3.209   3.476  17.338  0.00  0.00    +0.000 A 
ATOM     17  C   UNL     1       4.393   4.153  17.032  0.00  0.00    +0.000 A 
ATOM     18  C   UNL     1       4.461   5.536  17.188  0.00  0.00    +0.000 A 
ATOM     19  C   UNL     1       3.356   6.243  17.669  0.00  0.00    +0.000 A 
ATOM     20  C   UNL     1       2.168   5.556  17.968  0.00  0.00    +0.000 A 
BRANCH  15  21
ATOM     21  O   UNL     1       0.981   3.419  18.038  0.00  0.00    +0.000 OA
BRANCH  21  22
ATOM     22  C   UNL     1       1.100   2.489  19.117  0.00  0.00    +0.000 C 
BRANCH  22  24
ATOM     23  C   UNL     1       1.970   2.814  21.467  0.00  0.00    +0.000 C 
ATOM     24  C   UNL     1       0.978   3.278  20.417  0.00  0.00    +0.000 C 
ENDBRANCH  22  24
ENDBRANCH  21  22
ENDBRANCH  15  21
ENDBRANCH  14  19
ENDBRANCH   1  14
TORSDOF 7
ENDMDL
