MODEL 1
REMARK VINA RESULT:      -6.5      0.000      0.000
REMARK  Name = 
REMARK  9 active torsions:
REMARK  status: ('A' for Active; 'I' for Inactive)
REMARK    1  A    between atoms: C_1  and  C_2
REMARK    2  A    between atoms: C_2  and  N_3
REMARK    3  A    between atoms: N_3  and  C_4
REMARK    4  A    between atoms: C_4  and  C_5
REMARK    5  A    between atoms: C_6  and  C_8
REMARK    6  A    between atoms: C_8  and  C_9
REMARK    7  A    between atoms: C_15  and  C_16
REMARK    8  A    between atoms: C_16  and  N_17
REMARK    9  A    between atoms: C_18  and  C_19
REMARK                            x       y       z     vdW  Elec       q    Type
REMARK                         _______ _______ _______ _____ _____    ______ ____
ROOT
ATOM      1  C   UNL     1       4.603   5.730  17.358  0.00  0.00    +0.000 C 
ATOM      2  C   UNL     1       4.273   4.621  16.326  0.00  0.00    +0.000 C 
ATOM      3  C   UNL     1       4.760   4.243  17.702  0.00  0.00    +0.000 C 
ENDROOT
BRANCH   1   4
ATOM      4  C   UNL     1       3.435   6.601  17.865  0.00  0.00    +0.000 A 
ATOM      5  C   UNL     1       3.041   7.736  17.134  0.00  0.00    +0.000 A 
ATOM      6  C   UNL     1       2.271   8.746  17.716  0.00  0.00    +0.000 A 
ATOM      7  C   UNL     1       1.852   8.630  19.038  0.00  0.00    +0.000 A 
ATOM      8  C   UNL     1       2.130   7.468  19.748  0.00  0.00    +0.000 A 
ATOM      9  C   UNL     1       2.888   6.455  19.155  0.00  0.00    +0.000 A 
ENDBRANCH   1   4
BRANCH   3  10
ATOM     10  C   UNL     1       3.866   3.408  18.611  0.00  0.00    +0.000 A 
ATOM     11  C   UNL     1       2.650   2.902  18.107  0.00  0.00    +0.000 A 
ATOM     12  C   UNL     1       1.753   2.186  18.910  0.00  0.00    +0.000 A 
ATOM     13  C   UNL     1       2.054   1.945  20.244  0.00  0.00    +0.000 A 
ATOM     14  C   UNL     1       3.249   2.419  20.773  0.00  0.00    +0.000 A 
ATOM     15  C   UNL     1       4.134   3.144  19.965  0.00  0.00    +0.000 A 
ENDBRANCH   3  10
BRANCH   1  17
ATOM     16  N   UNL     1       6.985   6.413  17.963  0.00  0.00    +0.000 N 
ATOM     17  C   UNL     1       5.883   6.543  17.092  0.00  0.00    +0.000 C 
ATOM     18  O   UNL     1       5.902   7.311  16.133  0.00  0.00    +0.000 OA
BRANCH  16  20
ATOM     19  C   UNL     1       7.799   8.776  17.957  0.00  0.00    +0.000 C 
ATOM     20  C   UNL     1       8.118   7.309  17.714  0.00  0.00    +0.000 C 
ENDBRANCH  16  20
BRANCH  16  21
ATOM     21  C   UNL     1       6.831   5.799  19.280  0.00  0.00    +0.000 C 
ATOM     22  C   UNL     1       8.085   5.450  20.060  0.00  0.00    +0.000 C 
ENDBRANCH  16  21
ENDBRANCH   1  17
BRANCH   2  23
ATOM     23  C   UNL     1       5.144   4.305  15.146  0.00  0.00    +0.000 C 
BRANCH  23  24
ATOM     24  N   UNL     1       6.071   3.244  15.526  0.00  0.00    +0.000 NA
ATOM     25  H   UNL     1       5.554   2.378  15.673  0.00  0.00    +0.000 HD
ATOM     26  H   UNL     1       6.488   3.484  16.426  0.00  0.00    +0.000 HD
ENDBRANCH  23  24
ENDBRANCH   2  23
TORSDOF 7
ENDMDL
MODEL 2
REMARK VINA RESULT:      -6.3      2.183      5.229
REMARK  Name = 
REMARK  9 active torsions:
REMARK  status: ('A' for Active; 'I' for Inactive)
REMARK    1  A    between atoms: C_1  and  C_2
REMARK    2  A    between atoms: C_2  and  N_3
REMARK    3  A    between atoms: N_3  and  C_4
REMARK    4  A    between atoms: C_4  and  C_5
REMARK    5  A    between atoms: C_6  and  C_8
REMARK    6  A    between atoms: C_8  and  C_9
REMARK    7  A    between atoms: C_15  and  C_16
REMARK    8  A    between atoms: C_16  and  N_17
REMARK    9  A    between atoms: C_18  and  C_19
REMARK                            x       y       z     vdW  Elec       q    Type
REMARK                         _______ _______ _______ _____ _____    ______ ____
ROOT
ATOM      1  C   UNL     1       4.270   4.771  17.591  0.00  0.00    +0.000 C 
ATOM      2  C   UNL     1       4.491   3.250  17.377  0.00  0.00    +0.000 C 
ATOM      3  C   UNL     1       4.198   4.138  16.194  0.00  0.00    +0.000 C 
ENDROOT
BRANCH   1   4
ATOM      4  C   UNL     1       5.471   5.602  18.086  0.00  0.00    +0.000 A 
ATOM      5  C   UNL     1       5.709   6.877  17.542  0.00  0.00    +0.000 A 
ATOM      6  C   UNL     1       6.954   7.501  17.665  0.00  0.00    +0.000 A 
ATOM      7  C   UNL     1       7.984   6.873  18.361  0.00  0.00    +0.000 A 
ATOM      8  C   UNL     1       7.742   5.665  19.004  0.00  0.00    +0.000 A 
ATOM      9  C   UNL     1       6.491   5.054  18.889  0.00  0.00    +0.000 A 
ENDBRANCH   1   4
BRANCH   3  10
ATOM     10  C   UNL     1       5.225   4.258  15.074  0.00  0.00    +0.000 A 
ATOM     11  C   UNL     1       4.939   3.693  13.814  0.00  0.00    +0.000 A 
ATOM     12  C   UNL     1       5.866   3.710  12.765  0.00  0.00    +0.000 A 
ATOM     13  C   UNL     1       7.108   4.306  12.943  0.00  0.00    +0.000 A 
ATOM     14  C   UNL     1       7.420   4.883  14.169  0.00  0.00    +0.000 A 
ATOM     15  C   UNL     1       6.490   4.850  15.216  0.00  0.00    +0.000 A 
ENDBRANCH   3  10
BRANCH   1  17
ATOM     16  N   UNL     1       2.759   4.926  19.641  0.00  0.00    +0.000 N 
ATOM     17  C   UNL     1       2.946   5.175  18.264  0.00  0.00    +0.000 C 
ATOM     18  O   UNL     1       2.067   5.684  17.573  0.00  0.00    +0.000 OA
BRANCH  16  20
ATOM     19  C   UNL     1       1.342   6.584  20.860  0.00  0.00    +0.000 C 
ATOM     20  C   UNL     1       1.430   5.226  20.180  0.00  0.00    +0.000 C 
ENDBRANCH  16  20
BRANCH  16  21
ATOM     21  C   UNL     1       3.636   4.005  20.361  0.00  0.00    +0.000 C 
ATOM     22  C   UNL     1       2.996   2.929  21.219  0.00  0.00    +0.000 C 
ENDBRANCH  16  21
ENDBRANCH   1  17
BRANCH   2  23
ATOM     23  C   UNL     1       3.481   2.208  17.758  0.00  0.00    +0.000 C 
BRANCH  23  24
ATOM     24  N   UNL     1       4.189   1.055  18.303  0.00  0.00    +0.000 NA
ATOM     25  H   UNL     1       4.950   0.797  17.677  0.00  0.00    +0.000 HD
ATOM     26  H   UNL     1       3.550   0.260  18.319  0.00  0.00    +0.000 HD
ENDBRANCH  23  24
ENDBRANCH   2  23
TORSDOF 7
ENDMDL
MODEL 3
REMARK VINA RESULT:      -6.2      7.263      9.489
REMARK  Name = 
REMARK  9 active torsions:
REMARK  status: ('A' for Active; 'I' for Inactive)
REMARK    1  A    between atoms: C_1  and  C_2
REMARK    2  A    between atoms: C_2  and  N_3
REMARK    3  A    between atoms: N_3  and  C_4
REMARK    4  A    between atoms: C_4  and  C_5
REMARK    5  A    between atoms: C_6  and  C_8
REMARK    6  A    between atoms: C_8  and  C_9
REMARK    7  A    between atoms: C_15  and  C_16
REMARK    8  A    between atoms: C_16  and  N_17
REMARK    9  A    between atoms: C_18  and  C_19
REMARK                            x       y       z     vdW  Elec       q    Type
REMARK                         _______ _______ _______ _____ _____    ______ ____
ROOT
ATOM      1  C   UNL     1      -0.084  12.907  20.577  0.00  0.00    +0.000 C 
ATOM      2  C   UNL     1      -1.438  13.663  20.564  0.00  0.00    +0.000 C 
ATOM      3  C   UNL     1      -0.941  12.995  19.307  0.00  0.00    +0.000 C 
ENDROOT
BRANCH   1   4
ATOM      4  C   UNL     1       0.013  11.638  21.449  0.00  0.00    +0.000 A 
ATOM      5  C   UNL     1       0.721  10.518  20.975  0.00  0.00    +0.000 A 
ATOM      6  C   UNL     1       0.532   9.249  21.529  0.00  0.00    +0.000 A 
ATOM      7  C   UNL     1      -0.351   9.075  22.590  0.00  0.00    +0.000 A 
ATOM      8  C   UNL     1      -0.978  10.182  23.152  0.00  0.00    +0.000 A 
ATOM      9  C   UNL     1      -0.772  11.450  22.603  0.00  0.00    +0.000 A 
ENDBRANCH   1   4
BRANCH   3  10
ATOM     10  C   UNL     1      -1.766  11.882  18.671  0.00  0.00    +0.000 A 
ATOM     11  C   UNL     1      -1.110  10.868  17.944  0.00  0.00    +0.000 A 
ATOM     12  C   UNL     1      -1.814   9.855  17.281  0.00  0.00    +0.000 A 
ATOM     13  C   UNL     1      -3.202   9.823  17.335  0.00  0.00    +0.000 A 
ATOM     14  C   UNL     1      -3.881  10.801  18.052  0.00  0.00    +0.000 A 
ATOM     15  C   UNL     1      -3.168  11.816  18.702  0.00  0.00    +0.000 A 
ENDBRANCH   3  10
BRANCH   1  17
ATOM     16  N   UNL     1       1.903  14.065  19.474  0.00  0.00    +0.000 N 
ATOM     17  C   UNL     1       1.180  13.782  20.652  0.00  0.00    +0.000 C 
ATOM     18  O   UNL     1       1.544  14.195  21.751  0.00  0.00    +0.000 OA
BRANCH  16  20
ATOM     19  C   UNL     1       3.599  15.552  18.398  0.00  0.00    +0.000 C 
ATOM     20  C   UNL     1       3.159  14.801  19.645  0.00  0.00    +0.000 C 
ENDBRANCH  16  20
BRANCH  16  21
ATOM     21  C   UNL     1       1.686  13.287  18.257  0.00  0.00    +0.000 C 
ATOM     22  C   UNL     1       2.457  11.991  18.087  0.00  0.00    +0.000 C 
ENDBRANCH  16  21
ENDBRANCH   1  17
BRANCH   2  23
ATOM     23  C   UNL     1      -1.548  15.159  20.585  0.00  0.00    +0.000 C 
BRANCH  23  24
ATOM     24  N   UNL     1      -2.933  15.525  20.306  0.00  0.00    +0.000 NA
ATOM     25  H   UNL     1      -3.018  16.540  20.289  0.00  0.00    +0.000 HD
ATOM     26  H   UNL     1      -3.516  15.203  21.079  0.00  0.00    +0.000 HD
ENDBRANCH  23  24
ENDBRANCH   2  23
TORSDOF 7
ENDMDL
MODEL 4
REMARK VINA RESULT:      -6.2      1.734      4.735
REMARK  Name = 
REMARK  9 active torsions:
REMARK  status: ('A' for Active; 'I' for Inactive)
REMARK    1  A    between atoms: C_1  and  C_2
REMARK    2  A    between atoms: C_2  and  N_3
REMARK    3  A    between atoms: N_3  and  C_4
REMARK    4  A    between atoms: C_4  and  C_5
REMARK    5  A    between atoms: C_6  and  C_8
REMARK    6  A    between atoms: C_8  and  C_9
REMARK    7  A    between atoms: C_15  and  C_16
REMARK    8  A    between atoms: C_16  and  N_17
REMARK    9  A    between atoms: C_18  and  C_19
REMARK                            x       y       z     vdW  Elec       q    Type
REMARK                         _______ _______ _______ _____ _____    ______ ____
ROOT
ATOM      1  C   UNL     1       4.222   4.559  18.110  0.00  0.00    +0.000 C 
ATOM      2  C   UNL     1       5.129   5.393  19.053  0.00  0.00    +0.000 C 
ATOM      3  C   UNL     1       4.240   6.093  18.056  0.00  0.00    +0.000 C 
ENDROOT
BRANCH   1   4
ATOM      4  C   UNL     1       3.082   3.746  18.756  0.00  0.00    +0.000 A 
ATOM      5  C   UNL     1       1.840   3.645  18.102  0.00  0.00    +0.000 A 
ATOM      6  C   UNL     1       0.686   3.257  18.789  0.00  0.00    +0.000 A 
ATOM      7  C   UNL     1       0.753   2.933  20.141  0.00  0.00    +0.000 A 
ATOM      8  C   UNL     1       1.985   2.915  20.783  0.00  0.00    +0.000 A 
ATOM      9  C   UNL     1       3.138   3.289  20.087  0.00  0.00    +0.000 A 
ENDBRANCH   1   4
BRANCH   3  10
ATOM     10  C   UNL     1       3.159   7.046  18.552  0.00  0.00    +0.000 A 
ATOM     11  C   UNL     1       2.753   8.116  17.730  0.00  0.00    +0.000 A 
ATOM     12  C   UNL     1       1.814   9.064  18.154  0.00  0.00    +0.000 A 
ATOM     13  C   UNL     1       1.244   8.963  19.417  0.00  0.00    +0.000 A 
ATOM     14  C   UNL     1       1.613   7.914  20.251  0.00  0.00    +0.000 A 
ATOM     15  C   UNL     1       2.561   6.977  19.822  0.00  0.00    +0.000 A 
ENDBRANCH   3  10
BRANCH   1  17
ATOM     16  N   UNL     1       5.475   4.504  15.888  0.00  0.00    +0.000 N 
ATOM     17  C   UNL     1       4.940   3.793  16.984  0.00  0.00    +0.000 C 
ATOM     18  O   UNL     1       5.006   2.569  17.056  0.00  0.00    +0.000 OA
BRANCH  16  20
ATOM     19  C   UNL     1       5.424   4.001  13.441  0.00  0.00    +0.000 C 
ATOM     20  C   UNL     1       6.033   3.696  14.801  0.00  0.00    +0.000 C 
ENDBRANCH  16  20
BRANCH  16  21
ATOM     21  C   UNL     1       5.079   5.886  15.627  0.00  0.00    +0.000 C 
ATOM     22  C   UNL     1       6.146   6.963  15.696  0.00  0.00    +0.000 C 
ENDBRANCH  16  21
ENDBRANCH   1  17
BRANCH   2  23
ATOM     23  C   UNL     1       6.615   5.501  18.886  0.00  0.00    +0.000 C 
BRANCH  23  24
ATOM     24  N   UNL     1       7.244   5.276  20.183  0.00  0.00    +0.000 NA
ATOM     25  H   UNL     1       8.254   5.378  20.093  0.00  0.00    +0.000 HD
ATOM     26  H   UNL     1       7.079   4.309  20.461  0.00  0.00    +0.000 HD
ENDBRANCH  23  24
ENDBRANCH   2  23
TORSDOF 7
ENDMDL
MODEL 5
REMARK VINA RESULT:      -6.1      7.238      9.711
REMARK  Name = 
REMARK  9 active torsions:
REMARK  status: ('A' for Active; 'I' for Inactive)
REMARK    1  A    between atoms: C_1  and  C_2
REMARK    2  A    between atoms: C_2  and  N_3
REMARK    3  A    between atoms: N_3  and  C_4
REMARK    4  A    between atoms: C_4  and  C_5
REMARK    5  A    between atoms: C_6  and  C_8
REMARK    6  A    between atoms: C_8  and  C_9
REMARK    7  A    between atoms: C_15  and  C_16
REMARK    8  A    between atoms: C_16  and  N_17
REMARK    9  A    between atoms: C_18  and  C_19
REMARK                            x       y       z     vdW  Elec       q    Type
REMARK                         _______ _______ _______ _____ _____    ______ ____
ROOT
ATOM      1  C   UNL     1      -0.636  12.583  20.729  0.00  0.00    +0.000 C 
ATOM      2  C   UNL     1      -2.091  13.108  20.843  0.00  0.00    +0.000 C 
ATOM      3  C   UNL     1      -1.495  12.842  19.484  0.00  0.00    +0.000 C 
ENDROOT
BRANCH   1   4
ATOM      4  C   UNL     1      -0.344  11.173  21.280  0.00  0.00    +0.000 A 
ATOM      5  C   UNL     1      -0.777  10.824  22.572  0.00  0.00    +0.000 A 
ATOM      6  C   UNL     1      -0.231   9.733  23.254  0.00  0.00    +0.000 A 
ATOM      7  C   UNL     1       0.743   8.946  22.646  0.00  0.00    +0.000 A 
ATOM      8  C   UNL     1       1.108   9.199  21.329  0.00  0.00    +0.000 A 
ATOM      9  C   UNL     1       0.547  10.283  20.648  0.00  0.00    +0.000 A 
ENDBRANCH   1   4
BRANCH   3  10
ATOM     10  C   UNL     1      -2.137  11.801  18.573  0.00  0.00    +0.000 A 
ATOM     11  C   UNL     1      -3.540  11.664  18.566  0.00  0.00    +0.000 A 
ATOM     12  C   UNL     1      -4.186  10.683  17.803  0.00  0.00    +0.000 A 
ATOM     13  C   UNL     1      -3.443   9.812  17.015  0.00  0.00    +0.000 A 
ATOM     14  C   UNL     1      -2.058   9.926  16.990  0.00  0.00    +0.000 A 
ATOM     15  C   UNL     1      -1.420  10.903  17.765  0.00  0.00    +0.000 A 
ENDBRANCH   3  10
BRANCH   1  17
ATOM     16  N   UNL     1       1.250  14.143  20.010  0.00  0.00    +0.000 N 
ATOM     17  C   UNL     1       0.476  13.596  21.056  0.00  0.00    +0.000 C 
ATOM     18  O   UNL     1       0.681  13.884  22.232  0.00  0.00    +0.000 OA
BRANCH  16  20
ATOM     19  C   UNL     1       2.345  16.375  19.754  0.00  0.00    +0.000 C 
ATOM     20  C   UNL     1       2.366  15.003  20.411  0.00  0.00    +0.000 C 
ENDBRANCH  16  20
BRANCH  16  21
ATOM     21  C   UNL     1       1.253  13.533  18.683  0.00  0.00    +0.000 C 
ATOM     22  C   UNL     1       2.409  12.621  18.315  0.00  0.00    +0.000 C 
ENDBRANCH  16  21
ENDBRANCH   1  17
BRANCH   2  23
ATOM     23  C   UNL     1      -2.432  14.522  21.211  0.00  0.00    +0.000 C 
BRANCH  23  24
ATOM     24  N   UNL     1      -3.531  14.969  20.362  0.00  0.00    +0.000 NA
ATOM     25  H   UNL     1      -4.174  14.195  20.203  0.00  0.00    +0.000 HD
ATOM     26  H   UNL     1      -3.154  15.218  19.447  0.00  0.00    +0.000 HD
ENDBRANCH  23  24
ENDBRANCH   2  23
TORSDOF 7
ENDMDL
MODEL 6
REMARK VINA RESULT:      -6.1      7.271      9.679
REMARK  Name = 
REMARK  9 active torsions:
REMARK  status: ('A' for Active; 'I' for Inactive)
REMARK    1  A    between atoms: C_1  and  C_2
REMARK    2  A    between atoms: C_2  and  N_3
REMARK    3  A    between atoms: N_3  and  C_4
REMARK    4  A    between atoms: C_4  and  C_5
REMARK    5  A    between atoms: C_6  and  C_8
REMARK    6  A    between atoms: C_8  and  C_9
REMARK    7  A    between atoms: C_15  and  C_16
REMARK    8  A    between atoms: C_16  and  N_17
REMARK    9  A    between atoms: C_18  and  C_19
REMARK                            x       y       z     vdW  Elec       q    Type
REMARK                         _______ _______ _______ _____ _____    ______ ____
ROOT
ATOM      1  C   UNL     1      -0.317  12.859  20.823  0.00  0.00    +0.000 C 
ATOM      2  C   UNL     1      -1.764  13.397  20.966  0.00  0.00    +0.000 C 
ATOM      3  C   UNL     1      -1.226  13.050  19.601  0.00  0.00    +0.000 C 
ENDROOT
BRANCH   1   4
ATOM      4  C   UNL     1      -0.005  11.481  21.442  0.00  0.00    +0.000 A 
ATOM      5  C   UNL     1       0.762  10.549  20.720  0.00  0.00    +0.000 A 
ATOM      6  C   UNL     1       0.758   9.191  21.051  0.00  0.00    +0.000 A 
ATOM      7  C   UNL     1       0.008   8.738  22.132  0.00  0.00    +0.000 A 
ATOM      8  C   UNL     1      -0.668   9.652  22.931  0.00  0.00    +0.000 A 
ATOM      9  C   UNL     1      -0.648  11.010  22.603  0.00  0.00    +0.000 A 
ENDBRANCH   1   4
BRANCH   3  10
ATOM     10  C   UNL     1      -1.907  11.962  18.780  0.00  0.00    +0.000 A 
ATOM     11  C   UNL     1      -3.313  11.859  18.802  0.00  0.00    +0.000 A 
ATOM     12  C   UNL     1      -3.995  10.842  18.124  0.00  0.00    +0.000 A 
ATOM     13  C   UNL     1      -3.286   9.897  17.391  0.00  0.00    +0.000 A 
ATOM     14  C   UNL     1      -1.899   9.974  17.338  0.00  0.00    +0.000 A 
ATOM     15  C   UNL     1      -1.225  10.989  18.030  0.00  0.00    +0.000 A 
ENDBRANCH   3  10
BRANCH   1  17
ATOM     16  N   UNL     1       1.509  14.403  19.934  0.00  0.00    +0.000 N 
ATOM     17  C   UNL     1       0.811  13.884  21.045  0.00  0.00    +0.000 C 
ATOM     18  O   UNL     1       1.094  14.206  22.196  0.00  0.00    +0.000 OA
BRANCH  16  20
ATOM     19  C   UNL     1       2.386  16.743  19.924  0.00  0.00    +0.000 C 
ATOM     20  C   UNL     1       2.647  15.277  20.234  0.00  0.00    +0.000 C 
ENDBRANCH  16  20
BRANCH  16  21
ATOM     21  C   UNL     1       1.425  13.756  18.627  0.00  0.00    +0.000 C 
ATOM     22  C   UNL     1       2.505  12.757  18.250  0.00  0.00    +0.000 C 
ENDBRANCH  16  21
ENDBRANCH   1  17
BRANCH   2  23
ATOM     23  C   UNL     1      -2.086  14.831  21.266  0.00  0.00    +0.000 C 
BRANCH  23  24
ATOM     24  N   UNL     1      -2.372  15.514  20.008  0.00  0.00    +0.000 NA
ATOM     25  H   UNL     1      -2.935  14.908  19.414  0.00  0.00    +0.000 HD
ATOM     26  H   UNL     1      -1.493  15.663  19.513  0.00  0.00    +0.000 HD
ENDBRANCH  23  24
ENDBRANCH   2  23
TORSDOF 7
ENDMDL
MODEL 7
REMARK VINA RESULT:      -6.1      1.385      4.556
REMARK  Name = 
REMARK  9 active torsions:
REMARK  status: ('A' for Active; 'I' for Inactive)
REMARK    1  A    between atoms: C_1  and  C_2
REMARK    2  A    between atoms: C_2  and  N_3
REMARK    3  A    between atoms: N_3  and  C_4
REMARK    4  A    between atoms: C_4  and  C_5
REMARK    5  A    between atoms: C_6  and  C_8
REMARK    6  A    between atoms: C_8  and  C_9
REMARK    7  A    between atoms: C_15  and  C_16
REMARK    8  A    between atoms: C_16  and  N_17
REMARK    9  A    between atoms: C_18  and  C_19
REMARK                            x       y       z     vdW  Elec       q    Type
REMARK                         _______ _______ _______ _____ _____    ______ ____
ROOT
ATOM      1  C   UNL     1       4.673   6.040  16.941  0.00  0.00    +0.000 C 
ATOM      2  C   UNL     1       5.487   6.997  17.849  0.00  0.00    +0.000 C 
ATOM      3  C   UNL     1       4.181   7.459  17.255  0.00  0.00    +0.000 C 
ENDROOT
BRANCH   1   4
ATOM      4  C   UNL     1       4.081   4.773  17.592  0.00  0.00    +0.000 A 
ATOM      5  C   UNL     1       2.894   4.216  17.083  0.00  0.00    +0.000 A 
ATOM      6  C   UNL     1       2.126   3.325  17.838  0.00  0.00    +0.000 A 
ATOM      7  C   UNL     1       2.544   2.947  19.111  0.00  0.00    +0.000 A 
ATOM      8  C   UNL     1       3.769   3.393  19.592  0.00  0.00    +0.000 A 
ATOM      9  C   UNL     1       4.539   4.272  18.826  0.00  0.00    +0.000 A 
ENDBRANCH   1   4
BRANCH   3  10
ATOM     10  C   UNL     1       3.034   7.854  18.179  0.00  0.00    +0.000 A 
ATOM     11  C   UNL     1       2.235   8.968  17.848  0.00  0.00    +0.000 A 
ATOM     12  C   UNL     1       1.211   9.423  18.687  0.00  0.00    +0.000 A 
ATOM     13  C   UNL     1       0.948   8.766  19.883  0.00  0.00    +0.000 A 
ATOM     14  C   UNL     1       1.708   7.658  20.236  0.00  0.00    +0.000 A 
ATOM     15  C   UNL     1       2.739   7.218  19.396  0.00  0.00    +0.000 A 
ENDBRANCH   3  10
BRANCH   1  17
ATOM     16  N   UNL     1       6.020   4.613  15.311  0.00  0.00    +0.000 N 
ATOM     17  C   UNL     1       5.255   5.777  15.540  0.00  0.00    +0.000 C 
ATOM     18  O   UNL     1       5.058   6.607  14.657  0.00  0.00    +0.000 OA
BRANCH  16  20
ATOM     19  C   UNL     1       5.877   3.586  13.037  0.00  0.00    +0.000 C 
ATOM     20  C   UNL     1       6.640   4.495  13.989  0.00  0.00    +0.000 C 
ENDBRANCH  16  20
BRANCH  16  21
ATOM     21  C   UNL     1       6.552   3.835  16.427  0.00  0.00    +0.000 C 
ATOM     22  C   UNL     1       7.792   4.350  17.134  0.00  0.00    +0.000 C 
ENDBRANCH  16  21
ENDBRANCH   1  17
BRANCH   2  23
ATOM     23  C   UNL     1       6.752   7.674  17.411  0.00  0.00    +0.000 C 
BRANCH  23  24
ATOM     24  N   UNL     1       7.827   7.277  18.315  0.00  0.00    +0.000 NA
ATOM     25  H   UNL     1       8.704   7.227  17.799  0.00  0.00    +0.000 HD
ATOM     26  H   UNL     1       7.638   6.332  18.649  0.00  0.00    +0.000 HD
ENDBRANCH  23  24
ENDBRANCH   2  23
TORSDOF 7
ENDMDL
MODEL 8
REMARK VINA RESULT:      -6.1      0.836      1.255
REMARK  Name = 
REMARK  9 active torsions:
REMARK  status: ('A' for Active; 'I' for Inactive)
REMARK    1  A    between atoms: C_1  and  C_2
REMARK    2  A    between atoms: C_2  and  N_3
REMARK    3  A    between atoms: N_3  and  C_4
REMARK    4  A    between atoms: C_4  and  C_5
REMARK    5  A    between atoms: C_6  and  C_8
REMARK    6  A    between atoms: C_8  and  C_9
REMARK    7  A    between atoms: C_15  and  C_16
REMARK    8  A    between atoms: C_16  and  N_17
REMARK    9  A    between atoms: C_18  and  C_19
REMARK                            x       y       z     vdW  Elec       q    Type
REMARK                         _______ _______ _______ _____ _____    ______ ____
ROOT
ATOM      1  C   UNL     1       4.044   5.763  17.727  0.00  0.00    +0.000 C 
ATOM      2  C   UNL     1       3.558   4.533  16.917  0.00  0.00    +0.000 C 
ATOM      3  C   UNL     1       4.112   4.343  18.306  0.00  0.00    +0.000 C 
ENDROOT
BRANCH   1   4
ATOM      4  C   UNL     1       2.984   6.801  18.147  0.00  0.00    +0.000 A 
ATOM      5  C   UNL     1       2.648   7.850  17.271  0.00  0.00    +0.000 A 
ATOM      6  C   UNL     1       1.999   9.001  17.728  0.00  0.00    +0.000 A 
ATOM      7  C   UNL     1       1.645   9.117  19.069  0.00  0.00    +0.000 A 
ATOM      8  C   UNL     1       1.863   8.050  19.933  0.00  0.00    +0.000 A 
ATOM      9  C   UNL     1       2.499   6.897  19.466  0.00  0.00    +0.000 A 
ENDBRANCH   1   4
BRANCH   3  10
ATOM     10  C   UNL     1       3.224   3.748  19.394  0.00  0.00    +0.000 A 
ATOM     11  C   UNL     1       3.822   3.087  20.486  0.00  0.00    +0.000 A 
ATOM     12  C   UNL     1       3.063   2.461  21.482  0.00  0.00    +0.000 A 
ATOM     13  C   UNL     1       1.675   2.487  21.418  0.00  0.00    +0.000 A 
ATOM     14  C   UNL     1       1.051   3.138  20.361  0.00  0.00    +0.000 A 
ATOM     15  C   UNL     1       1.820   3.752  19.363  0.00  0.00    +0.000 A 
ENDBRANCH   3  10
BRANCH   1  17
ATOM     16  N   UNL     1       6.552   6.160  17.967  0.00  0.00    +0.000 N 
ATOM     17  C   UNL     1       5.359   6.408  17.255  0.00  0.00    +0.000 C 
ATOM     18  O   UNL     1       5.331   7.150  16.276  0.00  0.00    +0.000 OA
BRANCH  16  20
ATOM     19  C   UNL     1       7.676   8.390  17.859  0.00  0.00    +0.000 C 
ATOM     20  C   UNL     1       7.735   6.906  17.529  0.00  0.00    +0.000 C 
ENDBRANCH  16  20
BRANCH  16  21
ATOM     21  C   UNL     1       6.517   5.594  19.312  0.00  0.00    +0.000 C 
ATOM     22  C   UNL     1       7.831   5.428  20.056  0.00  0.00    +0.000 C 
ENDBRANCH  16  21
ENDBRANCH   1  17
BRANCH   2  23
ATOM     23  C   UNL     1       4.317   3.955  15.759  0.00  0.00    +0.000 C 
BRANCH  23  24
ATOM     24  N   UNL     1       5.440   3.183  16.281  0.00  0.00    +0.000 NA
ATOM     25  H   UNL     1       6.201   3.814  16.526  0.00  0.00    +0.000 HD
ATOM     26  H   UNL     1       5.795   2.583  15.536  0.00  0.00    +0.000 HD
ENDBRANCH  23  24
ENDBRANCH   2  23
TORSDOF 7
ENDMDL
MODEL 9
REMARK VINA RESULT:      -6.1      1.667      4.754
REMARK  Name = 
REMARK  9 active torsions:
REMARK  status: ('A' for Active; 'I' for Inactive)
REMARK    1  A    between atoms: C_1  and  C_2
REMARK    2  A    between atoms: C_2  and  N_3
REMARK    3  A    between atoms: N_3  and  C_4
REMARK    4  A    between atoms: C_4  and  C_5
REMARK    5  A    between atoms: C_6  and  C_8
REMARK    6  A    between atoms: C_8  and  C_9
REMARK    7  A    between atoms: C_15  and  C_16
REMARK    8  A    between atoms: C_16  and  N_17
REMARK    9  A    between atoms: C_18  and  C_19
REMARK                            x       y       z     vdW  Elec       q    Type
REMARK                         _______ _______ _______ _____ _____    ______ ____
ROOT
ATOM      1  C   UNL     1       5.657   4.834  17.717  0.00  0.00    +0.000 C 
ATOM      2  C   UNL     1       6.204   5.544  18.983  0.00  0.00    +0.000 C 
ATOM      3  C   UNL     1       5.320   6.300  18.023  0.00  0.00    +0.000 C 
ENDROOT
BRANCH   1   4
ATOM      4  C   UNL     1       4.663   3.673  17.925  0.00  0.00    +0.000 A 
ATOM      5  C   UNL     1       3.550   3.546  17.075  0.00  0.00    +0.000 A 
ATOM      6  C   UNL     1       2.444   2.769  17.434  0.00  0.00    +0.000 A 
ATOM      7  C   UNL     1       2.440   2.078  18.642  0.00  0.00    +0.000 A 
ATOM      8  C   UNL     1       3.572   2.095  19.448  0.00  0.00    +0.000 A 
ATOM      9  C   UNL     1       4.679   2.861  19.077  0.00  0.00    +0.000 A 
ENDBRANCH   1   4
BRANCH   3  10
ATOM     10  C   UNL     1       3.987   6.857  18.510  0.00  0.00    +0.000 A 
ATOM     11  C   UNL     1       3.360   6.266  19.627  0.00  0.00    +0.000 A 
ATOM     12  C   UNL     1       2.105   6.687  20.082  0.00  0.00    +0.000 A 
ATOM     13  C   UNL     1       1.442   7.723  19.436  0.00  0.00    +0.000 A 
ATOM     14  C   UNL     1       2.035   8.336  18.339  0.00  0.00    +0.000 A 
ATOM     15  C   UNL     1       3.286   7.900  17.884  0.00  0.00    +0.000 A 
ENDBRANCH   3  10
BRANCH   1  17
ATOM     16  N   UNL     1       6.450   5.045  15.302  0.00  0.00    +0.000 N 
ATOM     17  C   UNL     1       6.682   4.552  16.603  0.00  0.00    +0.000 C 
ATOM     18  O   UNL     1       7.671   3.875  16.873  0.00  0.00    +0.000 OA
BRANCH  16  20
ATOM     19  C   UNL     1       6.756   3.980  13.062  0.00  0.00    +0.000 C 
ATOM     20  C   UNL     1       7.407   4.632  14.272  0.00  0.00    +0.000 C 
ENDBRANCH  16  20
BRANCH  16  21
ATOM     21  C   UNL     1       5.127   5.519  14.904  0.00  0.00    +0.000 C 
ATOM     22  C   UNL     1       4.901   7.016  14.801  0.00  0.00    +0.000 C 
ENDBRANCH  16  21
ENDBRANCH   1  17
BRANCH   2  23
ATOM     23  C   UNL     1       7.632   5.977  19.134  0.00  0.00    +0.000 C 
BRANCH  23  24
ATOM     24  N   UNL     1       8.140   5.462  20.401  0.00  0.00    +0.000 NA
ATOM     25  H   UNL     1       8.611   4.573  20.242  0.00  0.00    +0.000 HD
ATOM     26  H   UNL     1       7.348   5.261  21.011  0.00  0.00    +0.000 HD
ENDBRANCH  23  24
ENDBRANCH   2  23
TORSDOF 7
ENDMDL
