MODEL 1
REMARK VINA RESULT:      -7.6      0.000      0.000
REMARK  Name = 
REMARK  9 active torsions:
REMARK  status: ('A' for Active; 'I' for Inactive)
REMARK    1  A    between atoms: C_2  and  C_3
REMARK    2  A    between atoms: N_5  and  C_6
REMARK    3  A    between atoms: C_6  and  C_7
REMARK    4  A    between atoms: C_7  and  C_8
REMARK    5  A    between atoms: C_8  and  N_9
REMARK    6  A    between atoms: N_9  and  C_10
REMARK    7  A    between atoms: C_10  and  C_11
REMARK    8  A    between atoms: C_14  and  O_15
REMARK    9  A    between atoms: O_15  and  C_16
REMARK                            x       y       z     vdW  Elec       q    Type
REMARK                         _______ _______ _______ _____ _____    ______ ____
ROOT
ATOM      1  N   UNL     1       1.387   4.525  20.572  0.00  0.00    +0.000 NA
ATOM      2  H   UNL     1       0.543   4.960  20.947  0.00  0.00    +0.000 HD
ENDROOT
BRANCH   1   3
ATOM      3  C   UNL     1       1.672   3.287  21.281  0.00  0.00    +0.000 C 
BRANCH   3   4
ATOM      4  C   UNL     1       1.302   2.130  20.353  0.00  0.00    +0.000 C 
BRANCH   4   5
ATOM      5  C   UNL     1       2.506   1.652  19.551  0.00  0.00    +0.000 C 
BRANCH   5   8
ATOM      6  C   UNL     1       3.841   4.050  17.243  0.00  0.00    +0.000 A 
ATOM      7  C   UNL     1       4.027   3.298  18.388  0.00  0.00    +0.000 A 
ATOM      8  N   UNL     1       2.869   2.598  18.518  0.00  0.00    +0.000 N 
ATOM      9  N   UNL     1       2.008   2.879  17.526  0.00  0.00    +0.000 NA
ATOM     10  N   UNL     1       2.602   3.751  16.724  0.00  0.00    +0.000 NA
BRANCH   6  12
ATOM     11  O   UNL     1       5.028   4.903  15.420  0.00  0.00    +0.000 OA
ATOM     12  C   UNL     1       4.806   4.958  16.628  0.00  0.00    +0.000 C 
ATOM     13  N   UNL     1       5.469   5.869  17.449  0.00  0.00    +0.000 N 
ATOM     14  C   UNL     1       6.301   6.915  16.853  0.00  0.00    +0.000 C 
ATOM     15  C   UNL     1       7.764   6.754  17.276  0.00  0.00    +0.000 C 
ATOM     16  O   UNL     1       7.884   6.712  18.707  0.00  0.00    +0.000 OA
ATOM     17  C   UNL     1       7.132   5.616  19.248  0.00  0.00    +0.000 C 
ATOM     18  C   UNL     1       5.640   5.736  18.902  0.00  0.00    +0.000 C 
ENDBRANCH   6  12
ENDBRANCH   5   8
ENDBRANCH   4   5
ENDBRANCH   3   4
ENDBRANCH   1   3
BRANCH   1  19
ATOM     19  C   UNL     1       2.476   5.498  20.640  0.00  0.00    +0.000 C 
BRANCH  19  20
ATOM     20  C   UNL     1       2.005   6.864  20.179  0.00  0.00    +0.000 A 
ATOM     21  C   UNL     1       2.304   7.321  18.888  0.00  0.00    +0.000 A 
ATOM     22  C   UNL     1       1.854   8.574  18.458  0.00  0.00    +0.000 A 
ATOM     23  C   UNL     1       1.097   9.384  19.307  0.00  0.00    +0.000 A 
ATOM     24  C   UNL     1       0.828   8.955  20.606  0.00  0.00    +0.000 A 
ATOM     25  C   UNL     1       1.238   7.688  21.019  0.00  0.00    +0.000 A 
BRANCH  23  26
ATOM     26  O   UNL     1       0.711  10.604  18.798  0.00  0.00    +0.000 OA
BRANCH  26  27
ATOM     27  C   UNL     1      -0.627  10.885  18.624  0.00  0.00    +0.000 A 
ATOM     28  C   UNL     1      -1.157  11.875  19.455  0.00  0.00    +0.000 A 
ATOM     29  C   UNL     1      -2.503  12.234  19.351  0.00  0.00    +0.000 A 
ATOM     30  C   UNL     1      -3.316  11.599  18.413  0.00  0.00    +0.000 A 
ATOM     31 CL   UNL     1      -4.981  12.016  18.303  0.00  0.00    +0.000 Cl
ATOM     32  C   UNL     1      -2.788  10.634  17.559  0.00  0.00    +0.000 A 
ATOM     33  C   UNL     1      -1.435  10.298  17.644  0.00  0.00    +0.000 A 
ENDBRANCH  26  27
ENDBRANCH  23  26
ENDBRANCH  19  20
ENDBRANCH   1  19
TORSDOF 9
ENDMDL
MODEL 2
REMARK VINA RESULT:      -7.4      7.124     10.652
REMARK  Name = 
REMARK  9 active torsions:
REMARK  status: ('A' for Active; 'I' for Inactive)
REMARK    1  A    between atoms: C_2  and  C_3
REMARK    2  A    between atoms: N_5  and  C_6
REMARK    3  A    between atoms: C_6  and  C_7
REMARK    4  A    between atoms: C_7  and  C_8
REMARK    5  A    between atoms: C_8  and  N_9
REMARK    6  A    between atoms: N_9  and  C_10
REMARK    7  A    between atoms: C_10  and  C_11
REMARK    8  A    between atoms: C_14  and  O_15
REMARK    9  A    between atoms: O_15  and  C_16
REMARK                            x       y       z     vdW  Elec       q    Type
REMARK                         _______ _______ _______ _____ _____    ______ ____
ROOT
ATOM      1  N   UNL     1       8.321  10.069  18.067  0.00  0.00    +0.000 NA
ATOM      2  H   UNL     1       8.102   9.946  17.077  0.00  0.00    +0.000 HD
ENDROOT
BRANCH   1   3
ATOM      3  C   UNL     1       9.167  11.237  18.255  0.00  0.00    +0.000 C 
BRANCH   3   4
ATOM      4  C   UNL     1      10.210  10.884  19.315  0.00  0.00    +0.000 C 
BRANCH   4   5
ATOM      5  C   UNL     1      11.607  11.316  18.889  0.00  0.00    +0.000 C 
BRANCH   5   8
ATOM      6  C   UNL     1      11.451  14.830  18.194  0.00  0.00    +0.000 A 
ATOM      7  C   UNL     1      11.234  13.805  19.095  0.00  0.00    +0.000 A 
ATOM      8  N   UNL     1      11.623  12.687  18.426  0.00  0.00    +0.000 N 
ATOM      9  N   UNL     1      12.059  12.978  17.189  0.00  0.00    +0.000 NA
ATOM     10  N   UNL     1      11.981  14.293  17.043  0.00  0.00    +0.000 NA
BRANCH   6  12
ATOM     11  O   UNL     1      12.105  16.941  18.953  0.00  0.00    +0.000 OA
ATOM     12  C   UNL     1      11.232  16.257  18.424  0.00  0.00    +0.000 C 
ATOM     13  N   UNL     1      10.009  16.804  18.040  0.00  0.00    +0.000 N 
ATOM     14  C   UNL     1       9.816  18.255  18.081  0.00  0.00    +0.000 C 
ATOM     15  C   UNL     1       8.715  18.631  19.078  0.00  0.00    +0.000 C 
ATOM     16  O   UNL     1       7.496  17.927  18.786  0.00  0.00    +0.000 OA
ATOM     17  C   UNL     1       7.701  16.508  18.849  0.00  0.00    +0.000 C 
ATOM     18  C   UNL     1       8.764  16.050  17.839  0.00  0.00    +0.000 C 
ENDBRANCH   6  12
ENDBRANCH   5   8
ENDBRANCH   4   5
ENDBRANCH   3   4
ENDBRANCH   1   3
BRANCH   1  19
ATOM     19  C   UNL     1       8.918   8.830  18.563  0.00  0.00    +0.000 C 
BRANCH  19  20
ATOM     20  C   UNL     1       8.042   7.639  18.229  0.00  0.00    +0.000 A 
ATOM     21  C   UNL     1       8.040   6.504  19.052  0.00  0.00    +0.000 A 
ATOM     22  C   UNL     1       7.217   5.413  18.751  0.00  0.00    +0.000 A 
ATOM     23  C   UNL     1       6.385   5.441  17.631  0.00  0.00    +0.000 A 
ATOM     24  C   UNL     1       6.410   6.549  16.784  0.00  0.00    +0.000 A 
ATOM     25  C   UNL     1       7.196   7.654  17.108  0.00  0.00    +0.000 A 
BRANCH  23  26
ATOM     26  O   UNL     1       5.623   4.315  17.412  0.00  0.00    +0.000 OA
BRANCH  26  27
ATOM     27  C   UNL     1       4.420   4.160  18.066  0.00  0.00    +0.000 A 
ATOM     28  C   UNL     1       4.376   3.154  19.034  0.00  0.00    +0.000 A 
ATOM     29  C   UNL     1       3.201   2.923  19.755  0.00  0.00    +0.000 A 
ATOM     30  C   UNL     1       2.073   3.702  19.504  0.00  0.00    +0.000 A 
ATOM     31 CL   UNL     1       0.616   3.401  20.368  0.00  0.00    +0.000 Cl
ATOM     32  C   UNL     1       2.118   4.728  18.563  0.00  0.00    +0.000 A 
ATOM     33  C   UNL     1       3.302   4.977  17.865  0.00  0.00    +0.000 A 
ENDBRANCH  26  27
ENDBRANCH  23  26
ENDBRANCH  19  20
ENDBRANCH   1  19
TORSDOF 9
ENDMDL
MODEL 3
REMARK VINA RESULT:      -7.4      2.429      3.042
REMARK  Name = 
REMARK  9 active torsions:
REMARK  status: ('A' for Active; 'I' for Inactive)
REMARK    1  A    between atoms: C_2  and  C_3
REMARK    2  A    between atoms: N_5  and  C_6
REMARK    3  A    between atoms: C_6  and  C_7
REMARK    4  A    between atoms: C_7  and  C_8
REMARK    5  A    between atoms: C_8  and  N_9
REMARK    6  A    between atoms: N_9  and  C_10
REMARK    7  A    between atoms: C_10  and  C_11
REMARK    8  A    between atoms: C_14  and  O_15
REMARK    9  A    between atoms: O_15  and  C_16
REMARK                            x       y       z     vdW  Elec       q    Type
REMARK                         _______ _______ _______ _____ _____    ______ ____
ROOT
ATOM      1  N   UNL     1       1.377   5.150  20.545  0.00  0.00    +0.000 NA
ATOM      2  H   UNL     1       0.610   5.345  21.190  0.00  0.00    +0.000 HD
ENDROOT
BRANCH   1   3
ATOM      3  C   UNL     1       1.896   3.810  20.772  0.00  0.00    +0.000 C 
BRANCH   3   4
ATOM      4  C   UNL     1       0.810   2.819  20.356  0.00  0.00    +0.000 C 
BRANCH   4   5
ATOM      5  C   UNL     1       0.757   2.652  18.843  0.00  0.00    +0.000 C 
BRANCH   5   8
ATOM      6  C   UNL     1       3.789   3.711  17.248  0.00  0.00    +0.000 A 
ATOM      7  C   UNL     1       2.517   4.038  17.678  0.00  0.00    +0.000 A 
ATOM      8  N   UNL     1       2.048   2.890  18.235  0.00  0.00    +0.000 N 
ATOM      9  N   UNL     1       2.956   1.902  18.168  0.00  0.00    +0.000 NA
ATOM     10  N   UNL     1       4.038   2.400  17.585  0.00  0.00    +0.000 NA
BRANCH   6  12
ATOM     11  O   UNL     1       5.027   4.468  15.417  0.00  0.00    +0.000 OA
ATOM     12  C   UNL     1       4.751   4.605  16.606  0.00  0.00    +0.000 C 
ATOM     13  N   UNL     1       5.348   5.595  17.384  0.00  0.00    +0.000 N 
ATOM     14  C   UNL     1       6.173   6.622  16.746  0.00  0.00    +0.000 C 
ATOM     15  C   UNL     1       7.621   6.543  17.241  0.00  0.00    +0.000 C 
ATOM     16  O   UNL     1       7.679   6.610  18.675  0.00  0.00    +0.000 OA
ATOM     17  C   UNL     1       6.938   5.532  19.265  0.00  0.00    +0.000 C 
ATOM     18  C   UNL     1       5.460   5.575  18.849  0.00  0.00    +0.000 C 
ENDBRANCH   6  12
ENDBRANCH   5   8
ENDBRANCH   4   5
ENDBRANCH   3   4
ENDBRANCH   1   3
BRANCH   1  19
ATOM     19  C   UNL     1       2.384   6.199  20.698  0.00  0.00    +0.000 C 
BRANCH  19  20
ATOM     20  C   UNL     1       1.897   7.503  20.097  0.00  0.00    +0.000 A 
ATOM     21  C   UNL     1       1.210   8.436  20.886  0.00  0.00    +0.000 A 
ATOM     22  C   UNL     1       0.776   9.646  20.334  0.00  0.00    +0.000 A 
ATOM     23  C   UNL     1       1.025   9.943  18.993  0.00  0.00    +0.000 A 
ATOM     24  C   UNL     1       1.672   9.004  18.191  0.00  0.00    +0.000 A 
ATOM     25  C   UNL     1       2.144   7.818  18.751  0.00  0.00    +0.000 A 
BRANCH  23  26
ATOM     26  O   UNL     1       0.548  11.153  18.540  0.00  0.00    +0.000 OA
BRANCH  26  27
ATOM     27  C   UNL     1       1.220  12.316  18.846  0.00  0.00    +0.000 A 
ATOM     28  C   UNL     1       2.395  12.550  18.127  0.00  0.00    +0.000 A 
ATOM     29  C   UNL     1       3.145  13.705  18.362  0.00  0.00    +0.000 A 
ATOM     30  C   UNL     1       2.717  14.624  19.319  0.00  0.00    +0.000 A 
ATOM     31 CL   UNL     1       3.653  16.031  19.633  0.00  0.00    +0.000 Cl
ATOM     32  C   UNL     1       1.530  14.413  20.017  0.00  0.00    +0.000 A 
ATOM     33  C   UNL     1       0.766  13.273  19.759  0.00  0.00    +0.000 A 
ENDBRANCH  26  27
ENDBRANCH  23  26
ENDBRANCH  19  20
ENDBRANCH   1  19
TORSDOF 9
ENDMDL
MODEL 4
REMARK VINA RESULT:      -7.3      5.937     11.173
REMARK  Name = 
REMARK  9 active torsions:
REMARK  status: ('A' for Active; 'I' for Inactive)
REMARK    1  A    between atoms: C_2  and  C_3
REMARK    2  A    between atoms: N_5  and  C_6
REMARK    3  A    between atoms: C_6  and  C_7
REMARK    4  A    between atoms: C_7  and  C_8
REMARK    5  A    between atoms: C_8  and  N_9
REMARK    6  A    between atoms: N_9  and  C_10
REMARK    7  A    between atoms: C_10  and  C_11
REMARK    8  A    between atoms: C_14  and  O_15
REMARK    9  A    between atoms: O_15  and  C_16
REMARK                            x       y       z     vdW  Elec       q    Type
REMARK                         _______ _______ _______ _____ _____    ______ ____
ROOT
ATOM      1  N   UNL     1      -1.936  11.129  16.874  0.00  0.00    +0.000 NA
ATOM      2  H   UNL     1      -1.839  11.938  16.260  0.00  0.00    +0.000 HD
ENDROOT
BRANCH   1   3
ATOM      3  C   UNL     1      -3.318  10.677  16.897  0.00  0.00    +0.000 C 
BRANCH   3   4
ATOM      4  C   UNL     1      -4.062  11.522  17.931  0.00  0.00    +0.000 C 
BRANCH   4   5
ATOM      5  C   UNL     1      -5.411  10.910  18.285  0.00  0.00    +0.000 C 
BRANCH   5   8
ATOM      6  C   UNL     1      -6.646  12.869  21.022  0.00  0.00    +0.000 A 
ATOM      7  C   UNL     1      -5.972  12.838  19.816  0.00  0.00    +0.000 A 
ATOM      8  N   UNL     1      -5.983  11.525  19.463  0.00  0.00    +0.000 N 
ATOM      9  N   UNL     1      -6.621  10.774  20.376  0.00  0.00    +0.000 NA
ATOM     10  N   UNL     1      -7.053  11.590  21.326  0.00  0.00    +0.000 NA
BRANCH   6  12
ATOM     11  O   UNL     1      -7.774  14.876  21.425  0.00  0.00    +0.000 OA
ATOM     12  C   UNL     1      -6.951  14.054  21.823  0.00  0.00    +0.000 C 
ATOM     13  N   UNL     1      -6.274  14.224  23.029  0.00  0.00    +0.000 N 
ATOM     14  C   UNL     1      -6.679  15.292  23.945  0.00  0.00    +0.000 C 
ATOM     15  C   UNL     1      -5.545  16.304  24.137  0.00  0.00    +0.000 C 
ATOM     16  O   UNL     1      -4.338  15.649  24.562  0.00  0.00    +0.000 OA
ATOM     17  C   UNL     1      -3.920  14.676  23.593  0.00  0.00    +0.000 C 
ATOM     18  C   UNL     1      -4.993  13.598  23.383  0.00  0.00    +0.000 C 
ENDBRANCH   6  12
ENDBRANCH   5   8
ENDBRANCH   4   5
ENDBRANCH   3   4
ENDBRANCH   1   3
BRANCH   1  19
ATOM     19  C   UNL     1      -1.419  11.489  18.194  0.00  0.00    +0.000 C 
BRANCH  19  20
ATOM     20  C   UNL     1      -0.412  10.463  18.675  0.00  0.00    +0.000 A 
ATOM     21  C   UNL     1       0.530   9.921  17.789  0.00  0.00    +0.000 A 
ATOM     22  C   UNL     1       1.470   8.988  18.239  0.00  0.00    +0.000 A 
ATOM     23  C   UNL     1       1.485   8.586  19.576  0.00  0.00    +0.000 A 
ATOM     24  C   UNL     1       0.526   9.088  20.455  0.00  0.00    +0.000 A 
ATOM     25  C   UNL     1      -0.381  10.052  20.018  0.00  0.00    +0.000 A 
BRANCH  23  26
ATOM     26  O   UNL     1       2.439   7.653  19.919  0.00  0.00    +0.000 OA
BRANCH  26  27
ATOM     27  C   UNL     1       2.228   6.320  19.641  0.00  0.00    +0.000 A 
ATOM     28  C   UNL     1       1.594   5.580  20.641  0.00  0.00    +0.000 A 
ATOM     29  C   UNL     1       1.332   4.220  20.451  0.00  0.00    +0.000 A 
ATOM     30  C   UNL     1       1.707   3.605  19.258  0.00  0.00    +0.000 A 
ATOM     31 CL   UNL     1       1.414   1.925  19.032  0.00  0.00    +0.000 Cl
ATOM     32  C   UNL     1       2.312   4.343  18.243  0.00  0.00    +0.000 A 
ATOM     33  C   UNL     1       2.545   5.708  18.423  0.00  0.00    +0.000 A 
ENDBRANCH  26  27
ENDBRANCH  23  26
ENDBRANCH  19  20
ENDBRANCH   1  19
TORSDOF 9
ENDMDL
MODEL 5
REMARK VINA RESULT:      -7.3      5.771     11.071
REMARK  Name = 
REMARK  9 active torsions:
REMARK  status: ('A' for Active; 'I' for Inactive)
REMARK    1  A    between atoms: C_2  and  C_3
REMARK    2  A    between atoms: N_5  and  C_6
REMARK    3  A    between atoms: C_6  and  C_7
REMARK    4  A    between atoms: C_7  and  C_8
REMARK    5  A    between atoms: C_8  and  N_9
REMARK    6  A    between atoms: N_9  and  C_10
REMARK    7  A    between atoms: C_10  and  C_11
REMARK    8  A    between atoms: C_14  and  O_15
REMARK    9  A    between atoms: O_15  and  C_16
REMARK                            x       y       z     vdW  Elec       q    Type
REMARK                         _______ _______ _______ _____ _____    ______ ____
ROOT
ATOM      1  N   UNL     1       0.294  12.034  18.498  0.00  0.00    +0.000 NA
ATOM      2  H   UNL     1       0.817  11.988  17.622  0.00  0.00    +0.000 HD
ENDROOT
BRANCH   1   3
ATOM      3  C   UNL     1       1.178  12.407  19.591  0.00  0.00    +0.000 C 
BRANCH   3   4
ATOM      4  C   UNL     1       0.332  13.126  20.642  0.00  0.00    +0.000 C 
BRANCH   4   5
ATOM      5  C   UNL     1      -0.008  12.207  21.808  0.00  0.00    +0.000 C 
BRANCH   5   8
ATOM      6  C   UNL     1      -3.073  12.916  23.529  0.00  0.00    +0.000 A 
ATOM      7  C   UNL     1      -2.310  12.003  22.826  0.00  0.00    +0.000 A 
ATOM      8  N   UNL     1      -1.165  12.677  22.538  0.00  0.00    +0.000 N 
ATOM      9  N   UNL     1      -1.194  13.929  23.025  0.00  0.00    +0.000 NA
ATOM     10  N   UNL     1      -2.350  14.080  23.656  0.00  0.00    +0.000 NA
BRANCH   6  12
ATOM     11  O   UNL     1      -4.503  12.143  25.208  0.00  0.00    +0.000 OA
ATOM     12  C   UNL     1      -4.394  12.687  24.111  0.00  0.00    +0.000 C 
ATOM     13  N   UNL     1      -5.512  13.088  23.382  0.00  0.00    +0.000 N 
ATOM     14  C   UNL     1      -6.837  13.048  24.002  0.00  0.00    +0.000 C 
ATOM     15  C   UNL     1      -7.755  12.068  23.264  0.00  0.00    +0.000 C 
ATOM     16  O   UNL     1      -7.818  12.380  21.862  0.00  0.00    +0.000 OA
ATOM     17  C   UNL     1      -6.513  12.316  21.268  0.00  0.00    +0.000 C 
ATOM     18  C   UNL     1      -5.548  13.310  21.930  0.00  0.00    +0.000 C 
ENDBRANCH   6  12
ENDBRANCH   5   8
ENDBRANCH   4   5
ENDBRANCH   3   4
ENDBRANCH   1   3
BRANCH   1  19
ATOM     19  C   UNL     1      -0.375  10.750  18.702  0.00  0.00    +0.000 C 
BRANCH  19  20
ATOM     20  C   UNL     1       0.638   9.630  18.832  0.00  0.00    +0.000 A 
ATOM     21  C   UNL     1       0.841   8.993  20.064  0.00  0.00    +0.000 A 
ATOM     22  C   UNL     1       1.764   7.949  20.178  0.00  0.00    +0.000 A 
ATOM     23  C   UNL     1       2.493   7.523  19.066  0.00  0.00    +0.000 A 
ATOM     24  C   UNL     1       2.328   8.177  17.845  0.00  0.00    +0.000 A 
ATOM     25  C   UNL     1       1.376   9.188  17.721  0.00  0.00    +0.000 A 
BRANCH  23  26
ATOM     26  O   UNL     1       3.387   6.497  19.281  0.00  0.00    +0.000 OA
BRANCH  26  27
ATOM     27  C   UNL     1       3.937   5.828  18.210  0.00  0.00    +0.000 A 
ATOM     28  C   UNL     1       5.035   6.443  17.603  0.00  0.00    +0.000 A 
ATOM     29  C   UNL     1       5.664   5.838  16.512  0.00  0.00    +0.000 A 
ATOM     30  C   UNL     1       5.191   4.619  16.030  0.00  0.00    +0.000 A 
ATOM     31 CL   UNL     1       5.944   3.887  14.667  0.00  0.00    +0.000 Cl
ATOM     32  C   UNL     1       4.117   3.984  16.649  0.00  0.00    +0.000 A 
ATOM     33  C   UNL     1       3.508   4.575  17.758  0.00  0.00    +0.000 A 
ENDBRANCH  26  27
ENDBRANCH  23  26
ENDBRANCH  19  20
ENDBRANCH   1  19
TORSDOF 9
ENDMDL
MODEL 6
REMARK VINA RESULT:      -7.3      5.673      9.973
REMARK  Name = 
REMARK  9 active torsions:
REMARK  status: ('A' for Active; 'I' for Inactive)
REMARK    1  A    between atoms: C_2  and  C_3
REMARK    2  A    between atoms: N_5  and  C_6
REMARK    3  A    between atoms: C_6  and  C_7
REMARK    4  A    between atoms: C_7  and  C_8
REMARK    5  A    between atoms: C_8  and  N_9
REMARK    6  A    between atoms: N_9  and  C_10
REMARK    7  A    between atoms: C_10  and  C_11
REMARK    8  A    between atoms: C_14  and  O_15
REMARK    9  A    between atoms: O_15  and  C_16
REMARK                            x       y       z     vdW  Elec       q    Type
REMARK                         _______ _______ _______ _____ _____    ______ ____
ROOT
ATOM      1  N   UNL     1       8.877   8.961  18.694  0.00  0.00    +0.000 NA
ATOM      2  H   UNL     1       8.571   8.384  19.479  0.00  0.00    +0.000 HD
ENDROOT
BRANCH   1   3
ATOM      3  C   UNL     1       9.155  10.316  19.143  0.00  0.00    +0.000 C 
BRANCH   3   4
ATOM      4  C   UNL     1       8.545  11.274  18.119  0.00  0.00    +0.000 C 
BRANCH   4   5
ATOM      5  C   UNL     1       9.248  12.624  18.132  0.00  0.00    +0.000 C 
BRANCH   5   8
ATOM      6  C   UNL     1       6.871  15.232  18.770  0.00  0.00    +0.000 A 
ATOM      7  C   UNL     1       7.390  14.315  17.876  0.00  0.00    +0.000 A 
ATOM      8  N   UNL     1       8.367  13.681  18.579  0.00  0.00    +0.000 N 
ATOM      9  N   UNL     1       8.462  14.157  19.831  0.00  0.00    +0.000 NA
ATOM     10  N   UNL     1       7.533  15.093  19.969  0.00  0.00    +0.000 NA
BRANCH   6  12
ATOM     11  O   UNL     1       5.897  17.355  18.746  0.00  0.00    +0.000 OA
ATOM     12  C   UNL     1       5.761  16.153  18.532  0.00  0.00    +0.000 C 
ATOM     13  N   UNL     1       4.555  15.625  18.075  0.00  0.00    +0.000 N 
ATOM     14  C   UNL     1       3.482  16.525  17.650  0.00  0.00    +0.000 C 
ATOM     15  C   UNL     1       2.246  16.359  18.541  0.00  0.00    +0.000 C 
ATOM     16  O   UNL     1       1.823  14.986  18.581  0.00  0.00    +0.000 OA
ATOM     17  C   UNL     1       2.869  14.146  19.093  0.00  0.00    +0.000 C 
ATOM     18  C   UNL     1       4.129  14.226  18.219  0.00  0.00    +0.000 C 
ENDBRANCH   6  12
ENDBRANCH   5   8
ENDBRANCH   4   5
ENDBRANCH   3   4
ENDBRANCH   1   3
BRANCH   1  19
ATOM     19  C   UNL     1       7.858   8.891  17.648  0.00  0.00    +0.000 C 
BRANCH  19  20
ATOM     20  C   UNL     1       7.172   7.539  17.655  0.00  0.00    +0.000 A 
ATOM     21  C   UNL     1       5.989   7.337  16.931  0.00  0.00    +0.000 A 
ATOM     22  C   UNL     1       5.366   6.085  16.925  0.00  0.00    +0.000 A 
ATOM     23  C   UNL     1       5.917   5.017  17.637  0.00  0.00    +0.000 A 
ATOM     24  C   UNL     1       7.071   5.219  18.393  0.00  0.00    +0.000 A 
ATOM     25  C   UNL     1       7.715   6.454  18.363  0.00  0.00    +0.000 A 
BRANCH  23  26
ATOM     26  O   UNL     1       5.224   3.828  17.580  0.00  0.00    +0.000 OA
BRANCH  26  27
ATOM     27  C   UNL     1       4.191   3.591  18.462  0.00  0.00    +0.000 A 
ATOM     28  C   UNL     1       4.531   2.906  19.631  0.00  0.00    +0.000 A 
ATOM     29  C   UNL     1       3.553   2.624  20.589  0.00  0.00    +0.000 A 
ATOM     30  C   UNL     1       2.236   3.027  20.372  0.00  0.00    +0.000 A 
ATOM     31 CL   UNL     1       1.025   2.653  21.533  0.00  0.00    +0.000 Cl
ATOM     32  C   UNL     1       1.896   3.737  19.223  0.00  0.00    +0.000 A 
ATOM     33  C   UNL     1       2.880   4.046  18.281  0.00  0.00    +0.000 A 
ENDBRANCH  26  27
ENDBRANCH  23  26
ENDBRANCH  19  20
ENDBRANCH   1  19
TORSDOF 9
ENDMDL
MODEL 7
REMARK VINA RESULT:      -7.2      6.199      8.664
REMARK  Name = 
REMARK  9 active torsions:
REMARK  status: ('A' for Active; 'I' for Inactive)
REMARK    1  A    between atoms: C_2  and  C_3
REMARK    2  A    between atoms: N_5  and  C_6
REMARK    3  A    between atoms: C_6  and  C_7
REMARK    4  A    between atoms: C_7  and  C_8
REMARK    5  A    between atoms: C_8  and  N_9
REMARK    6  A    between atoms: N_9  and  C_10
REMARK    7  A    between atoms: C_10  and  C_11
REMARK    8  A    between atoms: C_14  and  O_15
REMARK    9  A    between atoms: O_15  and  C_16
REMARK                            x       y       z     vdW  Elec       q    Type
REMARK                         _______ _______ _______ _____ _____    ______ ____
ROOT
ATOM      1  N   UNL     1       7.504   8.658  17.507  0.00  0.00    +0.000 NA
ATOM      2  H   UNL     1       6.692   9.153  17.879  0.00  0.00    +0.000 HD
ENDROOT
BRANCH   1   3
ATOM      3  C   UNL     1       7.136   7.304  17.123  0.00  0.00    +0.000 C 
BRANCH   3   4
ATOM      4  C   UNL     1       7.658   6.361  18.207  0.00  0.00    +0.000 C 
BRANCH   4   5
ATOM      5  C   UNL     1       7.596   4.907  17.756  0.00  0.00    +0.000 C 
BRANCH   5   8
ATOM      6  C   UNL     1       4.137   3.992  17.522  0.00  0.00    +0.000 A 
ATOM      7  C   UNL     1       5.170   4.471  18.305  0.00  0.00    +0.000 A 
ATOM      8  N   UNL     1       6.239   4.496  17.466  0.00  0.00    +0.000 N 
ATOM      9  N   UNL     1       5.912   4.067  16.236  0.00  0.00    +0.000 NA
ATOM     10  N   UNL     1       4.618   3.777  16.251  0.00  0.00    +0.000 NA
BRANCH   6  12
ATOM     11  O   UNL     1       1.851   4.463  17.403  0.00  0.00    +0.000 OA
ATOM     12  C   UNL     1       2.746   3.805  17.929  0.00  0.00    +0.000 C 
ATOM     13  N   UNL     1       2.474   2.877  18.933  0.00  0.00    +0.000 N 
ATOM     14  C   UNL     1       1.087   2.525  19.241  0.00  0.00    +0.000 C 
ATOM     15  C   UNL     1       0.730   2.920  20.678  0.00  0.00    +0.000 C 
ATOM     16  O   UNL     1       1.660   2.349  21.613  0.00  0.00    +0.000 OA
ATOM     17  C   UNL     1       2.996   2.792  21.338  0.00  0.00    +0.000 C 
ATOM     18  C   UNL     1       3.440   2.387  19.925  0.00  0.00    +0.000 C 
ENDBRANCH   6  12
ENDBRANCH   5   8
ENDBRANCH   4   5
ENDBRANCH   3   4
ENDBRANCH   1   3
BRANCH   1  19
ATOM     19  C   UNL     1       8.571   8.710  18.505  0.00  0.00    +0.000 C 
BRANCH  19  20
ATOM     20  C   UNL     1       8.963  10.145  18.798  0.00  0.00    +0.000 A 
ATOM     21  C   UNL     1       8.753  11.149  17.843  0.00  0.00    +0.000 A 
ATOM     22  C   UNL     1       9.099  12.476  18.121  0.00  0.00    +0.000 A 
ATOM     23  C   UNL     1       9.654  12.819  19.356  0.00  0.00    +0.000 A 
ATOM     24  C   UNL     1       9.904  11.821  20.297  0.00  0.00    +0.000 A 
ATOM     25  C   UNL     1       9.518  10.507  20.037  0.00  0.00    +0.000 A 
BRANCH  23  26
ATOM     26  O   UNL     1       9.973  14.147  19.530  0.00  0.00    +0.000 OA
BRANCH  26  27
ATOM     27  C   UNL     1       9.720  14.762  20.737  0.00  0.00    +0.000 A 
ATOM     28  C   UNL     1      10.831  15.291  21.399  0.00  0.00    +0.000 A 
ATOM     29  C   UNL     1      10.676  15.939  22.627  0.00  0.00    +0.000 A 
ATOM     30  C   UNL     1       9.406  16.054  23.191  0.00  0.00    +0.000 A 
ATOM     31 CL   UNL     1       9.215  16.823  24.717  0.00  0.00    +0.000 Cl
ATOM     32  C   UNL     1       8.289  15.558  22.523  0.00  0.00    +0.000 A 
ATOM     33  C   UNL     1       8.442  14.938  21.281  0.00  0.00    +0.000 A 
ENDBRANCH  26  27
ENDBRANCH  23  26
ENDBRANCH  19  20
ENDBRANCH   1  19
TORSDOF 9
ENDMDL
MODEL 8
REMARK VINA RESULT:      -7.2      6.093      8.603
REMARK  Name = 
REMARK  9 active torsions:
REMARK  status: ('A' for Active; 'I' for Inactive)
REMARK    1  A    between atoms: C_2  and  C_3
REMARK    2  A    between atoms: N_5  and  C_6
REMARK    3  A    between atoms: C_6  and  C_7
REMARK    4  A    between atoms: C_7  and  C_8
REMARK    5  A    between atoms: C_8  and  N_9
REMARK    6  A    between atoms: N_9  and  C_10
REMARK    7  A    between atoms: C_10  and  C_11
REMARK    8  A    between atoms: C_14  and  O_15
REMARK    9  A    between atoms: O_15  and  C_16
REMARK                            x       y       z     vdW  Elec       q    Type
REMARK                         _______ _______ _______ _____ _____    ______ ____
ROOT
ATOM      1  N   UNL     1       9.569  10.284  18.142  0.00  0.00    +0.000 NA
ATOM      2  H   UNL     1      10.134   9.915  17.376  0.00  0.00    +0.000 HD
ENDROOT
BRANCH   1   3
ATOM      3  C   UNL     1       8.200   9.807  18.033  0.00  0.00    +0.000 C 
BRANCH   3   4
ATOM      4  C   UNL     1       8.227   8.287  18.194  0.00  0.00    +0.000 C 
BRANCH   4   5
ATOM      5  C   UNL     1       7.286   7.604  17.210  0.00  0.00    +0.000 C 
BRANCH   5   8
ATOM      6  C   UNL     1       5.405   4.752  18.298  0.00  0.00    +0.000 A 
ATOM      7  C   UNL     1       5.514   5.818  17.426  0.00  0.00    +0.000 A 
ATOM      8  N   UNL     1       6.677   6.424  17.785  0.00  0.00    +0.000 N 
ATOM      9  N   UNL     1       7.269   5.789  18.810  0.00  0.00    +0.000 NA
ATOM     10  N   UNL     1       6.511   4.747  19.118  0.00  0.00    +0.000 NA
BRANCH   6  12
ATOM     11  O   UNL     1       4.235   2.942  17.397  0.00  0.00    +0.000 OA
ATOM     12  C   UNL     1       4.346   3.745  18.320  0.00  0.00    +0.000 C 
ATOM     13  N   UNL     1       3.469   3.737  19.403  0.00  0.00    +0.000 N 
ATOM     14  C   UNL     1       2.514   2.638  19.557  0.00  0.00    +0.000 C 
ATOM     15  C   UNL     1       1.073   3.153  19.476  0.00  0.00    +0.000 C 
ATOM     16  O   UNL     1       0.850   4.208  20.426  0.00  0.00    +0.000 OA
ATOM     17  C   UNL     1       1.740   5.307  20.183  0.00  0.00    +0.000 C 
ATOM     18  C   UNL     1       3.208   4.874  20.296  0.00  0.00    +0.000 C 
ENDBRANCH   6  12
ENDBRANCH   5   8
ENDBRANCH   4   5
ENDBRANCH   3   4
ENDBRANCH   1   3
BRANCH   1  19
ATOM     19  C   UNL     1       9.680  11.742  18.135  0.00  0.00    +0.000 C 
BRANCH  19  20
ATOM     20  C   UNL     1       9.347  12.313  19.499  0.00  0.00    +0.000 A 
ATOM     21  C   UNL     1       8.539  13.452  19.616  0.00  0.00    +0.000 A 
ATOM     22  C   UNL     1       8.219  13.967  20.876  0.00  0.00    +0.000 A 
ATOM     23  C   UNL     1       8.696  13.351  22.035  0.00  0.00    +0.000 A 
ATOM     24  C   UNL     1       9.533  12.242  21.928  0.00  0.00    +0.000 A 
ATOM     25  C   UNL     1       9.815  11.702  20.675  0.00  0.00    +0.000 A 
BRANCH  23  26
ATOM     26  O   UNL     1       8.337  13.941  23.228  0.00  0.00    +0.000 OA
BRANCH  26  27
ATOM     27  C   UNL     1       7.778  13.178  24.230  0.00  0.00    +0.000 A 
ATOM     28  C   UNL     1       6.756  12.309  23.840  0.00  0.00    +0.000 A 
ATOM     29  C   UNL     1       6.130  11.491  24.785  0.00  0.00    +0.000 A 
ATOM     30  C   UNL     1       6.529  11.547  26.119  0.00  0.00    +0.000 A 
ATOM     31 CL   UNL     1       5.741  10.564  27.290  0.00  0.00    +0.000 Cl
ATOM     32  C   UNL     1       7.569  12.388  26.511  0.00  0.00    +0.000 A 
ATOM     33  C   UNL     1       8.213  13.182  25.560  0.00  0.00    +0.000 A 
ENDBRANCH  26  27
ENDBRANCH  23  26
ENDBRANCH  19  20
ENDBRANCH   1  19
TORSDOF 9
ENDMDL
MODEL 9
REMARK VINA RESULT:      -7.2      2.149      2.781
REMARK  Name = 
REMARK  9 active torsions:
REMARK  status: ('A' for Active; 'I' for Inactive)
REMARK    1  A    between atoms: C_2  and  C_3
REMARK    2  A    between atoms: N_5  and  C_6
REMARK    3  A    between atoms: C_6  and  C_7
REMARK    4  A    between atoms: C_7  and  C_8
REMARK    5  A    between atoms: C_8  and  N_9
REMARK    6  A    between atoms: N_9  and  C_10
REMARK    7  A    between atoms: C_10  and  C_11
REMARK    8  A    between atoms: C_14  and  O_15
REMARK    9  A    between atoms: O_15  and  C_16
REMARK                            x       y       z     vdW  Elec       q    Type
REMARK                         _______ _______ _______ _____ _____    ______ ____
ROOT
ATOM      1  N   UNL     1       1.922   4.978  21.141  0.00  0.00    +0.000 NA
ATOM      2  H   UNL     1       2.469   4.203  21.520  0.00  0.00    +0.000 HD
ENDROOT
BRANCH   1   3
ATOM      3  C   UNL     1       0.813   4.471  20.348  0.00  0.00    +0.000 C 
BRANCH   3   4
ATOM      4  C   UNL     1       0.945   2.949  20.293  0.00  0.00    +0.000 C 
BRANCH   4   5
ATOM      5  C   UNL     1       1.022   2.448  18.856  0.00  0.00    +0.000 C 
BRANCH   5   8
ATOM      6  C   UNL     1       3.954   3.720  17.230  0.00  0.00    +0.000 A 
ATOM      7  C   UNL     1       2.656   3.947  17.647  0.00  0.00    +0.000 A 
ATOM      8  N   UNL     1       2.290   2.780  18.242  0.00  0.00    +0.000 N 
ATOM      9  N   UNL     1       3.283   1.877  18.211  0.00  0.00    +0.000 NA
ATOM     10  N   UNL     1       4.318   2.449  17.613  0.00  0.00    +0.000 NA
BRANCH   6  12
ATOM     11  O   UNL     1       5.041   4.586  15.352  0.00  0.00    +0.000 OA
ATOM     12  C   UNL     1       4.836   4.674  16.560  0.00  0.00    +0.000 C 
ATOM     13  N   UNL     1       5.439   5.665  17.332  0.00  0.00    +0.000 N 
ATOM     14  C   UNL     1       6.178   6.746  16.678  0.00  0.00    +0.000 C 
ATOM     15  C   UNL     1       7.657   6.716  17.078  0.00  0.00    +0.000 C 
ATOM     16  O   UNL     1       7.803   6.742  18.508  0.00  0.00    +0.000 OA
ATOM     17  C   UNL     1       7.146   5.615  19.106  0.00  0.00    +0.000 C 
ATOM     18  C   UNL     1       5.645   5.606  18.785  0.00  0.00    +0.000 C 
ENDBRANCH   6  12
ENDBRANCH   5   8
ENDBRANCH   4   5
ENDBRANCH   3   4
ENDBRANCH   1   3
BRANCH   1  19
ATOM     19  C   UNL     1       2.823   5.852  20.390  0.00  0.00    +0.000 C 
BRANCH  19  20
ATOM     20  C   UNL     1       2.137   7.159  20.043  0.00  0.00    +0.000 A 
ATOM     21  C   UNL     1       1.354   7.827  20.994  0.00  0.00    +0.000 A 
ATOM     22  C   UNL     1       0.736   9.041  20.677  0.00  0.00    +0.000 A 
ATOM     23  C   UNL     1       0.894   9.607  19.410  0.00  0.00    +0.000 A 
ATOM     24  C   UNL     1       1.638   8.930  18.445  0.00  0.00    +0.000 A 
ATOM     25  C   UNL     1       2.291   7.743  18.775  0.00  0.00    +0.000 A 
BRANCH  23  26
ATOM     26  O   UNL     1       0.236  10.796  19.190  0.00  0.00    +0.000 OA
BRANCH  26  27
ATOM     27  C   UNL     1       0.572  11.914  19.924  0.00  0.00    +0.000 A 
ATOM     28  C   UNL     1       1.830  12.461  19.662  0.00  0.00    +0.000 A 
ATOM     29  C   UNL     1       2.259  13.599  20.351  0.00  0.00    +0.000 A 
ATOM     30  C   UNL     1       1.426  14.184  21.303  0.00  0.00    +0.000 A 
ATOM     31 CL   UNL     1       1.963  15.565  22.176  0.00  0.00    +0.000 Cl
ATOM     32  C   UNL     1       0.158  13.663  21.548  0.00  0.00    +0.000 A 
ATOM     33  C   UNL     1      -0.281  12.544  20.836  0.00  0.00    +0.000 A 
ENDBRANCH  26  27
ENDBRANCH  23  26
ENDBRANCH  19  20
ENDBRANCH   1  19
TORSDOF 9
ENDMDL
