MODEL 1
REMARK VINA RESULT:      -5.3      0.000      0.000
REMARK  Name = 
REMARK  5 active torsions:
REMARK  status: ('A' for Active; 'I' for Inactive)
REMARK    1  A    between atoms: C_1  and  C_2
REMARK    2  A    between atoms: C_8  and  O_9
REMARK    3  A    between atoms: O_9  and  C_10
REMARK    4  A    between atoms: C_10  and  C_11
REMARK    5  A    between atoms: C_11  and  N_12
REMARK                            x       y       z     vdW  Elec       q    Type
REMARK                         _______ _______ _______ _____ _____    ______ ____
ROOT
ATOM      1  C   UNL     1       4.438   2.284  20.053  0.00  0.00    +0.000 C 
ATOM      2  C   UNL     1       3.636   3.264  19.242  0.00  0.00    +0.000 A 
ATOM      3  C   UNL     1       2.356   2.837  18.820  0.00  0.00    +0.000 A 
ATOM      4  C   UNL     1       1.494   3.688  18.131  0.00  0.00    +0.000 A 
ATOM      5  C   UNL     1       1.897   4.984  17.837  0.00  0.00    +0.000 A 
ATOM      6  C   UNL     1       3.167   5.423  18.228  0.00  0.00    +0.000 A 
ATOM      7 CL   UNL     1       3.604   7.049  17.827  0.00  0.00    +0.000 Cl
ATOM      8  C   UNL     1       4.057   4.568  18.917  0.00  0.00    +0.000 A 
ENDROOT
BRANCH   8   9
ATOM      9  O   UNL     1       5.241   5.154  19.290  0.00  0.00    +0.000 OA
BRANCH   9  10
ATOM     10  C   UNL     1       6.412   4.888  18.516  0.00  0.00    +0.000 C 
BRANCH  10  11
ATOM     11  C   UNL     1       7.567   5.778  18.999  0.00  0.00    +0.000 C 
BRANCH  11  12
ATOM     12  N   UNL     1       7.986   5.476  20.370  0.00  0.00    +0.000 NA
ATOM     13  H   UNL     1       7.459   4.657  20.685  0.00  0.00    +0.000 HD
ATOM     14  H   UNL     1       7.707   6.241  20.982  0.00  0.00    +0.000 HD
ENDBRANCH  11  12
ENDBRANCH  10  11
ENDBRANCH   9  10
ENDBRANCH   8   9
TORSDOF 4
ENDMDL
MODEL 2
REMARK VINA RESULT:      -5.2      2.401      3.065
REMARK  Name = 
REMARK  5 active torsions:
REMARK  status: ('A' for Active; 'I' for Inactive)
REMARK    1  A    between atoms: C_1  and  C_2
REMARK    2  A    between atoms: C_8  and  O_9
REMARK    3  A    between atoms: O_9  and  C_10
REMARK    4  A    between atoms: C_10  and  C_11
REMARK    5  A    between atoms: C_11  and  N_12
REMARK                            x       y       z     vdW  Elec       q    Type
REMARK                         _______ _______ _______ _____ _____    ______ ____
ROOT
ATOM      1  C   UNL     1       2.773   6.482  19.333  0.00  0.00    +0.000 C 
ATOM      2  C   UNL     1       2.508   5.019  19.557  0.00  0.00    +0.000 A 
ATOM      3  C   UNL     1       1.419   4.695  20.398  0.00  0.00    +0.000 A 
ATOM      4  C   UNL     1       1.031   3.374  20.614  0.00  0.00    +0.000 A 
ATOM      5  C   UNL     1       1.732   2.344  20.000  0.00  0.00    +0.000 A 
ATOM      6  C   UNL     1       2.825   2.639  19.178  0.00  0.00    +0.000 A 
ATOM      7 CL   UNL     1       3.652   1.305  18.448  0.00  0.00    +0.000 Cl
ATOM      8  C   UNL     1       3.238   3.973  18.959  0.00  0.00    +0.000 A 
ENDROOT
BRANCH   8   9
ATOM      9  O   UNL     1       4.284   4.112  18.083  0.00  0.00    +0.000 OA
BRANCH   9  10
ATOM     10  C   UNL     1       5.588   4.368  18.606  0.00  0.00    +0.000 C 
BRANCH  10  11
ATOM     11  C   UNL     1       6.437   5.096  17.552  0.00  0.00    +0.000 C 
BRANCH  11  12
ATOM     12  N   UNL     1       7.691   4.402  17.249  0.00  0.00    +0.000 NA
ATOM     13  H   UNL     1       7.492   3.398  17.216  0.00  0.00    +0.000 HD
ATOM     14  H   UNL     1       8.341   4.532  18.023  0.00  0.00    +0.000 HD
ENDBRANCH  11  12
ENDBRANCH  10  11
ENDBRANCH   9  10
ENDBRANCH   8   9
TORSDOF 4
ENDMDL
MODEL 3
REMARK VINA RESULT:      -5.1      2.083      2.773
REMARK  Name = 
REMARK  5 active torsions:
REMARK  status: ('A' for Active; 'I' for Inactive)
REMARK    1  A    between atoms: C_1  and  C_2
REMARK    2  A    between atoms: C_8  and  O_9
REMARK    3  A    between atoms: O_9  and  C_10
REMARK    4  A    between atoms: C_10  and  C_11
REMARK    5  A    between atoms: C_11  and  N_12
REMARK                            x       y       z     vdW  Elec       q    Type
REMARK                         _______ _______ _______ _____ _____    ______ ____
ROOT
ATOM      1  C   UNL     1       4.326   5.692  16.829  0.00  0.00    +0.000 C 
ATOM      2  C   UNL     1       3.701   4.726  17.798  0.00  0.00    +0.000 A 
ATOM      3  C   UNL     1       2.298   4.569  17.719  0.00  0.00    +0.000 A 
ATOM      4  C   UNL     1       1.621   3.645  18.512  0.00  0.00    +0.000 A 
ATOM      5  C   UNL     1       2.332   2.862  19.413  0.00  0.00    +0.000 A 
ATOM      6  C   UNL     1       3.719   3.013  19.522  0.00  0.00    +0.000 A 
ATOM      7 CL   UNL     1       4.539   2.006  20.667  0.00  0.00    +0.000 Cl
ATOM      8  C   UNL     1       4.418   3.955  18.733  0.00  0.00    +0.000 A 
ENDROOT
BRANCH   8   9
ATOM      9  O   UNL     1       5.779   3.948  18.905  0.00  0.00    +0.000 OA
BRANCH   9  10
ATOM     10  C   UNL     1       6.427   5.157  19.302  0.00  0.00    +0.000 C 
BRANCH  10  11
ATOM     11  C   UNL     1       7.679   5.383  18.440  0.00  0.00    +0.000 C 
BRANCH  11  12
ATOM     12  N   UNL     1       8.097   4.180  17.715  0.00  0.00    +0.000 NA
ATOM     13  H   UNL     1       7.762   3.367  18.239  0.00  0.00    +0.000 HD
ATOM     14  H   UNL     1       9.114   4.119  17.726  0.00  0.00    +0.000 HD
ENDBRANCH  11  12
ENDBRANCH  10  11
ENDBRANCH   9  10
ENDBRANCH   8   9
TORSDOF 4
ENDMDL
MODEL 4
REMARK VINA RESULT:      -5.1      1.772      1.950
REMARK  Name = 
REMARK  5 active torsions:
REMARK  status: ('A' for Active; 'I' for Inactive)
REMARK    1  A    between atoms: C_1  and  C_2
REMARK    2  A    between atoms: C_8  and  O_9
REMARK    3  A    between atoms: O_9  and  C_10
REMARK    4  A    between atoms: C_10  and  C_11
REMARK    5  A    between atoms: C_11  and  N_12
REMARK                            x       y       z     vdW  Elec       q    Type
REMARK                         _______ _______ _______ _____ _____    ______ ____
ROOT
ATOM      1  C   UNL     1       3.655   2.012  17.959  0.00  0.00    +0.000 C 
ATOM      2  C   UNL     1       2.797   2.942  18.771  0.00  0.00    +0.000 A 
ATOM      3  C   UNL     1       1.760   2.349  19.526  0.00  0.00    +0.000 A 
ATOM      4  C   UNL     1       0.953   3.102  20.376  0.00  0.00    +0.000 A 
ATOM      5  C   UNL     1       1.159   4.472  20.483  0.00  0.00    +0.000 A 
ATOM      6  C   UNL     1       2.168   5.084  19.732  0.00  0.00    +0.000 A 
ATOM      7 CL   UNL     1       2.366   6.794  19.914  0.00  0.00    +0.000 Cl
ATOM      8  C   UNL     1       2.986   4.335  18.856  0.00  0.00    +0.000 A 
ENDROOT
BRANCH   8   9
ATOM      9  O   UNL     1       3.971   5.059  18.233  0.00  0.00    +0.000 OA
BRANCH   9  10
ATOM     10  C   UNL     1       5.234   5.204  18.885  0.00  0.00    +0.000 C 
BRANCH  10  11
ATOM     11  C   UNL     1       6.353   5.289  17.836  0.00  0.00    +0.000 C 
BRANCH  11  12
ATOM     12  N   UNL     1       7.421   4.312  18.060  0.00  0.00    +0.000 NA
ATOM     13  H   UNL     1       7.321   3.953  19.014  0.00  0.00    +0.000 HD
ATOM     14  H   UNL     1       8.322   4.787  18.032  0.00  0.00    +0.000 HD
ENDBRANCH  11  12
ENDBRANCH  10  11
ENDBRANCH   9  10
ENDBRANCH   8   9
TORSDOF 4
ENDMDL
MODEL 5
REMARK VINA RESULT:      -5.1      2.751      3.515
REMARK  Name = 
REMARK  5 active torsions:
REMARK  status: ('A' for Active; 'I' for Inactive)
REMARK    1  A    between atoms: C_1  and  C_2
REMARK    2  A    between atoms: C_8  and  O_9
REMARK    3  A    between atoms: O_9  and  C_10
REMARK    4  A    between atoms: C_10  and  C_11
REMARK    5  A    between atoms: C_11  and  N_12
REMARK                            x       y       z     vdW  Elec       q    Type
REMARK                         _______ _______ _______ _____ _____    ______ ____
ROOT
ATOM      1  C   UNL     1       1.471   4.594  17.713  0.00  0.00    +0.000 C 
ATOM      2  C   UNL     1       1.902   3.892  18.971  0.00  0.00    +0.000 A 
ATOM      3  C   UNL     1       0.921   3.738  19.977  0.00  0.00    +0.000 A 
ATOM      4  C   UNL     1       1.184   3.035  21.152  0.00  0.00    +0.000 A 
ATOM      5  C   UNL     1       2.440   2.477  21.351  0.00  0.00    +0.000 A 
ATOM      6  C   UNL     1       3.433   2.632  20.377  0.00  0.00    +0.000 A 
ATOM      7 CL   UNL     1       4.975   1.913  20.695  0.00  0.00    +0.000 Cl
ATOM      8  C   UNL     1       3.185   3.353  19.187  0.00  0.00    +0.000 A 
ENDROOT
BRANCH   8   9
ATOM      9  O   UNL     1       4.231   3.369  18.299  0.00  0.00    +0.000 OA
BRANCH   9  10
ATOM     10  C   UNL     1       5.029   4.550  18.201  0.00  0.00    +0.000 C 
BRANCH  10  11
ATOM     11  C   UNL     1       6.222   4.293  17.267  0.00  0.00    +0.000 C 
BRANCH  11  12
ATOM     12  N   UNL     1       5.864   3.504  16.086  0.00  0.00    +0.000 NA
ATOM     13  H   UNL     1       6.125   4.045  15.257  0.00  0.00    +0.000 HD
ATOM     14  H   UNL     1       4.851   3.403  16.045  0.00  0.00    +0.000 HD
ENDBRANCH  11  12
ENDBRANCH  10  11
ENDBRANCH   9  10
ENDBRANCH   8   9
TORSDOF 4
ENDMDL
MODEL 6
REMARK VINA RESULT:      -5.1      2.005      2.429
REMARK  Name = 
REMARK  5 active torsions:
REMARK  status: ('A' for Active; 'I' for Inactive)
REMARK    1  A    between atoms: C_1  and  C_2
REMARK    2  A    between atoms: C_8  and  O_9
REMARK    3  A    between atoms: O_9  and  C_10
REMARK    4  A    between atoms: C_10  and  C_11
REMARK    5  A    between atoms: C_11  and  N_12
REMARK                            x       y       z     vdW  Elec       q    Type
REMARK                         _______ _______ _______ _____ _____    ______ ____
ROOT
ATOM      1  C   UNL     1       4.856   2.028  20.481  0.00  0.00    +0.000 C 
ATOM      2  C   UNL     1       3.490   2.606  20.235  0.00  0.00    +0.000 A 
ATOM      3  C   UNL     1       2.577   2.553  21.313  0.00  0.00    +0.000 A 
ATOM      4  C   UNL     1       1.311   3.127  21.226  0.00  0.00    +0.000 A 
ATOM      5  C   UNL     1       0.923   3.760  20.052  0.00  0.00    +0.000 A 
ATOM      6  C   UNL     1       1.803   3.809  18.965  0.00  0.00    +0.000 A 
ATOM      7 CL   UNL     1       1.252   4.612  17.534  0.00  0.00    +0.000 Cl
ATOM      8  C   UNL     1       3.086   3.221  19.034  0.00  0.00    +0.000 A 
ENDROOT
BRANCH   8   9
ATOM      9  O   UNL     1       3.859   3.401  17.915  0.00  0.00    +0.000 OA
BRANCH   9  10
ATOM     10  C   UNL     1       4.599   4.615  17.780  0.00  0.00    +0.000 C 
BRANCH  10  11
ATOM     11  C   UNL     1       5.979   4.317  17.172  0.00  0.00    +0.000 C 
BRANCH  11  12
ATOM     12  N   UNL     1       7.044   4.254  18.177  0.00  0.00    +0.000 NA
ATOM     13  H   UNL     1       7.888   4.659  17.763  0.00  0.00    +0.000 HD
ATOM     14  H   UNL     1       7.266   3.278  18.368  0.00  0.00    +0.000 HD
ENDBRANCH  11  12
ENDBRANCH  10  11
ENDBRANCH   9  10
ENDBRANCH   8   9
TORSDOF 4
ENDMDL
MODEL 7
REMARK VINA RESULT:      -5.0      2.951      4.797
REMARK  Name = 
REMARK  5 active torsions:
REMARK  status: ('A' for Active; 'I' for Inactive)
REMARK    1  A    between atoms: C_1  and  C_2
REMARK    2  A    between atoms: C_8  and  O_9
REMARK    3  A    between atoms: O_9  and  C_10
REMARK    4  A    between atoms: C_10  and  C_11
REMARK    5  A    between atoms: C_11  and  N_12
REMARK                            x       y       z     vdW  Elec       q    Type
REMARK                         _______ _______ _______ _____ _____    ______ ____
ROOT
ATOM      1  C   UNL     1       5.915   3.798  15.122  0.00  0.00    +0.000 C 
ATOM      2  C   UNL     1       6.042   4.315  16.528  0.00  0.00    +0.000 A 
ATOM      3  C   UNL     1       7.348   4.622  16.973  0.00  0.00    +0.000 A 
ATOM      4  C   UNL     1       7.578   5.182  18.228  0.00  0.00    +0.000 A 
ATOM      5  C   UNL     1       6.506   5.438  19.073  0.00  0.00    +0.000 A 
ATOM      6  C   UNL     1       5.206   5.125  18.661  0.00  0.00    +0.000 A 
ATOM      7 CL   UNL     1       3.918   5.470  19.766  0.00  0.00    +0.000 Cl
ATOM      8  C   UNL     1       4.957   4.546  17.396  0.00  0.00    +0.000 A 
ENDROOT
BRANCH   8   9
ATOM      9  O   UNL     1       3.630   4.352  17.106  0.00  0.00    +0.000 OA
BRANCH   9  10
ATOM     10  C   UNL     1       3.072   3.049  17.283  0.00  0.00    +0.000 C 
BRANCH  10  11
ATOM     11  C   UNL     1       1.766   3.148  18.086  0.00  0.00    +0.000 C 
BRANCH  11  12
ATOM     12  N   UNL     1       1.352   1.868  18.664  0.00  0.00    +0.000 NA
ATOM     13  H   UNL     1       0.813   2.067  19.512  0.00  0.00    +0.000 HD
ATOM     14  H   UNL     1       2.178   1.356  18.972  0.00  0.00    +0.000 HD
ENDBRANCH  11  12
ENDBRANCH  10  11
ENDBRANCH   9  10
ENDBRANCH   8   9
TORSDOF 4
ENDMDL
MODEL 8
REMARK VINA RESULT:      -5.0      3.409      4.687
REMARK  Name = 
REMARK  5 active torsions:
REMARK  status: ('A' for Active; 'I' for Inactive)
REMARK    1  A    between atoms: C_1  and  C_2
REMARK    2  A    between atoms: C_8  and  O_9
REMARK    3  A    between atoms: O_9  and  C_10
REMARK    4  A    between atoms: C_10  and  C_11
REMARK    5  A    between atoms: C_11  and  N_12
REMARK                            x       y       z     vdW  Elec       q    Type
REMARK                         _______ _______ _______ _____ _____    ______ ____
ROOT
ATOM      1  C   UNL     1       2.871   7.662  18.128  0.00  0.00    +0.000 C 
ATOM      2  C   UNL     1       3.498   6.400  17.603  0.00  0.00    +0.000 A 
ATOM      3  C   UNL     1       4.578   6.556  16.704  0.00  0.00    +0.000 A 
ATOM      4  C   UNL     1       5.286   5.459  16.216  0.00  0.00    +0.000 A 
ATOM      5  C   UNL     1       4.923   4.178  16.609  0.00  0.00    +0.000 A 
ATOM      6  C   UNL     1       3.846   3.997  17.484  0.00  0.00    +0.000 A 
ATOM      7 CL   UNL     1       3.449   2.372  17.929  0.00  0.00    +0.000 Cl
ATOM      8  C   UNL     1       3.111   5.098  17.978  0.00  0.00    +0.000 A 
ENDROOT
BRANCH   8   9
ATOM      9  O   UNL     1       2.123   4.772  18.873  0.00  0.00    +0.000 OA
BRANCH   9  10
ATOM     10  C   UNL     1       2.415   4.835  20.270  0.00  0.00    +0.000 C 
BRANCH  10  11
ATOM     11  C   UNL     1       1.647   3.730  21.012  0.00  0.00    +0.000 C 
BRANCH  11  12
ATOM     12  N   UNL     1       0.531   3.189  20.232  0.00  0.00    +0.000 NA
ATOM     13  H   UNL     1      -0.336   3.580  20.613  0.00  0.00    +0.000 HD
ATOM     14  H   UNL     1       0.473   2.183  20.382  0.00  0.00    +0.000 HD
ENDBRANCH  11  12
ENDBRANCH  10  11
ENDBRANCH   9  10
ENDBRANCH   8   9
TORSDOF 4
ENDMDL
MODEL 9
REMARK VINA RESULT:      -5.0      2.810      3.867
REMARK  Name = 
REMARK  5 active torsions:
REMARK  status: ('A' for Active; 'I' for Inactive)
REMARK    1  A    between atoms: C_1  and  C_2
REMARK    2  A    between atoms: C_8  and  O_9
REMARK    3  A    between atoms: O_9  and  C_10
REMARK    4  A    between atoms: C_10  and  C_11
REMARK    5  A    between atoms: C_11  and  N_12
REMARK                            x       y       z     vdW  Elec       q    Type
REMARK                         _______ _______ _______ _____ _____    ______ ____
ROOT
ATOM      1  C   UNL     1       3.570   2.554  17.754  0.00  0.00    +0.000 C 
ATOM      2  C   UNL     1       3.875   4.010  17.530  0.00  0.00    +0.000 A 
ATOM      3  C   UNL     1       4.922   4.305  16.628  0.00  0.00    +0.000 A 
ATOM      4  C   UNL     1       5.240   5.617  16.283  0.00  0.00    +0.000 A 
ATOM      5  C   UNL     1       4.523   6.667  16.842  0.00  0.00    +0.000 A 
ATOM      6  C   UNL     1       3.494   6.400  17.752  0.00  0.00    +0.000 A 
ATOM      7 CL   UNL     1       2.644   7.757  18.411  0.00  0.00    +0.000 Cl
ATOM      8  C   UNL     1       3.168   5.075  18.121  0.00  0.00    +0.000 A 
ENDROOT
BRANCH   8   9
ATOM      9  O   UNL     1       2.098   4.965  18.973  0.00  0.00    +0.000 OA
BRANCH   9  10
ATOM     10  C   UNL     1       2.348   4.783  20.368  0.00  0.00    +0.000 C 
BRANCH  10  11
ATOM     11  C   UNL     1       1.473   3.639  20.907  0.00  0.00    +0.000 C 
BRANCH  11  12
ATOM     12  N   UNL     1       2.063   2.969  22.068  0.00  0.00    +0.000 NA
ATOM     13  H   UNL     1       2.784   2.328  21.726  0.00  0.00    +0.000 HD
ATOM     14  H   UNL     1       1.356   2.384  22.512  0.00  0.00    +0.000 HD
ENDBRANCH  11  12
ENDBRANCH  10  11
ENDBRANCH   9  10
ENDBRANCH   8   9
TORSDOF 4
ENDMDL
