MODEL 1
REMARK VINA RESULT:      -6.5      0.000      0.000
REMARK  Name = 
REMARK  4 active torsions:
REMARK  status: ('A' for Active; 'I' for Inactive)
REMARK    1  A    between atoms: C_2  and  C_11
REMARK    2  A    between atoms: N_3  and  C_4
REMARK    3  A    between atoms: C_4  and  C_5
REMARK    4  A    between atoms: C_5  and  C_6
REMARK                            x       y       z     vdW  Elec       q    Type
REMARK                         _______ _______ _______ _____ _____    ______ ____
ROOT
ATOM      1  N   UNL     1       5.180   1.720  20.174  0.00  0.00    +0.000 N 
ATOM      2  C   UNL     1       4.587   2.834  19.617  0.00  0.00    +0.000 C 
ATOM      3  N   UNL     1       5.416   3.674  19.071  0.00  0.00    +0.000 NA
ATOM      4  H   UNL     1       6.157   1.668  19.893  0.00  0.00    +0.000 HD
ATOM      5  H   UNL     1       4.702   0.839  20.021  0.00  0.00    +0.000 HD
ENDROOT
BRANCH   2   6
ATOM      6  C   UNL     1       3.086   2.965  19.690  0.00  0.00    +0.000 A 
ATOM      7  C   UNL     1       2.276   2.303  18.776  0.00  0.00    +0.000 A 
ATOM      8  N   UNL     1       0.918   2.385  18.802  0.00  0.00    +0.000 NA
ATOM      9  C   UNL     1       0.405   3.143  19.801  0.00  0.00    +0.000 A 
ATOM     10  C   UNL     1       1.210   3.813  20.707  0.00  0.00    +0.000 A 
ATOM     11  N   UNL     1       2.557   3.759  20.657  0.00  0.00    +0.000 NA
ENDBRANCH   2   6
BRANCH   3  12
ATOM     12  C   UNL     1       4.885   4.920  18.503  0.00  0.00    +0.000 C 
BRANCH  12  13
ATOM     13  C   UNL     1       4.446   4.719  17.053  0.00  0.00    +0.000 C 
BRANCH  13  14
ATOM     14  C   UNL     1       5.598   4.912  16.120  0.00  0.00    +0.000 A 
ATOM     15  C   UNL     1       6.800   5.552  16.346  0.00  0.00    +0.000 A 
ATOM     16  N   UNL     1       7.515   5.393  15.191  0.00  0.00    +0.000 N 
ATOM     17  C   UNL     1       6.744   4.673  14.326  0.00  0.00    +0.000 A 
ATOM     18  N   UNL     1       5.582   4.369  14.855  0.00  0.00    +0.000 NA
ATOM     19  H   UNL     1       8.450   5.732  15.010  0.00  0.00    +0.000 HD
ENDBRANCH  13  14
ENDBRANCH  12  13
ENDBRANCH   3  12
TORSDOF 4
ENDMDL
MODEL 2
REMARK VINA RESULT:      -6.5      1.523      5.522
REMARK  Name = 
REMARK  4 active torsions:
REMARK  status: ('A' for Active; 'I' for Inactive)
REMARK    1  A    between atoms: C_2  and  C_11
REMARK    2  A    between atoms: N_3  and  C_4
REMARK    3  A    between atoms: C_4  and  C_5
REMARK    4  A    between atoms: C_5  and  C_6
REMARK                            x       y       z     vdW  Elec       q    Type
REMARK                         _______ _______ _______ _____ _____    ______ ____
ROOT
ATOM      1  N   UNL     1       5.233   2.665  19.578  0.00  0.00    +0.000 N 
ATOM      2  C   UNL     1       4.932   3.844  18.928  0.00  0.00    +0.000 C 
ATOM      3  N   UNL     1       4.073   4.601  19.545  0.00  0.00    +0.000 NA
ATOM      4  H   UNL     1       4.859   2.685  20.525  0.00  0.00    +0.000 HD
ATOM      5  H   UNL     1       6.207   2.388  19.569  0.00  0.00    +0.000 HD
ENDROOT
BRANCH   2   6
ATOM      6  C   UNL     1       5.609   4.134  17.611  0.00  0.00    +0.000 A 
ATOM      7  C   UNL     1       6.901   4.641  17.579  0.00  0.00    +0.000 A 
ATOM      8  N   UNL     1       7.556   4.914  16.418  0.00  0.00    +0.000 NA
ATOM      9  C   UNL     1       6.865   4.634  15.287  0.00  0.00    +0.000 A 
ATOM     10  C   UNL     1       5.572   4.138  15.315  0.00  0.00    +0.000 A 
ATOM     11  N   UNL     1       4.912   3.902  16.468  0.00  0.00    +0.000 NA
ENDBRANCH   2   6
BRANCH   3  12
ATOM     12  C   UNL     1       3.647   5.850  18.903  0.00  0.00    +0.000 C 
BRANCH  12  13
ATOM     13  C   UNL     1       2.243   5.715  18.314  0.00  0.00    +0.000 C 
BRANCH  13  14
ATOM     14  C   UNL     1       1.571   4.483  18.828  0.00  0.00    +0.000 A 
ATOM     15  C   UNL     1       1.029   4.245  20.075  0.00  0.00    +0.000 A 
ATOM     16  N   UNL     1       0.493   2.989  20.002  0.00  0.00    +0.000 N 
ATOM     17  C   UNL     1       0.715   2.521  18.740  0.00  0.00    +0.000 A 
ATOM     18  N   UNL     1       1.363   3.396  18.009  0.00  0.00    +0.000 NA
ATOM     19  H   UNL     1       0.006   2.499  20.740  0.00  0.00    +0.000 HD
ENDBRANCH  13  14
ENDBRANCH  12  13
ENDBRANCH   3  12
TORSDOF 4
ENDMDL
MODEL 3
REMARK VINA RESULT:      -6.4      1.660      5.614
REMARK  Name = 
REMARK  4 active torsions:
REMARK  status: ('A' for Active; 'I' for Inactive)
REMARK    1  A    between atoms: C_2  and  C_11
REMARK    2  A    between atoms: N_3  and  C_4
REMARK    3  A    between atoms: C_4  and  C_5
REMARK    4  A    between atoms: C_5  and  C_6
REMARK                            x       y       z     vdW  Elec       q    Type
REMARK                         _______ _______ _______ _____ _____    ______ ____
ROOT
ATOM      1  N   UNL     1       6.422   4.729  19.523  0.00  0.00    +0.000 N 
ATOM      2  C   UNL     1       5.589   5.108  18.491  0.00  0.00    +0.000 C 
ATOM      3  N   UNL     1       4.438   5.581  18.868  0.00  0.00    +0.000 NA
ATOM      4  H   UNL     1       6.051   5.062  20.410  0.00  0.00    +0.000 HD
ATOM      5  H   UNL     1       7.400   4.971  19.415  0.00  0.00    +0.000 HD
ENDROOT
BRANCH   2   6
ATOM      6  C   UNL     1       6.077   4.945  17.072  0.00  0.00    +0.000 A 
ATOM      7  C   UNL     1       7.011   5.827  16.543  0.00  0.00    +0.000 A 
ATOM      8  N   UNL     1       7.486   5.720  15.273  0.00  0.00    +0.000 NA
ATOM      9  C   UNL     1       7.000   4.675  14.562  0.00  0.00    +0.000 A 
ATOM     10  C   UNL     1       6.061   3.800  15.082  0.00  0.00    +0.000 A 
ATOM     11  N   UNL     1       5.565   3.930  16.330  0.00  0.00    +0.000 NA
ENDBRANCH   2   6
BRANCH   3  12
ATOM     12  C   UNL     1       3.459   5.957  17.839  0.00  0.00    +0.000 C 
BRANCH  12  13
ATOM     13  C   UNL     1       2.059   5.465  18.207  0.00  0.00    +0.000 C 
BRANCH  13  14
ATOM     14  C   UNL     1       2.036   3.976  18.324  0.00  0.00    +0.000 A 
ATOM     15  C   UNL     1       2.410   3.025  17.395  0.00  0.00    +0.000 A 
ATOM     16  N   UNL     1       2.246   1.822  18.025  0.00  0.00    +0.000 N 
ATOM     17  C   UNL     1       1.795   2.077  19.287  0.00  0.00    +0.000 A 
ATOM     18  N   UNL     1       1.657   3.365  19.498  0.00  0.00    +0.000 NA
ATOM     19  H   UNL     1       2.436   0.908  17.636  0.00  0.00    +0.000 HD
ENDBRANCH  13  14
ENDBRANCH  12  13
ENDBRANCH   3  12
TORSDOF 4
ENDMDL
MODEL 4
REMARK VINA RESULT:      -6.3      1.697      6.031
REMARK  Name = 
REMARK  4 active torsions:
REMARK  status: ('A' for Active; 'I' for Inactive)
REMARK    1  A    between atoms: C_2  and  C_11
REMARK    2  A    between atoms: N_3  and  C_4
REMARK    3  A    between atoms: C_4  and  C_5
REMARK    4  A    between atoms: C_5  and  C_6
REMARK                            x       y       z     vdW  Elec       q    Type
REMARK                         _______ _______ _______ _____ _____    ______ ____
ROOT
ATOM      1  N   UNL     1       8.109   6.172  19.214  0.00  0.00    +0.000 N 
ATOM      2  C   UNL     1       6.962   5.534  18.790  0.00  0.00    +0.000 C 
ATOM      3  N   UNL     1       6.205   5.084  19.747  0.00  0.00    +0.000 NA
ATOM      4  H   UNL     1       8.065   6.338  20.218  0.00  0.00    +0.000 HD
ATOM      5  H   UNL     1       8.361   7.014  18.710  0.00  0.00    +0.000 HD
ENDROOT
BRANCH   2   6
ATOM      6  C   UNL     1       6.702   5.426  17.308  0.00  0.00    +0.000 A 
ATOM      7  C   UNL     1       5.803   6.283  16.686  0.00  0.00    +0.000 A 
ATOM      8  N   UNL     1       5.538   6.229  15.353  0.00  0.00    +0.000 NA
ATOM      9  C   UNL     1       6.233   5.292  14.664  0.00  0.00    +0.000 A 
ATOM     10  C   UNL     1       7.122   4.430  15.282  0.00  0.00    +0.000 A 
ATOM     11  N   UNL     1       7.356   4.461  16.611  0.00  0.00    +0.000 NA
ENDBRANCH   2   6
BRANCH   3  12
ATOM     12  C   UNL     1       4.990   4.339  19.394  0.00  0.00    +0.000 C 
BRANCH  12  13
ATOM     13  C   UNL     1       3.735   5.153  19.708  0.00  0.00    +0.000 C 
BRANCH  13  14
ATOM     14  C   UNL     1       2.586   4.252  20.024  0.00  0.00    +0.000 A 
ATOM     15  C   UNL     1       2.032   3.947  21.251  0.00  0.00    +0.000 A 
ATOM     16  N   UNL     1       0.975   3.125  20.975  0.00  0.00    +0.000 N 
ATOM     17  C   UNL     1       0.918   2.968  19.621  0.00  0.00    +0.000 A 
ATOM     18  N   UNL     1       1.876   3.633  19.019  0.00  0.00    +0.000 NA
ATOM     19  H   UNL     1       0.338   2.717  21.647  0.00  0.00    +0.000 HD
ENDBRANCH  13  14
ENDBRANCH  12  13
ENDBRANCH   3  12
TORSDOF 4
ENDMDL
MODEL 5
REMARK VINA RESULT:      -6.3      1.553      6.265
REMARK  Name = 
REMARK  4 active torsions:
REMARK  status: ('A' for Active; 'I' for Inactive)
REMARK    1  A    between atoms: C_2  and  C_11
REMARK    2  A    between atoms: N_3  and  C_4
REMARK    3  A    between atoms: C_4  and  C_5
REMARK    4  A    between atoms: C_5  and  C_6
REMARK                            x       y       z     vdW  Elec       q    Type
REMARK                         _______ _______ _______ _____ _____    ______ ____
ROOT
ATOM      1  N   UNL     1       3.744   7.170  17.637  0.00  0.00    +0.000 N 
ATOM      2  C   UNL     1       4.404   5.970  17.802  0.00  0.00    +0.000 C 
ATOM      3  N   UNL     1       4.130   5.347  18.910  0.00  0.00    +0.000 NA
ATOM      4  H   UNL     1       3.012   7.264  18.339  0.00  0.00    +0.000 HD
ATOM      5  H   UNL     1       3.391   7.358  16.706  0.00  0.00    +0.000 HD
ENDROOT
BRANCH   2   6
ATOM      6  C   UNL     1       5.347   5.511  16.717  0.00  0.00    +0.000 A 
ATOM      7  C   UNL     1       6.627   6.043  16.624  0.00  0.00    +0.000 A 
ATOM      8  N   UNL     1       7.516   5.658  15.669  0.00  0.00    +0.000 NA
ATOM      9  C   UNL     1       7.073   4.698  14.823  0.00  0.00    +0.000 A 
ATOM     10  C   UNL     1       5.794   4.173  14.905  0.00  0.00    +0.000 A 
ATOM     11  N   UNL     1       4.902   4.583  15.832  0.00  0.00    +0.000 NA
ENDBRANCH   2   6
BRANCH   3  12
ATOM     12  C   UNL     1       4.828   4.089  19.202  0.00  0.00    +0.000 C 
BRANCH  12  13
ATOM     13  C   UNL     1       3.923   2.884  18.944  0.00  0.00    +0.000 C 
BRANCH  13  14
ATOM     14  C   UNL     1       2.703   2.945  19.806  0.00  0.00    +0.000 A 
ATOM     15  C   UNL     1       1.390   3.162  19.440  0.00  0.00    +0.000 A 
ATOM     16  N   UNL     1       0.672   3.063  20.599  0.00  0.00    +0.000 N 
ATOM     17  C   UNL     1       1.551   2.789  21.605  0.00  0.00    +0.000 A 
ATOM     18  N   UNL     1       2.783   2.713  21.161  0.00  0.00    +0.000 NA
ATOM     19  H   UNL     1      -0.330   3.159  20.696  0.00  0.00    +0.000 HD
ENDBRANCH  13  14
ENDBRANCH  12  13
ENDBRANCH   3  12
TORSDOF 4
ENDMDL
MODEL 6
REMARK VINA RESULT:      -6.3      1.358      1.822
REMARK  Name = 
REMARK  4 active torsions:
REMARK  status: ('A' for Active; 'I' for Inactive)
REMARK    1  A    between atoms: C_2  and  C_11
REMARK    2  A    between atoms: N_3  and  C_4
REMARK    3  A    between atoms: C_4  and  C_5
REMARK    4  A    between atoms: C_5  and  C_6
REMARK                            x       y       z     vdW  Elec       q    Type
REMARK                         _______ _______ _______ _____ _____    ______ ____
ROOT
ATOM      1  N   UNL     1       4.149   1.032  17.979  0.00  0.00    +0.000 N 
ATOM      2  C   UNL     1       3.648   2.294  18.219  0.00  0.00    +0.000 C 
ATOM      3  N   UNL     1       3.956   3.182  17.320  0.00  0.00    +0.000 NA
ATOM      4  H   UNL     1       4.523   0.980  17.033  0.00  0.00    +0.000 HD
ATOM      5  H   UNL     1       3.521   0.261  18.173  0.00  0.00    +0.000 HD
ENDROOT
BRANCH   2   6
ATOM      6  C   UNL     1       2.817   2.517  19.459  0.00  0.00    +0.000 A 
ATOM      7  C   UNL     1       3.407   2.497  20.716  0.00  0.00    +0.000 A 
ATOM      8  N   UNL     1       2.703   2.697  21.862  0.00  0.00    +0.000 NA
ATOM      9  C   UNL     1       1.381   2.941  21.692  0.00  0.00    +0.000 A 
ATOM     10  C   UNL     1       0.787   2.950  20.441  0.00  0.00    +0.000 A 
ATOM     11  N   UNL     1       1.482   2.716  19.308  0.00  0.00    +0.000 NA
ENDBRANCH   2   6
BRANCH   3  12
ATOM     12  C   UNL     1       3.517   4.569  17.519  0.00  0.00    +0.000 C 
BRANCH  12  13
ATOM     13  C   UNL     1       4.702   5.479  17.843  0.00  0.00    +0.000 C 
BRANCH  13  14
ATOM     14  C   UNL     1       5.859   5.179  16.947  0.00  0.00    +0.000 A 
ATOM     15  C   UNL     1       7.104   4.679  17.273  0.00  0.00    +0.000 A 
ATOM     16  N   UNL     1       7.760   4.541  16.081  0.00  0.00    +0.000 N 
ATOM     17  C   UNL     1       6.910   4.946  15.094  0.00  0.00    +0.000 A 
ATOM     18  N   UNL     1       5.757   5.338  15.583  0.00  0.00    +0.000 NA
ATOM     19  H   UNL     1       8.699   4.189  15.948  0.00  0.00    +0.000 HD
ENDBRANCH  13  14
ENDBRANCH  12  13
ENDBRANCH   3  12
TORSDOF 4
ENDMDL
MODEL 7
REMARK VINA RESULT:      -6.3      2.102      5.977
REMARK  Name = 
REMARK  4 active torsions:
REMARK  status: ('A' for Active; 'I' for Inactive)
REMARK    1  A    between atoms: C_2  and  C_11
REMARK    2  A    between atoms: N_3  and  C_4
REMARK    3  A    between atoms: C_4  and  C_5
REMARK    4  A    between atoms: C_5  and  C_6
REMARK                            x       y       z     vdW  Elec       q    Type
REMARK                         _______ _______ _______ _____ _____    ______ ____
ROOT
ATOM      1  N   UNL     1       2.923   6.905  17.974  0.00  0.00    +0.000 N 
ATOM      2  C   UNL     1       3.651   5.736  17.919  0.00  0.00    +0.000 C 
ATOM      3  N   UNL     1       2.959   4.678  17.614  0.00  0.00    +0.000 NA
ATOM      4  H   UNL     1       1.995   6.756  17.582  0.00  0.00    +0.000 HD
ATOM      5  H   UNL     1       3.367   7.724  17.576  0.00  0.00    +0.000 HD
ENDROOT
BRANCH   2   6
ATOM      6  C   UNL     1       5.132   5.793  18.205  0.00  0.00    +0.000 A 
ATOM      7  C   UNL     1       5.642   5.267  19.385  0.00  0.00    +0.000 A 
ATOM      8  N   UNL     1       6.969   5.289  19.687  0.00  0.00    +0.000 NA
ATOM      9  C   UNL     1       7.766   5.844  18.742  0.00  0.00    +0.000 A 
ATOM     10  C   UNL     1       7.259   6.380  17.570  0.00  0.00    +0.000 A 
ATOM     11  N   UNL     1       5.939   6.388  17.290  0.00  0.00    +0.000 NA
ENDBRANCH   2   6
BRANCH   3  12
ATOM     12  C   UNL     1       3.636   3.375  17.588  0.00  0.00    +0.000 C 
BRANCH  12  13
ATOM     13  C   UNL     1       2.724   2.270  18.119  0.00  0.00    +0.000 C 
BRANCH  13  14
ATOM     14  C   UNL     1       2.450   2.465  19.575  0.00  0.00    +0.000 A 
ATOM     15  C   UNL     1       3.343   2.531  20.626  0.00  0.00    +0.000 A 
ATOM     16  N   UNL     1       2.579   2.776  21.733  0.00  0.00    +0.000 N 
ATOM     17  C   UNL     1       1.279   2.857  21.326  0.00  0.00    +0.000 A 
ATOM     18  N   UNL     1       1.168   2.672  20.032  0.00  0.00    +0.000 NA
ATOM     19  H   UNL     1       2.912   2.893  22.681  0.00  0.00    +0.000 HD
ENDBRANCH  13  14
ENDBRANCH  12  13
ENDBRANCH   3  12
TORSDOF 4
ENDMDL
MODEL 8
REMARK VINA RESULT:      -6.3      1.731      6.042
REMARK  Name = 
REMARK  4 active torsions:
REMARK  status: ('A' for Active; 'I' for Inactive)
REMARK    1  A    between atoms: C_2  and  C_11
REMARK    2  A    between atoms: N_3  and  C_4
REMARK    3  A    between atoms: C_4  and  C_5
REMARK    4  A    between atoms: C_5  and  C_6
REMARK                            x       y       z     vdW  Elec       q    Type
REMARK                         _______ _______ _______ _____ _____    ______ ____
ROOT
ATOM      1  N   UNL     1       6.165   3.301  15.515  0.00  0.00    +0.000 N 
ATOM      2  C   UNL     1       5.579   4.100  16.474  0.00  0.00    +0.000 C 
ATOM      3  N   UNL     1       4.311   3.881  16.664  0.00  0.00    +0.000 NA
ATOM      4  H   UNL     1       5.531   2.549  15.254  0.00  0.00    +0.000 HD
ATOM      5  H   UNL     1       7.089   2.949  15.735  0.00  0.00    +0.000 HD
ENDROOT
BRANCH   2   6
ATOM      6  C   UNL     1       6.436   5.116  17.189  0.00  0.00    +0.000 A 
ATOM      7  C   UNL     1       6.662   6.366  16.629  0.00  0.00    +0.000 A 
ATOM      8  N   UNL     1       7.422   7.318  17.235  0.00  0.00    +0.000 NA
ATOM      9  C   UNL     1       7.928   6.968  18.443  0.00  0.00    +0.000 A 
ATOM     10  C   UNL     1       7.714   5.719  18.999  0.00  0.00    +0.000 A 
ATOM     11  N   UNL     1       6.989   4.764  18.378  0.00  0.00    +0.000 NA
ENDBRANCH   2   6
BRANCH   3  12
ATOM     12  C   UNL     1       3.586   4.722  17.625  0.00  0.00    +0.000 C 
BRANCH  12  13
ATOM     13  C   UNL     1       2.237   4.102  17.989  0.00  0.00    +0.000 C 
BRANCH  13  14
ATOM     14  C   UNL     1       2.259   3.573  19.386  0.00  0.00    +0.000 A 
ATOM     15  C   UNL     1       3.237   2.831  20.020  0.00  0.00    +0.000 A 
ATOM     16  N   UNL     1       2.786   2.659  21.299  0.00  0.00    +0.000 N 
ATOM     17  C   UNL     1       1.582   3.292  21.400  0.00  0.00    +0.000 A 
ATOM     18  N   UNL     1       1.235   3.851  20.264  0.00  0.00    +0.000 NA
ATOM     19  H   UNL     1       3.261   2.166  22.043  0.00  0.00    +0.000 HD
ENDBRANCH  13  14
ENDBRANCH  12  13
ENDBRANCH   3  12
TORSDOF 4
ENDMDL
MODEL 9
REMARK VINA RESULT:      -6.3      1.815      2.414
REMARK  Name = 
REMARK  4 active torsions:
REMARK  status: ('A' for Active; 'I' for Inactive)
REMARK    1  A    between atoms: C_2  and  C_11
REMARK    2  A    between atoms: N_3  and  C_4
REMARK    3  A    between atoms: C_4  and  C_5
REMARK    4  A    between atoms: C_5  and  C_6
REMARK                            x       y       z     vdW  Elec       q    Type
REMARK                         _______ _______ _______ _____ _____    ______ ____
ROOT
ATOM      1  N   UNL     1       4.089   0.944  17.951  0.00  0.00    +0.000 N 
ATOM      2  C   UNL     1       3.741   2.246  18.247  0.00  0.00    +0.000 C 
ATOM      3  N   UNL     1       4.209   3.135  17.422  0.00  0.00    +0.000 NA
ATOM      4  H   UNL     1       4.504   0.898  17.022  0.00  0.00    +0.000 HD
ATOM      5  H   UNL     1       3.358   0.252  18.066  0.00  0.00    +0.000 HD
ENDROOT
BRANCH   2   6
ATOM      6  C   UNL     1       2.878   2.504  19.459  0.00  0.00    +0.000 A 
ATOM      7  C   UNL     1       3.414   2.413  20.737  0.00  0.00    +0.000 A 
ATOM      8  N   UNL     1       2.680   2.642  21.859  0.00  0.00    +0.000 NA
ATOM      9  C   UNL     1       1.388   2.988  21.643  0.00  0.00    +0.000 A 
ATOM     10  C   UNL     1       0.848   3.068  20.370  0.00  0.00    +0.000 A 
ATOM     11  N   UNL     1       1.570   2.806  19.260  0.00  0.00    +0.000 NA
ENDBRANCH   2   6
BRANCH   3  12
ATOM     12  C   UNL     1       3.940   4.554  17.688  0.00  0.00    +0.000 C 
BRANCH  12  13
ATOM     13  C   UNL     1       4.688   5.449  16.700  0.00  0.00    +0.000 C 
BRANCH  13  14
ATOM     14  C   UNL     1       5.918   6.018  17.329  0.00  0.00    +0.000 A 
ATOM     15  C   UNL     1       6.622   5.563  18.426  0.00  0.00    +0.000 A 
ATOM     16  N   UNL     1       7.692   6.408  18.543  0.00  0.00    +0.000 N 
ATOM     17  C   UNL     1       7.607   7.320  17.532  0.00  0.00    +0.000 A 
ATOM     18  N   UNL     1       6.549   7.113  16.784  0.00  0.00    +0.000 NA
ATOM     19  H   UNL     1       8.423   6.360  19.240  0.00  0.00    +0.000 HD
ENDBRANCH  13  14
ENDBRANCH  12  13
ENDBRANCH   3  12
TORSDOF 4
ENDMDL
