MODEL 1
REMARK VINA RESULT:      -7.2      0.000      0.000
REMARK  Name = 
REMARK  10 active torsions:
REMARK  status: ('A' for Active; 'I' for Inactive)
REMARK    1  A    between atoms: C_1  and  O_2
REMARK    2  A    between atoms: O_2  and  C_3
REMARK    3  A    between atoms: C_6  and  O_7
REMARK    4  A    between atoms: O_7  and  C_8
REMARK    5  A    between atoms: C_8  and  C_9
REMARK    6  A    between atoms: C_9  and  O_11
REMARK    7  A    between atoms: O_11  and  N_12
REMARK    8  A    between atoms: C_13  and  C_15
REMARK    9  A    between atoms: C_18  and  O_19
REMARK   10  A    between atoms: O_19  and  C_20
REMARK                            x       y       z     vdW  Elec       q    Type
REMARK                         _______ _______ _______ _____ _____    ______ ____
ROOT
ATOM      1  O   UNL     1       2.391   2.303  19.879  0.00  0.00    +0.000 OA
ENDROOT
BRANCH   1   2
ATOM      2  N   UNL     1       3.032   3.112  18.917  0.00  0.00    +0.000 NA
ATOM      3  C   UNL     1       4.326   3.006  18.980  0.00  0.00    +0.000 C 
ATOM      4  N   UNL     1       4.992   2.322  19.971  0.00  0.00    +0.000 N 
ATOM      5  H   UNL     1       4.407   2.176  20.789  0.00  0.00    +0.000 HD
ATOM      6  H   UNL     1       5.897   2.704  20.224  0.00  0.00    +0.000 HD
BRANCH   3   7
ATOM      7  C   UNL     1       5.126   3.666  17.899  0.00  0.00    +0.000 A 
ATOM      8  C   UNL     1       6.313   4.333  18.209  0.00  0.00    +0.000 A 
ATOM      9  C   UNL     1       7.022   4.998  17.206  0.00  0.00    +0.000 A 
ATOM     10  C   UNL     1       6.558   4.999  15.887  0.00  0.00    +0.000 A 
ATOM     11  C   UNL     1       5.363   4.348  15.579  0.00  0.00    +0.000 A 
ATOM     12  C   UNL     1       4.648   3.680  16.582  0.00  0.00    +0.000 A 
BRANCH  10  13
ATOM     13  O   UNL     1       7.323   5.711  15.004  0.00  0.00    +0.000 OA
ATOM     14  C   UNL     1       7.484   5.132  13.715  0.00  0.00    +0.000 C 
ENDBRANCH  10  13
ENDBRANCH   3   7
ENDBRANCH   1   2
BRANCH   1  15
ATOM     15  C   UNL     1       2.151   3.070  20.993  0.00  0.00    +0.000 C 
ATOM     16  O   UNL     1       2.558   2.838  22.127  0.00  0.00    +0.000 OA
BRANCH  15  17
ATOM     17  C   UNL     1       1.353   4.303  20.610  0.00  0.00    +0.000 C 
BRANCH  17  18
ATOM     18  O   UNL     1       1.996   5.498  21.023  0.00  0.00    +0.000 OA
BRANCH  18  22
ATOM     19  C   UNL     1       2.170   8.703  18.346  0.00  0.00    +0.000 A 
ATOM     20  C   UNL     1       1.584   8.815  19.605  0.00  0.00    +0.000 A 
ATOM     21  C   UNL     1       1.555   7.721  20.474  0.00  0.00    +0.000 A 
ATOM     22  C   UNL     1       2.076   6.488  20.079  0.00  0.00    +0.000 A 
ATOM     23  C   UNL     1       2.653   6.370  18.812  0.00  0.00    +0.000 A 
ATOM     24  C   UNL     1       2.700   7.475  17.947  0.00  0.00    +0.000 A 
BRANCH  19  26
ATOM     25  C   UNL     1       1.644  11.008  18.230  0.00  0.00    +0.000 C 
ATOM     26  O   UNL     1       2.138   9.839  17.587  0.00  0.00    +0.000 OA
ENDBRANCH  19  26
ENDBRANCH  18  22
ENDBRANCH  17  18
ENDBRANCH  15  17
ENDBRANCH   1  15
TORSDOF 8
ENDMDL
MODEL 2
REMARK VINA RESULT:      -7.1      1.217      1.812
REMARK  Name = 
REMARK  10 active torsions:
REMARK  status: ('A' for Active; 'I' for Inactive)
REMARK    1  A    between atoms: C_1  and  O_2
REMARK    2  A    between atoms: O_2  and  C_3
REMARK    3  A    between atoms: C_6  and  O_7
REMARK    4  A    between atoms: O_7  and  C_8
REMARK    5  A    between atoms: C_8  and  C_9
REMARK    6  A    between atoms: C_9  and  O_11
REMARK    7  A    between atoms: O_11  and  N_12
REMARK    8  A    between atoms: C_13  and  C_15
REMARK    9  A    between atoms: C_18  and  O_19
REMARK   10  A    between atoms: O_19  and  C_20
REMARK                            x       y       z     vdW  Elec       q    Type
REMARK                         _______ _______ _______ _____ _____    ______ ____
ROOT
ATOM      1  O   UNL     1       2.876   2.721  18.869  0.00  0.00    +0.000 OA
ENDROOT
BRANCH   1   2
ATOM      2  N   UNL     1       3.450   3.313  17.724  0.00  0.00    +0.000 NA
ATOM      3  C   UNL     1       4.683   3.669  17.928  0.00  0.00    +0.000 C 
ATOM      4  N   UNL     1       5.298   3.628  19.159  0.00  0.00    +0.000 N 
ATOM      5  H   UNL     1       4.625   3.587  19.918  0.00  0.00    +0.000 HD
ATOM      6  H   UNL     1       5.994   4.350  19.316  0.00  0.00    +0.000 HD
BRANCH   3   7
ATOM      7  C   UNL     1       5.470   4.142  16.746  0.00  0.00    +0.000 A 
ATOM      8  C   UNL     1       4.939   4.037  15.458  0.00  0.00    +0.000 A 
ATOM      9  C   UNL     1       5.703   4.423  14.354  0.00  0.00    +0.000 A 
ATOM     10  C   UNL     1       6.998   4.922  14.524  0.00  0.00    +0.000 A 
ATOM     11  C   UNL     1       7.537   5.011  15.809  0.00  0.00    +0.000 A 
ATOM     12  C   UNL     1       6.774   4.624  16.918  0.00  0.00    +0.000 A 
BRANCH  10  13
ATOM     13  O   UNL     1       7.655   5.235  13.366  0.00  0.00    +0.000 OA
ATOM     14  C   UNL     1       7.271   4.495  12.214  0.00  0.00    +0.000 C 
ENDBRANCH  10  13
ENDBRANCH   3   7
ENDBRANCH   1   2
BRANCH   1  15
ATOM     15  C   UNL     1       1.631   3.267  19.057  0.00  0.00    +0.000 C 
ATOM     16  O   UNL     1       0.643   3.063  18.359  0.00  0.00    +0.000 OA
BRANCH  15  17
ATOM     17  C   UNL     1       1.626   4.124  20.311  0.00  0.00    +0.000 C 
BRANCH  17  18
ATOM     18  O   UNL     1       2.669   5.085  20.299  0.00  0.00    +0.000 OA
BRANCH  18  22
ATOM     19  C   UNL     1       1.641   8.892  18.915  0.00  0.00    +0.000 A 
ATOM     20  C   UNL     1       1.344   8.463  20.207  0.00  0.00    +0.000 A 
ATOM     21  C   UNL     1       1.713   7.185  20.633  0.00  0.00    +0.000 A 
ATOM     22  C   UNL     1       2.350   6.303  19.760  0.00  0.00    +0.000 A 
ATOM     23  C   UNL     1       2.638   6.726  18.460  0.00  0.00    +0.000 A 
ATOM     24  C   UNL     1       2.285   8.018  18.038  0.00  0.00    +0.000 A 
BRANCH  19  26
ATOM     25  C   UNL     1      -0.058  10.532  19.092  0.00  0.00    +0.000 C 
ATOM     26  O   UNL     1       1.230  10.161  18.614  0.00  0.00    +0.000 OA
ENDBRANCH  19  26
ENDBRANCH  18  22
ENDBRANCH  17  18
ENDBRANCH  15  17
ENDBRANCH   1  15
TORSDOF 8
ENDMDL
MODEL 3
REMARK VINA RESULT:      -6.9      1.587      6.356
REMARK  Name = 
REMARK  10 active torsions:
REMARK  status: ('A' for Active; 'I' for Inactive)
REMARK    1  A    between atoms: C_1  and  O_2
REMARK    2  A    between atoms: O_2  and  C_3
REMARK    3  A    between atoms: C_6  and  O_7
REMARK    4  A    between atoms: O_7  and  C_8
REMARK    5  A    between atoms: C_8  and  C_9
REMARK    6  A    between atoms: C_9  and  O_11
REMARK    7  A    between atoms: O_11  and  N_12
REMARK    8  A    between atoms: C_13  and  C_15
REMARK    9  A    between atoms: C_18  and  O_19
REMARK   10  A    between atoms: O_19  and  C_20
REMARK                            x       y       z     vdW  Elec       q    Type
REMARK                         _______ _______ _______ _____ _____    ______ ____
ROOT
ATOM      1  O   UNL     1       2.374   3.857  19.771  0.00  0.00    +0.000 OA
ENDROOT
BRANCH   1   2
ATOM      2  N   UNL     1       1.737   5.115  19.707  0.00  0.00    +0.000 NA
ATOM      3  C   UNL     1       2.596   6.090  19.663  0.00  0.00    +0.000 C 
ATOM      4  N   UNL     1       3.952   5.926  19.828  0.00  0.00    +0.000 N 
ATOM      5  H   UNL     1       4.175   5.043  20.280  0.00  0.00    +0.000 HD
ATOM      6  H   UNL     1       4.429   6.703  20.273  0.00  0.00    +0.000 HD
BRANCH   3   7
ATOM      7  C   UNL     1       2.064   7.467  19.408  0.00  0.00    +0.000 A 
ATOM      8  C   UNL     1       2.276   8.087  18.174  0.00  0.00    +0.000 A 
ATOM      9  C   UNL     1       1.831   9.394  17.964  0.00  0.00    +0.000 A 
ATOM     10  C   UNL     1       1.167  10.091  18.978  0.00  0.00    +0.000 A 
ATOM     11  C   UNL     1       0.970   9.480  20.217  0.00  0.00    +0.000 A 
ATOM     12  C   UNL     1       1.415   8.169  20.432  0.00  0.00    +0.000 A 
BRANCH  10  13
ATOM     13  O   UNL     1       0.809  11.373  18.661  0.00  0.00    +0.000 OA
ATOM     14  C   UNL     1       0.534  12.231  19.762  0.00  0.00    +0.000 C 
ENDBRANCH  10  13
ENDBRANCH   3   7
ENDBRANCH   1   2
BRANCH   1  15
ATOM     15  C   UNL     1       2.121   3.189  18.599  0.00  0.00    +0.000 C 
ATOM     16  O   UNL     1       1.024   3.068  18.062  0.00  0.00    +0.000 OA
BRANCH  15  17
ATOM     17  C   UNL     1       3.419   2.667  18.010  0.00  0.00    +0.000 C 
BRANCH  17  18
ATOM     18  O   UNL     1       4.546   3.367  18.511  0.00  0.00    +0.000 OA
BRANCH  18  22
ATOM     19  C   UNL     1       6.891   4.976  15.449  0.00  0.00    +0.000 A 
ATOM     20  C   UNL     1       5.664   4.364  15.204  0.00  0.00    +0.000 A 
ATOM     21  C   UNL     1       4.907   3.846  16.258  0.00  0.00    +0.000 A 
ATOM     22  C   UNL     1       5.385   3.899  17.567  0.00  0.00    +0.000 A 
ATOM     23  C   UNL     1       6.621   4.502  17.814  0.00  0.00    +0.000 A 
ATOM     24  C   UNL     1       7.373   5.040  16.757  0.00  0.00    +0.000 A 
BRANCH  19  26
ATOM     25  C   UNL     1       7.312   4.726  13.132  0.00  0.00    +0.000 C 
ATOM     26  O   UNL     1       7.540   5.444  14.339  0.00  0.00    +0.000 OA
ENDBRANCH  19  26
ENDBRANCH  18  22
ENDBRANCH  17  18
ENDBRANCH  15  17
ENDBRANCH   1  15
TORSDOF 8
ENDMDL
MODEL 4
REMARK VINA RESULT:      -6.9      2.430      7.352
REMARK  Name = 
REMARK  10 active torsions:
REMARK  status: ('A' for Active; 'I' for Inactive)
REMARK    1  A    between atoms: C_1  and  O_2
REMARK    2  A    between atoms: O_2  and  C_3
REMARK    3  A    between atoms: C_6  and  O_7
REMARK    4  A    between atoms: O_7  and  C_8
REMARK    5  A    between atoms: C_8  and  C_9
REMARK    6  A    between atoms: C_9  and  O_11
REMARK    7  A    between atoms: O_11  and  N_12
REMARK    8  A    between atoms: C_13  and  C_15
REMARK    9  A    between atoms: C_18  and  O_19
REMARK   10  A    between atoms: O_19  and  C_20
REMARK                            x       y       z     vdW  Elec       q    Type
REMARK                         _______ _______ _______ _____ _____    ______ ____
ROOT
ATOM      1  O   UNL     1       5.843   4.332  17.626  0.00  0.00    +0.000 OA
ENDROOT
BRANCH   1   2
ATOM      2  N   UNL     1       5.162   5.519  17.971  0.00  0.00    +0.000 NA
ATOM      3  C   UNL     1       3.872   5.363  17.944  0.00  0.00    +0.000 C 
ATOM      4  N   UNL     1       3.247   4.230  17.474  0.00  0.00    +0.000 N 
ATOM      5  H   UNL     1       3.861   3.675  16.886  0.00  0.00    +0.000 HD
ATOM      6  H   UNL     1       2.348   4.387  17.030  0.00  0.00    +0.000 HD
BRANCH   3   7
ATOM      7  C   UNL     1       3.030   6.486  18.465  0.00  0.00    +0.000 A 
ATOM      8  C   UNL     1       2.851   7.644  17.704  0.00  0.00    +0.000 A 
ATOM      9  C   UNL     1       2.114   8.712  18.222  0.00  0.00    +0.000 A 
ATOM     10  C   UNL     1       1.546   8.633  19.497  0.00  0.00    +0.000 A 
ATOM     11  C   UNL     1       1.738   7.484  20.265  0.00  0.00    +0.000 A 
ATOM     12  C   UNL     1       2.476   6.411  19.750  0.00  0.00    +0.000 A 
BRANCH  10  13
ATOM     13  O   UNL     1       0.876   9.755  19.903  0.00  0.00    +0.000 OA
ATOM     14  C   UNL     1       0.624  10.727  18.896  0.00  0.00    +0.000 C 
ENDBRANCH  10  13
ENDBRANCH   3   7
ENDBRANCH   1   2
BRANCH   1  15
ATOM     15  C   UNL     1       7.078   4.673  17.134  0.00  0.00    +0.000 C 
ATOM     16  O   UNL     1       8.145   4.156  17.448  0.00  0.00    +0.000 OA
BRANCH  15  17
ATOM     17  C   UNL     1       6.933   5.754  16.077  0.00  0.00    +0.000 C 
BRANCH  17  18
ATOM     18  O   UNL     1       7.708   5.471  14.923  0.00  0.00    +0.000 OA
BRANCH  18  22
ATOM     19  C   UNL     1       5.537   3.320  12.073  0.00  0.00    +0.000 A 
ATOM     20  C   UNL     1       5.034   3.592  13.343  0.00  0.00    +0.000 A 
ATOM     21  C   UNL     1       5.789   4.323  14.264  0.00  0.00    +0.000 A 
ATOM     22  C   UNL     1       7.074   4.758  13.940  0.00  0.00    +0.000 A 
ATOM     23  C   UNL     1       7.586   4.476  12.671  0.00  0.00    +0.000 A 
ATOM     24  C   UNL     1       6.819   3.758  11.738  0.00  0.00    +0.000 A 
BRANCH  19  26
ATOM     25  C   UNL     1       3.541   3.271  10.799  0.00  0.00    +0.000 C 
ATOM     26  O   UNL     1       4.707   2.598  11.260  0.00  0.00    +0.000 OA
ENDBRANCH  19  26
ENDBRANCH  18  22
ENDBRANCH  17  18
ENDBRANCH  15  17
ENDBRANCH   1  15
TORSDOF 8
ENDMDL
MODEL 5
REMARK VINA RESULT:      -6.9      2.371      6.989
REMARK  Name = 
REMARK  10 active torsions:
REMARK  status: ('A' for Active; 'I' for Inactive)
REMARK    1  A    between atoms: C_1  and  O_2
REMARK    2  A    between atoms: O_2  and  C_3
REMARK    3  A    between atoms: C_6  and  O_7
REMARK    4  A    between atoms: O_7  and  C_8
REMARK    5  A    between atoms: C_8  and  C_9
REMARK    6  A    between atoms: C_9  and  O_11
REMARK    7  A    between atoms: O_11  and  N_12
REMARK    8  A    between atoms: C_13  and  C_15
REMARK    9  A    between atoms: C_18  and  O_19
REMARK   10  A    between atoms: O_19  and  C_20
REMARK                            x       y       z     vdW  Elec       q    Type
REMARK                         _______ _______ _______ _____ _____    ______ ____
ROOT
ATOM      1  O   UNL     1       4.763   6.218  17.956  0.00  0.00    +0.000 OA
ENDROOT
BRANCH   1   2
ATOM      2  N   UNL     1       3.714   7.161  17.903  0.00  0.00    +0.000 NA
ATOM      3  C   UNL     1       2.984   7.135  18.979  0.00  0.00    +0.000 C 
ATOM      4  N   UNL     1       3.116   6.190  19.971  0.00  0.00    +0.000 N 
ATOM      5  H   UNL     1       3.612   5.365  19.646  0.00  0.00    +0.000 HD
ATOM      6  H   UNL     1       2.255   5.944  20.447  0.00  0.00    +0.000 HD
BRANCH   3   7
ATOM      7  C   UNL     1       1.950   8.205  19.138  0.00  0.00    +0.000 A 
ATOM      8  C   UNL     1       1.381   8.455  20.389  0.00  0.00    +0.000 A 
ATOM      9  C   UNL     1       0.372   9.413  20.518  0.00  0.00    +0.000 A 
ATOM     10  C   UNL     1      -0.072  10.133  19.406  0.00  0.00    +0.000 A 
ATOM     11  C   UNL     1       0.483   9.874  18.152  0.00  0.00    +0.000 A 
ATOM     12  C   UNL     1       1.494   8.913  18.018  0.00  0.00    +0.000 A 
BRANCH  10  13
ATOM     13  O   UNL     1      -1.084  11.019  19.655  0.00  0.00    +0.000 OA
ATOM     14  C   UNL     1      -1.098  11.597  20.955  0.00  0.00    +0.000 C 
ENDBRANCH  10  13
ENDBRANCH   3   7
ENDBRANCH   1   2
BRANCH   1  15
ATOM     15  C   UNL     1       5.163   5.950  16.670  0.00  0.00    +0.000 C 
ATOM     16  O   UNL     1       5.332   6.779  15.782  0.00  0.00    +0.000 OA
BRANCH  15  17
ATOM     17  C   UNL     1       5.437   4.465  16.513  0.00  0.00    +0.000 C 
BRANCH  17  18
ATOM     18  O   UNL     1       4.265   3.744  16.167  0.00  0.00    +0.000 OA
BRANCH  18  22
ATOM     19  C   UNL     1       1.835   2.885  19.457  0.00  0.00    +0.000 A 
ATOM     20  C   UNL     1       3.154   2.443  19.369  0.00  0.00    +0.000 A 
ATOM     21  C   UNL     1       3.936   2.761  18.255  0.00  0.00    +0.000 A 
ATOM     22  C   UNL     1       3.396   3.491  17.196  0.00  0.00    +0.000 A 
ATOM     23  C   UNL     1       2.071   3.924  17.276  0.00  0.00    +0.000 A 
ATOM     24  C   UNL     1       1.291   3.622  18.405  0.00  0.00    +0.000 A 
BRANCH  19  26
ATOM     25  C   UNL     1       1.857   2.736  21.820  0.00  0.00    +0.000 C 
ATOM     26  O   UNL     1       1.172   2.512  20.593  0.00  0.00    +0.000 OA
ENDBRANCH  19  26
ENDBRANCH  18  22
ENDBRANCH  17  18
ENDBRANCH  15  17
ENDBRANCH   1  15
TORSDOF 8
ENDMDL
MODEL 6
REMARK VINA RESULT:      -6.8      5.532      7.278
REMARK  Name = 
REMARK  10 active torsions:
REMARK  status: ('A' for Active; 'I' for Inactive)
REMARK    1  A    between atoms: C_1  and  O_2
REMARK    2  A    between atoms: O_2  and  C_3
REMARK    3  A    between atoms: C_6  and  O_7
REMARK    4  A    between atoms: O_7  and  C_8
REMARK    5  A    between atoms: C_8  and  C_9
REMARK    6  A    between atoms: C_9  and  O_11
REMARK    7  A    between atoms: O_11  and  N_12
REMARK    8  A    between atoms: C_13  and  C_15
REMARK    9  A    between atoms: C_18  and  O_19
REMARK   10  A    between atoms: O_19  and  C_20
REMARK                            x       y       z     vdW  Elec       q    Type
REMARK                         _______ _______ _______ _____ _____    ______ ____
ROOT
ATOM      1  O   UNL     1       7.487   7.604  16.755  0.00  0.00    +0.000 OA
ENDROOT
BRANCH   1   2
ATOM      2  N   UNL     1       6.170   7.148  16.977  0.00  0.00    +0.000 NA
ATOM      3  C   UNL     1       6.049   5.878  16.729  0.00  0.00    +0.000 C 
ATOM      4  N   UNL     1       7.040   5.111  16.159  0.00  0.00    +0.000 N 
ATOM      5  H   UNL     1       7.735   5.680  15.685  0.00  0.00    +0.000 HD
ATOM      6  H   UNL     1       6.711   4.355  15.568  0.00  0.00    +0.000 HD
BRANCH   3   7
ATOM      7  C   UNL     1       4.754   5.223  17.098  0.00  0.00    +0.000 A 
ATOM      8  C   UNL     1       4.529   3.881  16.784  0.00  0.00    +0.000 A 
ATOM      9  C   UNL     1       3.295   3.293  17.075  0.00  0.00    +0.000 A 
ATOM     10  C   UNL     1       2.280   4.035  17.686  0.00  0.00    +0.000 A 
ATOM     11  C   UNL     1       2.497   5.380  17.985  0.00  0.00    +0.000 A 
ATOM     12  C   UNL     1       3.732   5.974  17.694  0.00  0.00    +0.000 A 
BRANCH  10  13
ATOM     13  O   UNL     1       1.110   3.357  17.891  0.00  0.00    +0.000 OA
ATOM     14  C   UNL     1       0.945   2.777  19.179  0.00  0.00    +0.000 C 
ENDBRANCH  10  13
ENDBRANCH   3   7
ENDBRANCH   1   2
BRANCH   1  15
ATOM     15  C   UNL     1       8.049   7.901  17.972  0.00  0.00    +0.000 C 
ATOM     16  O   UNL     1       8.350   7.090  18.842  0.00  0.00    +0.000 OA
BRANCH  15  17
ATOM     17  C   UNL     1       8.315   9.393  18.069  0.00  0.00    +0.000 C 
BRANCH  17  18
ATOM     18  O   UNL     1       9.324   9.689  19.021  0.00  0.00    +0.000 OA
BRANCH  18  22
ATOM     19  C   UNL     1       9.453  13.521  20.684  0.00  0.00    +0.000 A 
ATOM     20  C   UNL     1       9.393  12.370  21.468  0.00  0.00    +0.000 A 
ATOM     21  C   UNL     1       9.360  11.107  20.872  0.00  0.00    +0.000 A 
ATOM     22  C   UNL     1       9.348  10.979  19.483  0.00  0.00    +0.000 A 
ATOM     23  C   UNL     1       9.396  12.131  18.695  0.00  0.00    +0.000 A 
ATOM     24  C   UNL     1       9.449  13.400  19.294  0.00  0.00    +0.000 A 
BRANCH  19  26
ATOM     25  C   UNL     1       9.172  14.613  22.766  0.00  0.00    +0.000 C 
ATOM     26  O   UNL     1       9.481  14.698  21.380  0.00  0.00    +0.000 OA
ENDBRANCH  19  26
ENDBRANCH  18  22
ENDBRANCH  17  18
ENDBRANCH  15  17
ENDBRANCH   1  15
TORSDOF 8
ENDMDL
MODEL 7
REMARK VINA RESULT:      -6.8      4.852      6.918
REMARK  Name = 
REMARK  10 active torsions:
REMARK  status: ('A' for Active; 'I' for Inactive)
REMARK    1  A    between atoms: C_1  and  O_2
REMARK    2  A    between atoms: O_2  and  C_3
REMARK    3  A    between atoms: C_6  and  O_7
REMARK    4  A    between atoms: O_7  and  C_8
REMARK    5  A    between atoms: C_8  and  C_9
REMARK    6  A    between atoms: C_9  and  O_11
REMARK    7  A    between atoms: O_11  and  N_12
REMARK    8  A    between atoms: C_13  and  C_15
REMARK    9  A    between atoms: C_18  and  O_19
REMARK   10  A    between atoms: O_19  and  C_20
REMARK                            x       y       z     vdW  Elec       q    Type
REMARK                         _______ _______ _______ _____ _____    ______ ____
ROOT
ATOM      1  O   UNL     1       7.164   6.737  16.848  0.00  0.00    +0.000 OA
ENDROOT
BRANCH   1   2
ATOM      2  N   UNL     1       7.405   8.108  17.080  0.00  0.00    +0.000 NA
ATOM      3  C   UNL     1       8.147   8.299  18.129  0.00  0.00    +0.000 C 
ATOM      4  N   UNL     1       8.513   7.298  19.002  0.00  0.00    +0.000 N 
ATOM      5  H   UNL     1       7.910   6.484  18.919  0.00  0.00    +0.000 HD
ATOM      6  H   UNL     1       8.616   7.588  19.969  0.00  0.00    +0.000 HD
BRANCH   3   7
ATOM      7  C   UNL     1       8.634   9.691  18.387  0.00  0.00    +0.000 A 
ATOM      8  C   UNL     1       9.399   9.971  19.522  0.00  0.00    +0.000 A 
ATOM      9  C   UNL     1       9.797  11.284  19.789  0.00  0.00    +0.000 A 
ATOM     10  C   UNL     1       9.442  12.324  18.925  0.00  0.00    +0.000 A 
ATOM     11  C   UNL     1       8.664  12.049  17.800  0.00  0.00    +0.000 A 
ATOM     12  C   UNL     1       8.262  10.735  17.530  0.00  0.00    +0.000 A 
BRANCH  10  13
ATOM     13  O   UNL     1       9.865  13.566  19.311  0.00  0.00    +0.000 OA
ATOM     14  C   UNL     1       9.298  14.070  20.515  0.00  0.00    +0.000 C 
ENDBRANCH  10  13
ENDBRANCH   3   7
ENDBRANCH   1   2
BRANCH   1  15
ATOM     15  C   UNL     1       5.837   6.581  16.534  0.00  0.00    +0.000 C 
ATOM     16  O   UNL     1       5.380   6.401  15.410  0.00  0.00    +0.000 OA
BRANCH  15  17
ATOM     17  C   UNL     1       5.000   6.597  17.800  0.00  0.00    +0.000 C 
BRANCH  17  18
ATOM     18  O   UNL     1       3.616   6.456  17.522  0.00  0.00    +0.000 OA
BRANCH  18  22
ATOM     19  C   UNL     1       1.809   3.363  19.675  0.00  0.00    +0.000 A 
ATOM     20  C   UNL     1       2.836   4.140  20.206  0.00  0.00    +0.000 A 
ATOM     21  C   UNL     1       3.408   5.171  19.456  0.00  0.00    +0.000 A 
ATOM     22  C   UNL     1       2.986   5.414  18.149  0.00  0.00    +0.000 A 
ATOM     23  C   UNL     1       1.964   4.628  17.609  0.00  0.00    +0.000 A 
ATOM     24  C   UNL     1       1.376   3.605  18.370  0.00  0.00    +0.000 A 
BRANCH  19  26
ATOM     25  C   UNL     1       1.586   2.562  21.891  0.00  0.00    +0.000 C 
ATOM     26  O   UNL     1       1.330   2.386  20.503  0.00  0.00    +0.000 OA
ENDBRANCH  19  26
ENDBRANCH  18  22
ENDBRANCH  17  18
ENDBRANCH  15  17
ENDBRANCH   1  15
TORSDOF 8
ENDMDL
MODEL 8
REMARK VINA RESULT:      -6.8      1.296      2.025
REMARK  Name = 
REMARK  10 active torsions:
REMARK  status: ('A' for Active; 'I' for Inactive)
REMARK    1  A    between atoms: C_1  and  O_2
REMARK    2  A    between atoms: O_2  and  C_3
REMARK    3  A    between atoms: C_6  and  O_7
REMARK    4  A    between atoms: O_7  and  C_8
REMARK    5  A    between atoms: C_8  and  C_9
REMARK    6  A    between atoms: C_9  and  O_11
REMARK    7  A    between atoms: O_11  and  N_12
REMARK    8  A    between atoms: C_13  and  C_15
REMARK    9  A    between atoms: C_18  and  O_19
REMARK   10  A    between atoms: O_19  and  C_20
REMARK                            x       y       z     vdW  Elec       q    Type
REMARK                         _______ _______ _______ _____ _____    ______ ____
ROOT
ATOM      1  O   UNL     1       3.779   3.446  19.955  0.00  0.00    +0.000 OA
ENDROOT
BRANCH   1   2
ATOM      2  N   UNL     1       4.078   3.565  18.581  0.00  0.00    +0.000 NA
ATOM      3  C   UNL     1       5.049   4.402  18.368  0.00  0.00    +0.000 C 
ATOM      4  N   UNL     1       5.602   5.200  19.344  0.00  0.00    +0.000 N 
ATOM      5  H   UNL     1       4.991   5.291  20.150  0.00  0.00    +0.000 HD
ATOM      6  H   UNL     1       5.933   6.104  19.023  0.00  0.00    +0.000 HD
BRANCH   3   7
ATOM      7  C   UNL     1       5.593   4.487  16.976  0.00  0.00    +0.000 A 
ATOM      8  C   UNL     1       4.812   4.090  15.888  0.00  0.00    +0.000 A 
ATOM      9  C   UNL     1       5.348   4.114  14.598  0.00  0.00    +0.000 A 
ATOM     10  C   UNL     1       6.661   4.539  14.380  0.00  0.00    +0.000 A 
ATOM     11  C   UNL     1       7.449   4.920  15.467  0.00  0.00    +0.000 A 
ATOM     12  C   UNL     1       6.916   4.896  16.763  0.00  0.00    +0.000 A 
BRANCH  10  13
ATOM     13  O   UNL     1       7.079   4.487  13.079  0.00  0.00    +0.000 OA
ATOM     14  C   UNL     1       6.440   3.516  12.259  0.00  0.00    +0.000 C 
ENDBRANCH  10  13
ENDBRANCH   3   7
ENDBRANCH   1   2
BRANCH   1  15
ATOM     15  C   UNL     1       2.420   3.306  20.088  0.00  0.00    +0.000 C 
ATOM     16  O   UNL     1       1.796   2.252  20.020  0.00  0.00    +0.000 OA
BRANCH  15  17
ATOM     17  C   UNL     1       1.789   4.650  20.403  0.00  0.00    +0.000 C 
BRANCH  17  18
ATOM     18  O   UNL     1       2.740   5.702  20.366  0.00  0.00    +0.000 OA
BRANCH  18  22
ATOM     19  C   UNL     1       1.363   9.314  18.778  0.00  0.00    +0.000 A 
ATOM     20  C   UNL     1       2.084   8.394  18.020  0.00  0.00    +0.000 A 
ATOM     21  C   UNL     1       2.518   7.193  18.587  0.00  0.00    +0.000 A 
ATOM     22  C   UNL     1       2.271   6.914  19.932  0.00  0.00    +0.000 A 
ATOM     23  C   UNL     1       1.559   7.841  20.697  0.00  0.00    +0.000 A 
ATOM     24  C   UNL     1       1.105   9.039  20.121  0.00  0.00    +0.000 A 
BRANCH  19  26
ATOM     25  C   UNL     1       0.732  11.592  18.923  0.00  0.00    +0.000 C 
ATOM     26  O   UNL     1       0.992  10.451  18.114  0.00  0.00    +0.000 OA
ENDBRANCH  19  26
ENDBRANCH  18  22
ENDBRANCH  17  18
ENDBRANCH  15  17
ENDBRANCH   1  15
TORSDOF 8
ENDMDL
MODEL 9
REMARK VINA RESULT:      -6.8      3.297      5.465
REMARK  Name = 
REMARK  10 active torsions:
REMARK  status: ('A' for Active; 'I' for Inactive)
REMARK    1  A    between atoms: C_1  and  O_2
REMARK    2  A    between atoms: O_2  and  C_3
REMARK    3  A    between atoms: C_6  and  O_7
REMARK    4  A    between atoms: O_7  and  C_8
REMARK    5  A    between atoms: C_8  and  C_9
REMARK    6  A    between atoms: C_9  and  O_11
REMARK    7  A    between atoms: O_11  and  N_12
REMARK    8  A    between atoms: C_13  and  C_15
REMARK    9  A    between atoms: C_18  and  O_19
REMARK   10  A    between atoms: O_19  and  C_20
REMARK                            x       y       z     vdW  Elec       q    Type
REMARK                         _______ _______ _______ _____ _____    ______ ____
ROOT
ATOM      1  O   UNL     1       7.282   7.332  17.045  0.00  0.00    +0.000 OA
ENDROOT
BRANCH   1   2
ATOM      2  N   UNL     1       7.335   6.232  16.162  0.00  0.00    +0.000 NA
ATOM      3  C   UNL     1       6.203   6.045  15.553  0.00  0.00    +0.000 C 
ATOM      4  N   UNL     1       5.047   6.728  15.855  0.00  0.00    +0.000 N 
ATOM      5  H   UNL     1       5.090   7.156  16.776  0.00  0.00    +0.000 HD
ATOM      6  H   UNL     1       4.190   6.201  15.729  0.00  0.00    +0.000 HD
BRANCH   3   7
ATOM      7  C   UNL     1       6.170   5.029  14.454  0.00  0.00    +0.000 A 
ATOM      8  C   UNL     1       7.281   4.851  13.625  0.00  0.00    +0.000 A 
ATOM      9  C   UNL     1       7.222   3.945  12.563  0.00  0.00    +0.000 A 
ATOM     10  C   UNL     1       6.061   3.206  12.322  0.00  0.00    +0.000 A 
ATOM     11  C   UNL     1       4.944   3.394  13.138  0.00  0.00    +0.000 A 
ATOM     12  C   UNL     1       4.999   4.302  14.203  0.00  0.00    +0.000 A 
BRANCH  10  13
ATOM     13  O   UNL     1       6.117   2.377  11.236  0.00  0.00    +0.000 OA
ATOM     14  C   UNL     1       7.355   1.708  11.027  0.00  0.00    +0.000 C 
ENDBRANCH  10  13
ENDBRANCH   3   7
ENDBRANCH   1   2
BRANCH   1  15
ATOM     15  C   UNL     1       7.889   6.968  18.221  0.00  0.00    +0.000 C 
ATOM     16  O   UNL     1       8.632   7.674  18.895  0.00  0.00    +0.000 OA
BRANCH  15  17
ATOM     17  C   UNL     1       7.453   5.569  18.617  0.00  0.00    +0.000 C 
BRANCH  17  18
ATOM     18  O   UNL     1       6.407   5.592  19.575  0.00  0.00    +0.000 OA
BRANCH  18  22
ATOM     19  C   UNL     1       2.888   3.795  18.214  0.00  0.00    +0.000 A 
ATOM     20  C   UNL     1       4.150   3.335  17.845  0.00  0.00    +0.000 A 
ATOM     21  C   UNL     1       5.303   3.959  18.330  0.00  0.00    +0.000 A 
ATOM     22  C   UNL     1       5.208   5.077  19.160  0.00  0.00    +0.000 A 
ATOM     23  C   UNL     1       3.943   5.547  19.522  0.00  0.00    +0.000 A 
ATOM     24  C   UNL     1       2.785   4.907  19.051  0.00  0.00    +0.000 A 
BRANCH  19  26
ATOM     25  C   UNL     1       0.872   2.615  18.601  0.00  0.00    +0.000 C 
ATOM     26  O   UNL     1       1.837   3.104  17.677  0.00  0.00    +0.000 OA
ENDBRANCH  19  26
ENDBRANCH  18  22
ENDBRANCH  17  18
ENDBRANCH  15  17
ENDBRANCH   1  15
TORSDOF 8
ENDMDL
