MODEL 1
REMARK VINA RESULT:      -6.5      0.000      0.000
REMARK  Name = 
REMARK  4 active torsions:
REMARK  status: ('A' for Active; 'I' for Inactive)
REMARK    1  A    between atoms: C_2  and  C_3
REMARK    2  A    between atoms: C_3  and  N_4
REMARK    3  A    between atoms: N_7  and  C_8
REMARK    4  A    between atoms: C_11  and  C_12
REMARK                            x       y       z     vdW  Elec       q    Type
REMARK                         _______ _______ _______ _____ _____    ______ ____
ROOT
ATOM      1  C   UNL     1       2.924   6.688  18.636  0.00  0.00    +0.000 A 
ATOM      2  C   UNL     1       2.450   6.069  19.804  0.00  0.00    +0.000 A 
ATOM      3  C   UNL     1       1.612   6.729  20.711  0.00  0.00    +0.000 A 
ATOM      4  C   UNL     1       1.213   8.047  20.477  0.00  0.00    +0.000 A 
ATOM      5  C   UNL     1       1.657   8.675  19.309  0.00  0.00    +0.000 A 
ATOM      6  C   UNL     1       2.496   8.003  18.406  0.00  0.00    +0.000 A 
ENDROOT
BRANCH   1  10
ATOM      7  N   UNL     1       6.251   4.514  17.173  0.00  0.00    +0.000 NA
ATOM      8  C   UNL     1       6.239   5.990  17.337  0.00  0.00    +0.000 C 
ATOM      9  C   UNL     1       4.888   6.698  17.069  0.00  0.00    +0.000 C 
ATOM     10  N   UNL     1       3.784   6.030  17.778  0.00  0.00    +0.000 N 
ATOM     11  C   UNL     1       3.732   4.569  17.655  0.00  0.00    +0.000 C 
ATOM     12  C   UNL     1       5.123   3.956  17.962  0.00  0.00    +0.000 C 
BRANCH   7  13
ATOM     13  C   UNL     1       6.137   4.078  15.769  0.00  0.00    +0.000 C 
BRANCH  13  15
ATOM     14  N   UNL     1       7.732   5.431  13.936  0.00  0.00    +0.000 NA
ATOM     15  C   UNL     1       7.009   4.818  14.767  0.00  0.00    +0.000 C 
ENDBRANCH  13  15
ENDBRANCH   7  13
ENDBRANCH   1  10
BRANCH   4  16
ATOM     16  C   UNL     1       0.336   8.787  21.453  0.00  0.00    +0.000 C 
ATOM     17  F   UNL     1      -0.151   9.964  20.968  0.00  0.00    +0.000 F 
ATOM     18  F   UNL     1      -0.758   8.063  21.825  0.00  0.00    +0.000 F 
ATOM     19  F   UNL     1       0.983   9.102  22.610  0.00  0.00    +0.000 F 
ENDBRANCH   4  16
TORSDOF 4
ENDMDL
MODEL 2
REMARK VINA RESULT:      -6.5      0.527      1.401
REMARK  Name = 
REMARK  4 active torsions:
REMARK  status: ('A' for Active; 'I' for Inactive)
REMARK    1  A    between atoms: C_2  and  C_3
REMARK    2  A    between atoms: C_3  and  N_4
REMARK    3  A    between atoms: N_7  and  C_8
REMARK    4  A    between atoms: C_11  and  C_12
REMARK                            x       y       z     vdW  Elec       q    Type
REMARK                         _______ _______ _______ _____ _____    ______ ____
ROOT
ATOM      1  C   UNL     1       3.015   6.957  18.391  0.00  0.00    +0.000 A 
ATOM      2  C   UNL     1       2.495   8.193  17.975  0.00  0.00    +0.000 A 
ATOM      3  C   UNL     1       1.618   8.941  18.772  0.00  0.00    +0.000 A 
ATOM      4  C   UNL     1       1.228   8.472  20.028  0.00  0.00    +0.000 A 
ATOM      5  C   UNL     1       1.752   7.252  20.470  0.00  0.00    +0.000 A 
ATOM      6  C   UNL     1       2.630   6.513  19.664  0.00  0.00    +0.000 A 
ENDROOT
BRANCH   1  10
ATOM      7  N   UNL     1       6.181   4.476  17.067  0.00  0.00    +0.000 NA
ATOM      8  C   UNL     1       6.302   5.946  17.234  0.00  0.00    +0.000 C 
ATOM      9  C   UNL     1       5.037   6.779  16.911  0.00  0.00    +0.000 C 
ATOM     10  N   UNL     1       3.845   6.219  17.570  0.00  0.00    +0.000 N 
ATOM     11  C   UNL     1       3.660   4.769  17.440  0.00  0.00    +0.000 C 
ATOM     12  C   UNL     1       4.972   4.029  17.806  0.00  0.00    +0.000 C 
BRANCH   7  13
ATOM     13  C   UNL     1       6.087   4.050  15.659  0.00  0.00    +0.000 C 
BRANCH  13  15
ATOM     14  N   UNL     1       7.695   5.429  13.856  0.00  0.00    +0.000 NA
ATOM     15  C   UNL     1       6.966   4.804  14.673  0.00  0.00    +0.000 C 
ENDBRANCH  13  15
ENDBRANCH   7  13
ENDBRANCH   1  10
BRANCH   4  16
ATOM     16  C   UNL     1       0.264   9.244  20.890  0.00  0.00    +0.000 C 
ATOM     17  F   UNL     1       0.872  10.073  21.785  0.00  0.00    +0.000 F 
ATOM     18  F   UNL     1      -0.569  10.038  20.160  0.00  0.00    +0.000 F 
ATOM     19  F   UNL     1      -0.547   8.435  21.628  0.00  0.00    +0.000 F 
ENDBRANCH   4  16
TORSDOF 4
ENDMDL
MODEL 3
REMARK VINA RESULT:      -6.5      0.778      1.053
REMARK  Name = 
REMARK  4 active torsions:
REMARK  status: ('A' for Active; 'I' for Inactive)
REMARK    1  A    between atoms: C_2  and  C_3
REMARK    2  A    between atoms: C_3  and  N_4
REMARK    3  A    between atoms: N_7  and  C_8
REMARK    4  A    between atoms: C_11  and  C_12
REMARK                            x       y       z     vdW  Elec       q    Type
REMARK                         _______ _______ _______ _____ _____    ______ ____
ROOT
ATOM      1  C   UNL     1       2.846   7.179  18.368  0.00  0.00    +0.000 A 
ATOM      2  C   UNL     1       2.468   6.851  19.680  0.00  0.00    +0.000 A 
ATOM      3  C   UNL     1       1.633   7.676  20.445  0.00  0.00    +0.000 A 
ATOM      4  C   UNL     1       1.141   8.871  19.916  0.00  0.00    +0.000 A 
ATOM      5  C   UNL     1       1.489   9.206  18.603  0.00  0.00    +0.000 A 
ATOM      6  C   UNL     1       2.325   8.371  17.846  0.00  0.00    +0.000 A 
ENDROOT
BRANCH   1  10
ATOM      7  N   UNL     1       5.998   4.516  17.414  0.00  0.00    +0.000 NA
ATOM      8  C   UNL     1       6.167   5.988  17.519  0.00  0.00    +0.000 C 
ATOM      9  C   UNL     1       4.964   6.850  17.059  0.00  0.00    +0.000 C 
ATOM     10  N   UNL     1       3.704   6.370  17.650  0.00  0.00    +0.000 N 
ATOM     11  C   UNL     1       3.470   4.923  17.576  0.00  0.00    +0.000 C 
ATOM     12  C   UNL     1       4.720   4.153  18.078  0.00  0.00    +0.000 C 
BRANCH   7  13
ATOM     13  C   UNL     1       5.993   4.023  16.025  0.00  0.00    +0.000 C 
BRANCH  13  15
ATOM     14  N   UNL     1       7.678   5.349  14.253  0.00  0.00    +0.000 NA
ATOM     15  C   UNL     1       6.914   4.748  15.056  0.00  0.00    +0.000 C 
ENDBRANCH  13  15
ENDBRANCH   7  13
ENDBRANCH   1  10
BRANCH   4  16
ATOM     16  C   UNL     1       0.265   9.788  20.729  0.00  0.00    +0.000 C 
ATOM     17  F   UNL     1       0.958  10.742  21.413  0.00  0.00    +0.000 F 
ATOM     18  F   UNL     1      -0.635  10.467  19.962  0.00  0.00    +0.000 F 
ATOM     19  F   UNL     1      -0.470   9.123  21.664  0.00  0.00    +0.000 F 
ENDBRANCH   4  16
TORSDOF 4
ENDMDL
MODEL 4
REMARK VINA RESULT:      -6.5      0.792      1.377
REMARK  Name = 
REMARK  4 active torsions:
REMARK  status: ('A' for Active; 'I' for Inactive)
REMARK    1  A    between atoms: C_2  and  C_3
REMARK    2  A    between atoms: C_3  and  N_4
REMARK    3  A    between atoms: N_7  and  C_8
REMARK    4  A    between atoms: C_11  and  C_12
REMARK                            x       y       z     vdW  Elec       q    Type
REMARK                         _______ _______ _______ _____ _____    ______ ____
ROOT
ATOM      1  C   UNL     1       2.820   7.206  18.466  0.00  0.00    +0.000 A 
ATOM      2  C   UNL     1       2.283   8.388  17.931  0.00  0.00    +0.000 A 
ATOM      3  C   UNL     1       1.408   9.206  18.657  0.00  0.00    +0.000 A 
ATOM      4  C   UNL     1       1.038   8.867  19.960  0.00  0.00    +0.000 A 
ATOM      5  C   UNL     1       1.578   7.704  20.519  0.00  0.00    +0.000 A 
ATOM      6  C   UNL     1       2.455   6.892  19.782  0.00  0.00    +0.000 A 
ENDROOT
BRANCH   1  10
ATOM      7  N   UNL     1       5.871   4.469  17.401  0.00  0.00    +0.000 NA
ATOM      8  C   UNL     1       6.094   5.929  17.562  0.00  0.00    +0.000 C 
ATOM      9  C   UNL     1       4.923   6.851  17.139  0.00  0.00    +0.000 C 
ATOM     10  N   UNL     1       3.647   6.394  17.715  0.00  0.00    +0.000 N 
ATOM     11  C   UNL     1       3.361   4.960  17.587  0.00  0.00    +0.000 C 
ATOM     12  C   UNL     1       4.582   4.128  18.055  0.00  0.00    +0.000 C 
BRANCH   7  13
ATOM     13  C   UNL     1       5.846   4.030  15.995  0.00  0.00    +0.000 C 
BRANCH  13  15
ATOM     14  N   UNL     1       7.646   5.291  14.289  0.00  0.00    +0.000 NA
ATOM     15  C   UNL     1       6.830   4.720  15.062  0.00  0.00    +0.000 C 
ENDBRANCH  13  15
ENDBRANCH   7  13
ENDBRANCH   1  10
BRANCH   4  16
ATOM     16  C   UNL     1       0.076   9.716  20.750  0.00  0.00    +0.000 C 
ATOM     17  F   UNL     1      -0.922  10.257  19.997  0.00  0.00    +0.000 F 
ATOM     18  F   UNL     1      -0.548   9.015  21.739  0.00  0.00    +0.000 F 
ATOM     19  F   UNL     1       0.686  10.766  21.367  0.00  0.00    +0.000 F 
ENDBRANCH   4  16
TORSDOF 4
ENDMDL
MODEL 5
REMARK VINA RESULT:      -6.1      4.546      7.202
REMARK  Name = 
REMARK  4 active torsions:
REMARK  status: ('A' for Active; 'I' for Inactive)
REMARK    1  A    between atoms: C_2  and  C_3
REMARK    2  A    between atoms: C_3  and  N_4
REMARK    3  A    between atoms: N_7  and  C_8
REMARK    4  A    between atoms: C_11  and  C_12
REMARK                            x       y       z     vdW  Elec       q    Type
REMARK                         _______ _______ _______ _____ _____    ______ ____
ROOT
ATOM      1  C   UNL     1       2.121   6.591  19.376  0.00  0.00    +0.000 A 
ATOM      2  C   UNL     1       1.833   5.695  20.419  0.00  0.00    +0.000 A 
ATOM      3  C   UNL     1       1.990   4.311  20.279  0.00  0.00    +0.000 A 
ATOM      4  C   UNL     1       2.447   3.768  19.076  0.00  0.00    +0.000 A 
ATOM      5  C   UNL     1       2.760   4.644  18.031  0.00  0.00    +0.000 A 
ATOM      6  C   UNL     1       2.600   6.030  18.184  0.00  0.00    +0.000 A 
ENDROOT
BRANCH   1  10
ATOM      7  N   UNL     1       0.215  10.367  19.583  0.00  0.00    +0.000 NA
ATOM      8  C   UNL     1       0.685   9.750  18.317  0.00  0.00    +0.000 C 
ATOM      9  C   UNL     1       1.980   8.904  18.407  0.00  0.00    +0.000 C 
ATOM     10  N   UNL     1       1.918   7.949  19.526  0.00  0.00    +0.000 N 
ATOM     11  C   UNL     1       1.464   8.493  20.811  0.00  0.00    +0.000 C 
ATOM     12  C   UNL     1       0.155   9.302  20.617  0.00  0.00    +0.000 C 
BRANCH   7  13
ATOM     13  C   UNL     1       1.072  11.468  20.055  0.00  0.00    +0.000 C 
BRANCH  13  15
ATOM     14  N   UNL     1       0.015  13.060  22.077  0.00  0.00    +0.000 NA
ATOM     15  C   UNL     1       0.494  12.338  21.161  0.00  0.00    +0.000 C 
ENDBRANCH  13  15
ENDBRANCH   7  13
ENDBRANCH   1  10
BRANCH   4  16
ATOM     16  C   UNL     1       2.596   2.280  18.892  0.00  0.00    +0.000 C 
ATOM     17  F   UNL     1       3.756   1.778  19.403  0.00  0.00    +0.000 F 
ATOM     18  F   UNL     1       1.595   1.577  19.494  0.00  0.00    +0.000 F 
ATOM     19  F   UNL     1       2.577   1.907  17.582  0.00  0.00    +0.000 F 
ENDBRANCH   4  16
TORSDOF 4
ENDMDL
MODEL 6
REMARK VINA RESULT:      -6.1      4.571      6.800
REMARK  Name = 
REMARK  4 active torsions:
REMARK  status: ('A' for Active; 'I' for Inactive)
REMARK    1  A    between atoms: C_2  and  C_3
REMARK    2  A    between atoms: C_3  and  N_4
REMARK    3  A    between atoms: N_7  and  C_8
REMARK    4  A    between atoms: C_11  and  C_12
REMARK                            x       y       z     vdW  Elec       q    Type
REMARK                         _______ _______ _______ _____ _____    ______ ____
ROOT
ATOM      1  C   UNL     1       2.119   6.567  19.367  0.00  0.00    +0.000 A 
ATOM      2  C   UNL     1       1.897   5.665  20.420  0.00  0.00    +0.000 A 
ATOM      3  C   UNL     1       2.038   4.281  20.260  0.00  0.00    +0.000 A 
ATOM      4  C   UNL     1       2.412   3.745  19.025  0.00  0.00    +0.000 A 
ATOM      5  C   UNL     1       2.658   4.629  17.968  0.00  0.00    +0.000 A 
ATOM      6  C   UNL     1       2.515   6.014  18.142  0.00  0.00    +0.000 A 
ENDROOT
BRANCH   1  10
ATOM      7  N   UNL     1       0.264  10.367  19.608  0.00  0.00    +0.000 NA
ATOM      8  C   UNL     1       0.755   9.769  18.340  0.00  0.00    +0.000 C 
ATOM      9  C   UNL     1       2.034   8.901  18.442  0.00  0.00    +0.000 C 
ATOM     10  N   UNL     1       1.933   7.925  19.540  0.00  0.00    +0.000 N 
ATOM     11  C   UNL     1       1.457   8.450  20.825  0.00  0.00    +0.000 C 
ATOM     12  C   UNL     1       0.165   9.282  20.618  0.00  0.00    +0.000 C 
BRANCH   7  13
ATOM     13  C   UNL     1       1.127  11.446  20.122  0.00  0.00    +0.000 C 
BRANCH  13  15
ATOM     14  N   UNL     1       2.009  13.302  18.247  0.00  0.00    +0.000 NA
ATOM     15  C   UNL     1       1.609  12.460  19.097  0.00  0.00    +0.000 C 
ENDBRANCH  13  15
ENDBRANCH   7  13
ENDBRANCH   1  10
BRANCH   4  16
ATOM     16  C   UNL     1       2.542   2.259  18.821  0.00  0.00    +0.000 C 
ATOM     17  F   UNL     1       1.582   1.532  19.460  0.00  0.00    +0.000 F 
ATOM     18  F   UNL     1       2.458   1.903  17.507  0.00  0.00    +0.000 F 
ATOM     19  F   UNL     1       3.733   1.768  19.264  0.00  0.00    +0.000 F 
ENDBRANCH   4  16
TORSDOF 4
ENDMDL
MODEL 7
REMARK VINA RESULT:      -6.0      4.590      6.861
REMARK  Name = 
REMARK  4 active torsions:
REMARK  status: ('A' for Active; 'I' for Inactive)
REMARK    1  A    between atoms: C_2  and  C_3
REMARK    2  A    between atoms: C_3  and  N_4
REMARK    3  A    between atoms: N_7  and  C_8
REMARK    4  A    between atoms: C_11  and  C_12
REMARK                            x       y       z     vdW  Elec       q    Type
REMARK                         _______ _______ _______ _____ _____    ______ ____
ROOT
ATOM      1  C   UNL     1       2.059   6.558  19.390  0.00  0.00    +0.000 A 
ATOM      2  C   UNL     1       2.453   6.004  18.160  0.00  0.00    +0.000 A 
ATOM      3  C   UNL     1       2.650   4.628  17.991  0.00  0.00    +0.000 A 
ATOM      4  C   UNL     1       2.458   3.747  19.058  0.00  0.00    +0.000 A 
ATOM      5  C   UNL     1       2.047   4.277  20.286  0.00  0.00    +0.000 A 
ATOM      6  C   UNL     1       1.850   5.657  20.443  0.00  0.00    +0.000 A 
ENDROOT
BRANCH   1  10
ATOM      7  N   UNL     1       0.311  10.409  19.592  0.00  0.00    +0.000 NA
ATOM      8  C   UNL     1       0.769   9.779  18.329  0.00  0.00    +0.000 C 
ATOM      9  C   UNL     1       2.026   8.878  18.429  0.00  0.00    +0.000 C 
ATOM     10  N   UNL     1       1.912   7.923  19.543  0.00  0.00    +0.000 N 
ATOM     11  C   UNL     1       1.467   8.480  20.825  0.00  0.00    +0.000 C 
ATOM     12  C   UNL     1       0.196   9.344  20.621  0.00  0.00    +0.000 C 
BRANCH   7  13
ATOM     13  C   UNL     1       1.209  11.472  20.078  0.00  0.00    +0.000 C 
BRANCH  13  15
ATOM     14  N   UNL     1       2.074  13.306  18.174  0.00  0.00    +0.000 NA
ATOM     15  C   UNL     1       1.682  12.474  19.037  0.00  0.00    +0.000 C 
ENDBRANCH  13  15
ENDBRANCH   7  13
ENDBRANCH   1  10
BRANCH   4  16
ATOM     16  C   UNL     1       2.693   2.267  18.907  0.00  0.00    +0.000 C 
ATOM     17  F   UNL     1       2.746   1.850  17.610  0.00  0.00    +0.000 F 
ATOM     18  F   UNL     1       3.867   1.865  19.470  0.00  0.00    +0.000 F 
ATOM     19  F   UNL     1       1.721   1.517  19.497  0.00  0.00    +0.000 F 
ENDBRANCH   4  16
TORSDOF 4
ENDMDL
MODEL 8
REMARK VINA RESULT:      -6.0      3.024      3.962
REMARK  Name = 
REMARK  4 active torsions:
REMARK  status: ('A' for Active; 'I' for Inactive)
REMARK    1  A    between atoms: C_2  and  C_3
REMARK    2  A    between atoms: C_3  and  N_4
REMARK    3  A    between atoms: N_7  and  C_8
REMARK    4  A    between atoms: C_11  and  C_12
REMARK                            x       y       z     vdW  Elec       q    Type
REMARK                         _______ _______ _______ _____ _____    ______ ____
ROOT
ATOM      1  C   UNL     1       2.232   7.183  19.157  0.00  0.00    +0.000 A 
ATOM      2  C   UNL     1       2.234   8.022  18.030  0.00  0.00    +0.000 A 
ATOM      3  C   UNL     1       1.695   9.315  18.062  0.00  0.00    +0.000 A 
ATOM      4  C   UNL     1       1.131   9.819  19.236  0.00  0.00    +0.000 A 
ATOM      5  C   UNL     1       1.137   9.006  20.375  0.00  0.00    +0.000 A 
ATOM      6  C   UNL     1       1.681   7.713  20.331  0.00  0.00    +0.000 A 
ENDROOT
BRANCH   1  10
ATOM      7  N   UNL     1       2.429   2.963  18.864  0.00  0.00    +0.000 NA
ATOM      8  C   UNL     1       2.232   3.691  20.143  0.00  0.00    +0.000 C 
ATOM      9  C   UNL     1       2.958   5.054  20.274  0.00  0.00    +0.000 C 
ATOM     10  N   UNL     1       2.731   5.897  19.088  0.00  0.00    +0.000 N 
ATOM     11  C   UNL     1       2.913   5.241  17.788  0.00  0.00    +0.000 C 
ATOM     12  C   UNL     1       2.132   3.902  17.752  0.00  0.00    +0.000 C 
BRANCH   7  13
ATOM     13  C   UNL     1       3.788   2.416  18.701  0.00  0.00    +0.000 C 
BRANCH  13  15
ATOM     14  N   UNL     1       5.102   1.695  21.044  0.00  0.00    +0.000 NA
ATOM     15  C   UNL     1       4.506   2.022  19.982  0.00  0.00    +0.000 C 
ENDBRANCH  13  15
ENDBRANCH   7  13
ENDBRANCH   1  10
BRANCH   4  16
ATOM     16  C   UNL     1       0.520  11.195  19.286  0.00  0.00    +0.000 C 
ATOM     17  F   UNL     1       1.438  12.199  19.362  0.00  0.00    +0.000 F 
ATOM     18  F   UNL     1      -0.237  11.470  18.185  0.00  0.00    +0.000 F 
ATOM     19  F   UNL     1      -0.306  11.366  20.356  0.00  0.00    +0.000 F 
ENDBRANCH   4  16
TORSDOF 4
ENDMDL
MODEL 9
REMARK VINA RESULT:      -6.0      3.053      3.871
REMARK  Name = 
REMARK  4 active torsions:
REMARK  status: ('A' for Active; 'I' for Inactive)
REMARK    1  A    between atoms: C_2  and  C_3
REMARK    2  A    between atoms: C_3  and  N_4
REMARK    3  A    between atoms: N_7  and  C_8
REMARK    4  A    between atoms: C_11  and  C_12
REMARK                            x       y       z     vdW  Elec       q    Type
REMARK                         _______ _______ _______ _____ _____    ______ ____
ROOT
ATOM      1  C   UNL     1       2.212   7.273  19.053  0.00  0.00    +0.000 A 
ATOM      2  C   UNL     1       1.665   7.818  20.226  0.00  0.00    +0.000 A 
ATOM      3  C   UNL     1       1.138   9.115  20.270  0.00  0.00    +0.000 A 
ATOM      4  C   UNL     1       1.139   9.920  19.130  0.00  0.00    +0.000 A 
ATOM      5  C   UNL     1       1.662   9.388  17.946  0.00  0.00    +0.000 A 
ATOM      6  C   UNL     1       2.186   8.087  17.913  0.00  0.00    +0.000 A 
ENDROOT
BRANCH   1  10
ATOM      7  N   UNL     1       2.588   3.057  18.898  0.00  0.00    +0.000 NA
ATOM      8  C   UNL     1       2.308   3.814  20.145  0.00  0.00    +0.000 C 
ATOM      9  C   UNL     1       2.973   5.208  20.264  0.00  0.00    +0.000 C 
ATOM     10  N   UNL     1       2.764   6.006  19.045  0.00  0.00    +0.000 N 
ATOM     11  C   UNL     1       3.027   5.321  17.774  0.00  0.00    +0.000 C 
ATOM     12  C   UNL     1       2.301   3.951  17.746  0.00  0.00    +0.000 C 
BRANCH   7  13
ATOM     13  C   UNL     1       3.973   2.562  18.809  0.00  0.00    +0.000 C 
BRANCH  13  15
ATOM     14  N   UNL     1       5.087   1.618  21.177  0.00  0.00    +0.000 NA
ATOM     15  C   UNL     1       4.582   2.045  20.103  0.00  0.00    +0.000 C 
ENDBRANCH  13  15
ENDBRANCH   7  13
ENDBRANCH   1  10
BRANCH   4  16
ATOM     16  C   UNL     1       0.605  11.328  19.161  0.00  0.00    +0.000 C 
ATOM     17  F   UNL     1       1.314  12.201  18.391  0.00  0.00    +0.000 F 
ATOM     18  F   UNL     1      -0.682  11.408  18.717  0.00  0.00    +0.000 F 
ATOM     19  F   UNL     1       0.599  11.861  20.415  0.00  0.00    +0.000 F 
ENDBRANCH   4  16
TORSDOF 4
ENDMDL
