MODEL 1
REMARK VINA RESULT:      -6.8      0.000      0.000
REMARK  Name = 
REMARK  6 active torsions:
REMARK  status: ('A' for Active; 'I' for Inactive)
REMARK    1  A    between atoms: C_1  and  C_2
REMARK    2  A    between atoms: C_2  and  N_3
REMARK    3  A    between atoms: C_2  and  C_12
REMARK    4  A    between atoms: N_3  and  C_4
REMARK    5  A    between atoms: C_4  and  C_5
REMARK    6  A    between atoms: C_8  and  N_9
REMARK                            x       y       z     vdW  Elec       q    Type
REMARK                         _______ _______ _______ _____ _____    ______ ____
ROOT
ATOM      1  N   UNL     1       4.877   3.670  17.022  0.00  0.00    +0.000 NA
ATOM      2  H   UNL     1       5.189   3.693  17.992  0.00  0.00    +0.000 HD
ENDROOT
BRANCH   1   4
ATOM      3  C   UNL     1       5.603   4.869  14.947  0.00  0.00    +0.000 C 
ATOM      4  C   UNL     1       5.155   4.980  16.412  0.00  0.00    +0.000 C 
BRANCH   4   5
ATOM      5  C   UNL     1       6.224   5.700  17.223  0.00  0.00    +0.000 A 
ATOM      6  C   UNL     1       6.616   7.007  16.892  0.00  0.00    +0.000 A 
ATOM      7  C   UNL     1       7.598   7.665  17.638  0.00  0.00    +0.000 A 
ATOM      8  C   UNL     1       8.202   7.027  18.719  0.00  0.00    +0.000 A 
ATOM      9  C   UNL     1       7.825   5.730  19.060  0.00  0.00    +0.000 A 
ATOM     10  C   UNL     1       6.842   5.074  18.318  0.00  0.00    +0.000 A 
ENDBRANCH   4   5
ENDBRANCH   1   4
BRANCH   1  11
ATOM     11  C   UNL     1       3.462   3.308  16.995  0.00  0.00    +0.000 C 
BRANCH  11  12
ATOM     12  C   UNL     1       2.900   3.146  18.390  0.00  0.00    +0.000 A 
ATOM     13  C   UNL     1       1.522   3.193  18.616  0.00  0.00    +0.000 A 
ATOM     14  C   UNL     1       1.003   2.982  19.901  0.00  0.00    +0.000 A 
ATOM     15  C   UNL     1       1.850   2.683  20.969  0.00  0.00    +0.000 A 
ATOM     16  C   UNL     1       3.230   2.701  20.755  0.00  0.00    +0.000 A 
ATOM     17  C   UNL     1       3.751   2.907  19.476  0.00  0.00    +0.000 A 
BRANCH  15  18
ATOM     18  N   UNL     1       1.341   2.594  22.271  0.00  0.00    +0.000 N 
ATOM     19  H   UNL     1       1.741   3.273  22.911  0.00  0.00    +0.000 HD
ATOM     20  H   UNL     1       0.328   2.577  22.311  0.00  0.00    +0.000 HD
ENDBRANCH  15  18
ENDBRANCH  11  12
ENDBRANCH   1  11
TORSDOF 5
ENDMDL
MODEL 2
REMARK VINA RESULT:      -6.8      2.183      2.355
REMARK  Name = 
REMARK  6 active torsions:
REMARK  status: ('A' for Active; 'I' for Inactive)
REMARK    1  A    between atoms: C_1  and  C_2
REMARK    2  A    between atoms: C_2  and  N_3
REMARK    3  A    between atoms: C_2  and  C_12
REMARK    4  A    between atoms: N_3  and  C_4
REMARK    5  A    between atoms: C_4  and  C_5
REMARK    6  A    between atoms: C_8  and  N_9
REMARK                            x       y       z     vdW  Elec       q    Type
REMARK                         _______ _______ _______ _____ _____    ______ ____
ROOT
ATOM      1  N   UNL     1       4.669   3.517  17.235  0.00  0.00    +0.000 NA
ATOM      2  H   UNL     1       5.028   3.657  18.179  0.00  0.00    +0.000 HD
ENDROOT
BRANCH   1   4
ATOM      3  C   UNL     1       6.107   3.770  15.201  0.00  0.00    +0.000 C 
ATOM      4  C   UNL     1       5.341   4.467  16.335  0.00  0.00    +0.000 C 
BRANCH   4   5
ATOM      5  C   UNL     1       6.297   5.339  17.139  0.00  0.00    +0.000 A 
ATOM      6  C   UNL     1       6.592   6.648  16.727  0.00  0.00    +0.000 A 
ATOM      7  C   UNL     1       7.470   7.445  17.468  0.00  0.00    +0.000 A 
ATOM      8  C   UNL     1       8.064   6.945  18.625  0.00  0.00    +0.000 A 
ATOM      9  C   UNL     1       7.782   5.648  19.047  0.00  0.00    +0.000 A 
ATOM     10  C   UNL     1       6.903   4.853  18.310  0.00  0.00    +0.000 A 
ENDBRANCH   4   5
ENDBRANCH   1   4
BRANCH   1  11
ATOM     11  C   UNL     1       3.218   3.671  17.260  0.00  0.00    +0.000 C 
BRANCH  11  12
ATOM     12  C   UNL     1       2.782   4.713  18.266  0.00  0.00    +0.000 A 
ATOM     13  C   UNL     1       2.341   4.340  19.538  0.00  0.00    +0.000 A 
ATOM     14  C   UNL     1       1.996   5.313  20.486  0.00  0.00    +0.000 A 
ATOM     15  C   UNL     1       2.124   6.670  20.190  0.00  0.00    +0.000 A 
ATOM     16  C   UNL     1       2.503   7.042  18.898  0.00  0.00    +0.000 A 
ATOM     17  C   UNL     1       2.851   6.076  17.952  0.00  0.00    +0.000 A 
BRANCH  15  18
ATOM     18  N   UNL     1       1.665   7.637  21.094  0.00  0.00    +0.000 N 
ATOM     19  H   UNL     1       1.385   8.507  20.652  0.00  0.00    +0.000 HD
ATOM     20  H   UNL     1       0.962   7.290  21.739  0.00  0.00    +0.000 HD
ENDBRANCH  15  18
ENDBRANCH  11  12
ENDBRANCH   1  11
TORSDOF 5
ENDMDL
MODEL 3
REMARK VINA RESULT:      -6.8      2.147      2.557
REMARK  Name = 
REMARK  6 active torsions:
REMARK  status: ('A' for Active; 'I' for Inactive)
REMARK    1  A    between atoms: C_1  and  C_2
REMARK    2  A    between atoms: C_2  and  N_3
REMARK    3  A    between atoms: C_2  and  C_12
REMARK    4  A    between atoms: N_3  and  C_4
REMARK    5  A    between atoms: C_4  and  C_5
REMARK    6  A    between atoms: C_8  and  N_9
REMARK                            x       y       z     vdW  Elec       q    Type
REMARK                         _______ _______ _______ _____ _____    ______ ____
ROOT
ATOM      1  N   UNL     1       4.759   3.467  17.167  0.00  0.00    +0.000 NA
ATOM      2  H   UNL     1       5.159   3.558  18.100  0.00  0.00    +0.000 HD
ENDROOT
BRANCH   1   4
ATOM      3  C   UNL     1       6.143   3.835  15.113  0.00  0.00    +0.000 C 
ATOM      4  C   UNL     1       5.387   4.468  16.291  0.00  0.00    +0.000 C 
BRANCH   4   5
ATOM      5  C   UNL     1       6.340   5.331  17.108  0.00  0.00    +0.000 A 
ATOM      6  C   UNL     1       6.993   4.808  18.236  0.00  0.00    +0.000 A 
ATOM      7  C   UNL     1       7.866   5.603  18.983  0.00  0.00    +0.000 A 
ATOM      8  C   UNL     1       8.097   6.927  18.616  0.00  0.00    +0.000 A 
ATOM      9  C   UNL     1       7.457   7.461  17.500  0.00  0.00    +0.000 A 
ATOM     10  C   UNL     1       6.588   6.667  16.751  0.00  0.00    +0.000 A 
ENDBRANCH   4   5
ENDBRANCH   1   4
BRANCH   1  11
ATOM     11  C   UNL     1       3.309   3.613  17.265  0.00  0.00    +0.000 C 
BRANCH  11  12
ATOM     12  C   UNL     1       2.919   4.662  18.282  0.00  0.00    +0.000 A 
ATOM     13  C   UNL     1       2.904   6.017  17.943  0.00  0.00    +0.000 A 
ATOM     14  C   UNL     1       2.484   6.979  18.872  0.00  0.00    +0.000 A 
ATOM     15  C   UNL     1       2.037   6.597  20.137  0.00  0.00    +0.000 A 
ATOM     16  C   UNL     1       2.113   5.250  20.497  0.00  0.00    +0.000 A 
ATOM     17  C   UNL     1       2.527   4.288  19.574  0.00  0.00    +0.000 A 
BRANCH  15  18
ATOM     18  N   UNL     1       1.734   7.568  21.102  0.00  0.00    +0.000 N 
ATOM     19  H   UNL     1       0.882   8.084  20.905  0.00  0.00    +0.000 HD
ATOM     20  H   UNL     1       1.761   7.218  22.053  0.00  0.00    +0.000 HD
ENDBRANCH  15  18
ENDBRANCH  11  12
ENDBRANCH   1  11
TORSDOF 5
ENDMDL
MODEL 4
REMARK VINA RESULT:      -6.8      2.157      2.288
REMARK  Name = 
REMARK  6 active torsions:
REMARK  status: ('A' for Active; 'I' for Inactive)
REMARK    1  A    between atoms: C_1  and  C_2
REMARK    2  A    between atoms: C_2  and  N_3
REMARK    3  A    between atoms: C_2  and  C_12
REMARK    4  A    between atoms: N_3  and  C_4
REMARK    5  A    between atoms: C_4  and  C_5
REMARK    6  A    between atoms: C_8  and  N_9
REMARK                            x       y       z     vdW  Elec       q    Type
REMARK                         _______ _______ _______ _____ _____    ______ ____
ROOT
ATOM      1  N   UNL     1       4.760   3.492  17.189  0.00  0.00    +0.000 NA
ATOM      2  H   UNL     1       5.140   3.606  18.128  0.00  0.00    +0.000 HD
ENDROOT
BRANCH   1   4
ATOM      3  C   UNL     1       6.235   3.752  15.183  0.00  0.00    +0.000 C 
ATOM      4  C   UNL     1       5.434   4.446  16.295  0.00  0.00    +0.000 C 
BRANCH   4   5
ATOM      5  C   UNL     1       6.358   5.340  17.111  0.00  0.00    +0.000 A 
ATOM      6  C   UNL     1       6.669   6.638  16.675  0.00  0.00    +0.000 A 
ATOM      7  C   UNL     1       7.518   7.456  17.427  0.00  0.00    +0.000 A 
ATOM      8  C   UNL     1       8.067   6.989  18.619  0.00  0.00    +0.000 A 
ATOM      9  C   UNL     1       7.769   5.703  19.065  0.00  0.00    +0.000 A 
ATOM     10  C   UNL     1       6.919   4.887  18.318  0.00  0.00    +0.000 A 
ENDBRANCH   4   5
ENDBRANCH   1   4
BRANCH   1  11
ATOM     11  C   UNL     1       3.312   3.677  17.247  0.00  0.00    +0.000 C 
BRANCH  11  12
ATOM     12  C   UNL     1       2.920   4.706  18.284  0.00  0.00    +0.000 A 
ATOM     13  C   UNL     1       2.934   6.069  17.981  0.00  0.00    +0.000 A 
ATOM     14  C   UNL     1       2.512   7.013  18.927  0.00  0.00    +0.000 A 
ATOM     15  C   UNL     1       2.034   6.606  20.173  0.00  0.00    +0.000 A 
ATOM     16  C   UNL     1       2.082   5.249  20.499  0.00  0.00    +0.000 A 
ATOM     17  C   UNL     1       2.498   4.305  19.558  0.00  0.00    +0.000 A 
BRANCH  15  18
ATOM     18  N   UNL     1       1.729   7.556  21.158  0.00  0.00    +0.000 N 
ATOM     19  H   UNL     1       1.984   8.504  20.900  0.00  0.00    +0.000 HD
ATOM     20  H   UNL     1       0.777   7.493  21.502  0.00  0.00    +0.000 HD
ENDBRANCH  15  18
ENDBRANCH  11  12
ENDBRANCH   1  11
TORSDOF 5
ENDMDL
MODEL 5
REMARK VINA RESULT:      -6.8      0.904      1.816
REMARK  Name = 
REMARK  6 active torsions:
REMARK  status: ('A' for Active; 'I' for Inactive)
REMARK    1  A    between atoms: C_1  and  C_2
REMARK    2  A    between atoms: C_2  and  N_3
REMARK    3  A    between atoms: C_2  and  C_12
REMARK    4  A    between atoms: N_3  and  C_4
REMARK    5  A    between atoms: C_4  and  C_5
REMARK    6  A    between atoms: C_8  and  N_9
REMARK                            x       y       z     vdW  Elec       q    Type
REMARK                         _______ _______ _______ _____ _____    ______ ____
ROOT
ATOM      1  N   UNL     1       4.295   4.211  16.681  0.00  0.00    +0.000 NA
ATOM      2  H   UNL     1       4.697   3.455  17.235  0.00  0.00    +0.000 HD
ENDROOT
BRANCH   1   4
ATOM      3  C   UNL     1       6.150   3.894  15.029  0.00  0.00    +0.000 C 
ATOM      4  C   UNL     1       5.379   4.867  15.934  0.00  0.00    +0.000 C 
BRANCH   4   5
ATOM      5  C   UNL     1       6.342   5.529  16.913  0.00  0.00    +0.000 A 
ATOM      6  C   UNL     1       6.943   4.785  17.940  0.00  0.00    +0.000 A 
ATOM      7  C   UNL     1       7.825   5.396  18.837  0.00  0.00    +0.000 A 
ATOM      8  C   UNL     1       8.115   6.753  18.720  0.00  0.00    +0.000 A 
ATOM      9  C   UNL     1       7.526   7.505  17.705  0.00  0.00    +0.000 A 
ATOM     10  C   UNL     1       6.649   6.896  16.808  0.00  0.00    +0.000 A 
ENDBRANCH   4   5
ENDBRANCH   1   4
BRANCH   1  11
ATOM     11  C   UNL     1       3.579   5.116  17.576  0.00  0.00    +0.000 C 
BRANCH  11  12
ATOM     12  C   UNL     1       3.037   4.392  18.788  0.00  0.00    +0.000 A 
ATOM     13  C   UNL     1       3.764   3.362  19.391  0.00  0.00    +0.000 A 
ATOM     14  C   UNL     1       3.285   2.736  20.550  0.00  0.00    +0.000 A 
ATOM     15  C   UNL     1       2.094   3.155  21.143  0.00  0.00    +0.000 A 
ATOM     16  C   UNL     1       1.336   4.139  20.504  0.00  0.00    +0.000 A 
ATOM     17  C   UNL     1       1.812   4.768  19.352  0.00  0.00    +0.000 A 
BRANCH  15  18
ATOM     18  N   UNL     1       1.558   2.448  22.228  0.00  0.00    +0.000 N 
ATOM     19  H   UNL     1       2.206   1.783  22.639  0.00  0.00    +0.000 HD
ATOM     20  H   UNL     1       1.122   3.042  22.925  0.00  0.00    +0.000 HD
ENDBRANCH  15  18
ENDBRANCH  11  12
ENDBRANCH   1  11
TORSDOF 5
ENDMDL
MODEL 6
REMARK VINA RESULT:      -6.8      3.453      5.845
REMARK  Name = 
REMARK  6 active torsions:
REMARK  status: ('A' for Active; 'I' for Inactive)
REMARK    1  A    between atoms: C_1  and  C_2
REMARK    2  A    between atoms: C_2  and  N_3
REMARK    3  A    between atoms: C_2  and  C_12
REMARK    4  A    between atoms: N_3  and  C_4
REMARK    5  A    between atoms: C_4  and  C_5
REMARK    6  A    between atoms: C_8  and  N_9
REMARK                            x       y       z     vdW  Elec       q    Type
REMARK                         _______ _______ _______ _____ _____    ______ ____
ROOT
ATOM      1  N   UNL     1       4.052   5.398  19.882  0.00  0.00    +0.000 NA
ATOM      2  H   UNL     1       4.542   5.334  20.774  0.00  0.00    +0.000 HD
ENDROOT
BRANCH   1   4
ATOM      3  C   UNL     1       1.722   4.539  19.561  0.00  0.00    +0.000 C 
ATOM      4  C   UNL     1       2.625   5.633  20.151  0.00  0.00    +0.000 C 
BRANCH   4   5
ATOM      5  C   UNL     1       2.219   6.991  19.590  0.00  0.00    +0.000 A 
ATOM      6  C   UNL     1       1.561   7.932  20.397  0.00  0.00    +0.000 A 
ATOM      7  C   UNL     1       1.190   9.176  19.878  0.00  0.00    +0.000 A 
ATOM      8  C   UNL     1       1.469   9.494  18.551  0.00  0.00    +0.000 A 
ATOM      9  C   UNL     1       2.121   8.571  17.738  0.00  0.00    +0.000 A 
ATOM     10  C   UNL     1       2.495   7.330  18.255  0.00  0.00    +0.000 A 
ENDBRANCH   4   5
ENDBRANCH   1   4
BRANCH   1  11
ATOM     11  C   UNL     1       4.304   4.178  19.121  0.00  0.00    +0.000 C 
BRANCH  11  12
ATOM     12  C   UNL     1       5.172   4.441  17.911  0.00  0.00    +0.000 A 
ATOM     13  C   UNL     1       4.615   4.511  16.632  0.00  0.00    +0.000 A 
ATOM     14  C   UNL     1       5.416   4.815  15.522  0.00  0.00    +0.000 A 
ATOM     15  C   UNL     1       6.774   5.091  15.681  0.00  0.00    +0.000 A 
ATOM     16  C   UNL     1       7.342   4.957  16.949  0.00  0.00    +0.000 A 
ATOM     17  C   UNL     1       6.548   4.658  18.058  0.00  0.00    +0.000 A 
BRANCH  15  18
ATOM     18  N   UNL     1       7.593   5.274  14.558  0.00  0.00    +0.000 N 
ATOM     19  H   UNL     1       8.427   5.821  14.749  0.00  0.00    +0.000 HD
ATOM     20  H   UNL     1       7.802   4.414  14.063  0.00  0.00    +0.000 HD
ENDBRANCH  15  18
ENDBRANCH  11  12
ENDBRANCH   1  11
TORSDOF 5
ENDMDL
MODEL 7
REMARK VINA RESULT:      -6.7      1.000      1.537
REMARK  Name = 
REMARK  6 active torsions:
REMARK  status: ('A' for Active; 'I' for Inactive)
REMARK    1  A    between atoms: C_1  and  C_2
REMARK    2  A    between atoms: C_2  and  N_3
REMARK    3  A    between atoms: C_2  and  C_12
REMARK    4  A    between atoms: N_3  and  C_4
REMARK    5  A    between atoms: C_4  and  C_5
REMARK    6  A    between atoms: C_8  and  N_9
REMARK                            x       y       z     vdW  Elec       q    Type
REMARK                         _______ _______ _______ _____ _____    ______ ____
ROOT
ATOM      1  N   UNL     1       4.250   4.345  16.718  0.00  0.00    +0.000 NA
ATOM      2  H   UNL     1       4.631   3.566  17.255  0.00  0.00    +0.000 HD
ENDROOT
BRANCH   1   4
ATOM      3  C   UNL     1       6.094   3.950  15.072  0.00  0.00    +0.000 C 
ATOM      4  C   UNL     1       5.343   4.961  15.951  0.00  0.00    +0.000 C 
BRANCH   4   5
ATOM      5  C   UNL     1       6.319   5.634  16.908  0.00  0.00    +0.000 A 
ATOM      6  C   UNL     1       6.980   4.889  17.898  0.00  0.00    +0.000 A 
ATOM      7  C   UNL     1       7.875   5.510  18.775  0.00  0.00    +0.000 A 
ATOM      8  C   UNL     1       8.118   6.878  18.676  0.00  0.00    +0.000 A 
ATOM      9  C   UNL     1       7.470   7.631  17.700  0.00  0.00    +0.000 A 
ATOM     10  C   UNL     1       6.579   7.012  16.822  0.00  0.00    +0.000 A 
ENDBRANCH   4   5
ENDBRANCH   1   4
BRANCH   1  11
ATOM     11  C   UNL     1       3.597   5.271  17.640  0.00  0.00    +0.000 C 
BRANCH  11  12
ATOM     12  C   UNL     1       3.074   4.561  18.869  0.00  0.00    +0.000 A 
ATOM     13  C   UNL     1       1.964   5.052  19.561  0.00  0.00    +0.000 A 
ATOM     14  C   UNL     1       1.448   4.357  20.664  0.00  0.00    +0.000 A 
ATOM     15  C   UNL     1       2.010   3.144  21.066  0.00  0.00    +0.000 A 
ATOM     16  C   UNL     1       3.158   2.689  20.415  0.00  0.00    +0.000 A 
ATOM     17  C   UNL     1       3.673   3.375  19.313  0.00  0.00    +0.000 A 
BRANCH  15  18
ATOM     18  N   UNL     1       1.570   2.516  22.239  0.00  0.00    +0.000 N 
ATOM     19  H   UNL     1       2.121   2.754  23.058  0.00  0.00    +0.000 HD
ATOM     20  H   UNL     1       0.574   2.614  22.403  0.00  0.00    +0.000 HD
ENDBRANCH  15  18
ENDBRANCH  11  12
ENDBRANCH   1  11
TORSDOF 5
ENDMDL
MODEL 8
REMARK VINA RESULT:      -6.7      0.199      1.181
REMARK  Name = 
REMARK  6 active torsions:
REMARK  status: ('A' for Active; 'I' for Inactive)
REMARK    1  A    between atoms: C_1  and  C_2
REMARK    2  A    between atoms: C_2  and  N_3
REMARK    3  A    between atoms: C_2  and  C_12
REMARK    4  A    between atoms: N_3  and  C_4
REMARK    5  A    between atoms: C_4  and  C_5
REMARK    6  A    between atoms: C_8  and  N_9
REMARK                            x       y       z     vdW  Elec       q    Type
REMARK                         _______ _______ _______ _____ _____    ______ ____
ROOT
ATOM      1  N   UNL     1       4.982   3.491  17.087  0.00  0.00    +0.000 NA
ATOM      2  H   UNL     1       5.289   3.509  18.060  0.00  0.00    +0.000 HD
ENDROOT
BRANCH   1   4
ATOM      3  C   UNL     1       5.479   4.834  15.034  0.00  0.00    +0.000 C 
ATOM      4  C   UNL     1       5.126   4.844  16.529  0.00  0.00    +0.000 C 
BRANCH   4   5
ATOM      5  C   UNL     1       6.196   5.602  17.303  0.00  0.00    +0.000 A 
ATOM      6  C   UNL     1       6.629   6.867  16.877  0.00  0.00    +0.000 A 
ATOM      7  C   UNL     1       7.612   7.560  17.590  0.00  0.00    +0.000 A 
ATOM      8  C   UNL     1       8.174   6.998  18.734  0.00  0.00    +0.000 A 
ATOM      9  C   UNL     1       7.756   5.743  19.170  0.00  0.00    +0.000 A 
ATOM     10  C   UNL     1       6.773   5.052  18.461  0.00  0.00    +0.000 A 
ENDBRANCH   4   5
ENDBRANCH   1   4
BRANCH   1  11
ATOM     11  C   UNL     1       3.612   2.987  17.040  0.00  0.00    +0.000 C 
BRANCH  11  12
ATOM     12  C   UNL     1       3.019   2.845  18.424  0.00  0.00    +0.000 A 
ATOM     13  C   UNL     1       3.842   2.748  19.549  0.00  0.00    +0.000 A 
ATOM     14  C   UNL     1       3.286   2.678  20.834  0.00  0.00    +0.000 A 
ATOM     15  C   UNL     1       1.904   2.742  21.015  0.00  0.00    +0.000 A 
ATOM     16  C   UNL     1       1.081   2.773  19.887  0.00  0.00    +0.000 A 
ATOM     17  C   UNL     1       1.630   2.847  18.606  0.00  0.00    +0.000 A 
BRANCH  15  18
ATOM     18  N   UNL     1       1.349   2.549  22.287  0.00  0.00    +0.000 N 
ATOM     19  H   UNL     1       0.427   2.961  22.394  0.00  0.00    +0.000 HD
ATOM     20  H   UNL     1       1.378   1.585  22.601  0.00  0.00    +0.000 HD
ENDBRANCH  15  18
ENDBRANCH  11  12
ENDBRANCH   1  11
TORSDOF 5
ENDMDL
MODEL 9
REMARK VINA RESULT:      -6.7      0.757      1.593
REMARK  Name = 
REMARK  6 active torsions:
REMARK  status: ('A' for Active; 'I' for Inactive)
REMARK    1  A    between atoms: C_1  and  C_2
REMARK    2  A    between atoms: C_2  and  N_3
REMARK    3  A    between atoms: C_2  and  C_12
REMARK    4  A    between atoms: N_3  and  C_4
REMARK    5  A    between atoms: C_4  and  C_5
REMARK    6  A    between atoms: C_8  and  N_9
REMARK                            x       y       z     vdW  Elec       q    Type
REMARK                         _______ _______ _______ _____ _____    ______ ____
ROOT
ATOM      1  N   UNL     1       5.000   3.621  16.766  0.00  0.00    +0.000 NA
ATOM      2  H   UNL     1       5.376   3.600  17.714  0.00  0.00    +0.000 HD
ENDROOT
BRANCH   1   4
ATOM      3  C   UNL     1       6.517   4.186  14.856  0.00  0.00    +0.000 C 
ATOM      4  C   UNL     1       5.666   4.704  16.025  0.00  0.00    +0.000 C 
BRANCH   4   5
ATOM      5  C   UNL     1       6.539   5.509  16.979  0.00  0.00    +0.000 A 
ATOM      6  C   UNL     1       7.080   4.915  18.130  0.00  0.00    +0.000 A 
ATOM      7  C   UNL     1       7.881   5.658  19.003  0.00  0.00    +0.000 A 
ATOM      8  C   UNL     1       8.149   6.999  18.739  0.00  0.00    +0.000 A 
ATOM      9  C   UNL     1       7.619   7.603  17.601  0.00  0.00    +0.000 A 
ATOM     10  C   UNL     1       6.823   6.862  16.727  0.00  0.00    +0.000 A 
ENDBRANCH   4   5
ENDBRANCH   1   4
BRANCH   1  11
ATOM     11  C   UNL     1       3.551   3.779  16.843  0.00  0.00    +0.000 C 
BRANCH  11  12
ATOM     12  C   UNL     1       3.026   3.469  18.227  0.00  0.00    +0.000 A 
ATOM     13  C   UNL     1       3.282   4.327  19.299  0.00  0.00    +0.000 A 
ATOM     14  C   UNL     1       2.742   4.065  20.566  0.00  0.00    +0.000 A 
ATOM     15  C   UNL     1       1.909   2.964  20.770  0.00  0.00    +0.000 A 
ATOM     16  C   UNL     1       1.707   2.072  19.714  0.00  0.00    +0.000 A 
ATOM     17  C   UNL     1       2.239   2.331  18.450  0.00  0.00    +0.000 A 
BRANCH  15  18
ATOM     18  N   UNL     1       1.473   2.638  22.060  0.00  0.00    +0.000 N 
ATOM     19  H   UNL     1       2.035   3.054  22.796  0.00  0.00    +0.000 HD
ATOM     20  H   UNL     1       0.480   2.787  22.204  0.00  0.00    +0.000 HD
ENDBRANCH  15  18
ENDBRANCH  11  12
ENDBRANCH   1  11
TORSDOF 5
ENDMDL
