MODEL 1
REMARK VINA RESULT:      -7.4      0.000      0.000
REMARK  Name = 
REMARK  4 active torsions:
REMARK  status: ('A' for Active; 'I' for Inactive)
REMARK    1  A    between atoms: C_1  and  C_2
REMARK    2  A    between atoms: C_4  and  C_5
REMARK    3  A    between atoms: C_7  and  N_8
REMARK    4  A    between atoms: C_9  and  C_10
REMARK                            x       y       z     vdW  Elec       q    Type
REMARK                         _______ _______ _______ _____ _____    ______ ____
ROOT
ATOM      1  C   UNL     1       1.838   8.446  19.012  0.00  0.00    +0.000 A 
ATOM      2  C   UNL     1       1.714   9.531  18.235  0.00  0.00    +0.000 A 
ATOM      3  O   UNL     1       1.116  10.717  18.583  0.00  0.00    +0.000 OA
ATOM      4  C   UNL     1       0.578  10.810  19.840  0.00  0.00    +0.000 A 
ATOM      5  C   UNL     1      -0.030  12.019  20.179  0.00  0.00    +0.000 A 
ATOM      6  C   UNL     1      -0.597  12.181  21.443  0.00  0.00    +0.000 A 
ATOM      7  C   UNL     1      -0.559  11.134  22.367  0.00  0.00    +0.000 A 
ATOM      8  C   UNL     1       0.050   9.923  22.029  0.00  0.00    +0.000 A 
ATOM      9  C   UNL     1       0.622   9.764  20.763  0.00  0.00    +0.000 A 
ATOM     10  C   UNL     1       1.285   8.501  20.380  0.00  0.00    +0.000 A 
ATOM     11  O   UNL     1       1.370   7.556  21.153  0.00  0.00    +0.000 OA
ENDROOT
BRANCH   1  13
ATOM     12  N   UNL     1       3.587   7.299  17.767  0.00  0.00    +0.000 NA
ATOM     13  C   UNL     1       2.493   7.237  18.457  0.00  0.00    +0.000 C 
BRANCH  12  20
ATOM     14  C   UNL     1       6.670   4.986  14.599  0.00  0.00    +0.000 C 
ATOM     15  C   UNL     1       5.629   4.941  15.679  0.00  0.00    +0.000 A 
ATOM     16  C   UNL     1       5.162   3.723  16.184  0.00  0.00    +0.000 A 
ATOM     17  C   UNL     1       4.189   3.696  17.189  0.00  0.00    +0.000 A 
ATOM     18  C   UNL     1       3.680   2.398  17.742  0.00  0.00    +0.000 C 
ATOM     19  C   UNL     1       3.696   4.910  17.687  0.00  0.00    +0.000 A 
ATOM     20  C   UNL     1       4.159   6.143  17.212  0.00  0.00    +0.000 A 
ATOM     21  C   UNL     1       5.115   6.143  16.190  0.00  0.00    +0.000 A 
ENDBRANCH  12  20
ENDBRANCH   1  13
TORSDOF 2
ENDMDL
MODEL 2
REMARK VINA RESULT:      -7.4      1.124      2.166
REMARK  Name = 
REMARK  4 active torsions:
REMARK  status: ('A' for Active; 'I' for Inactive)
REMARK    1  A    between atoms: C_1  and  C_2
REMARK    2  A    between atoms: C_4  and  C_5
REMARK    3  A    between atoms: C_7  and  N_8
REMARK    4  A    between atoms: C_9  and  C_10
REMARK                            x       y       z     vdW  Elec       q    Type
REMARK                         _______ _______ _______ _____ _____    ______ ____
ROOT
ATOM      1  C   UNL     1       1.350   8.526  20.092  0.00  0.00    +0.000 A 
ATOM      2  C   UNL     1       1.286   8.226  21.396  0.00  0.00    +0.000 A 
ATOM      3  O   UNL     1       0.610   8.930  22.361  0.00  0.00    +0.000 OA
ATOM      4  C   UNL     1      -0.057  10.062  21.969  0.00  0.00    +0.000 A 
ATOM      5  C   UNL     1      -0.735  10.771  22.961  0.00  0.00    +0.000 A 
ATOM      6  C   UNL     1      -1.435  11.932  22.629  0.00  0.00    +0.000 A 
ATOM      7  C   UNL     1      -1.455  12.384  21.307  0.00  0.00    +0.000 A 
ATOM      8  C   UNL     1      -0.776  11.675  20.313  0.00  0.00    +0.000 A 
ATOM      9  C   UNL     1      -0.079  10.509  20.647  0.00  0.00    +0.000 A 
ATOM     10  C   UNL     1       0.637   9.729  19.617  0.00  0.00    +0.000 A 
ATOM     11  O   UNL     1       0.638  10.062  18.439  0.00  0.00    +0.000 OA
ENDROOT
BRANCH   1  13
ATOM     12  N   UNL     1       2.227   6.378  19.356  0.00  0.00    +0.000 NA
ATOM     13  C   UNL     1       2.153   7.661  19.195  0.00  0.00    +0.000 C 
BRANCH  12  20
ATOM     14  C   UNL     1       5.640   5.820  15.761  0.00  0.00    +0.000 C 
ATOM     15  C   UNL     1       4.685   5.236  16.759  0.00  0.00    +0.000 A 
ATOM     16  C   UNL     1       4.542   3.851  16.900  0.00  0.00    +0.000 A 
ATOM     17  C   UNL     1       3.645   3.321  17.833  0.00  0.00    +0.000 A 
ATOM     18  C   UNL     1       3.482   1.838  17.998  0.00  0.00    +0.000 C 
ATOM     19  C   UNL     1       2.898   4.199  18.631  0.00  0.00    +0.000 A 
ATOM     20  C   UNL     1       3.035   5.589  18.521  0.00  0.00    +0.000 A 
ATOM     21  C   UNL     1       3.921   6.095  17.564  0.00  0.00    +0.000 A 
ENDBRANCH  12  20
ENDBRANCH   1  13
TORSDOF 2
ENDMDL
MODEL 3
REMARK VINA RESULT:      -7.3      2.109      3.468
REMARK  Name = 
REMARK  4 active torsions:
REMARK  status: ('A' for Active; 'I' for Inactive)
REMARK    1  A    between atoms: C_1  and  C_2
REMARK    2  A    between atoms: C_4  and  C_5
REMARK    3  A    between atoms: C_7  and  N_8
REMARK    4  A    between atoms: C_9  and  C_10
REMARK                            x       y       z     vdW  Elec       q    Type
REMARK                         _______ _______ _______ _____ _____    ______ ____
ROOT
ATOM      1  C   UNL     1       0.158   9.216  21.563  0.00  0.00    +0.000 A 
ATOM      2  C   UNL     1       0.143   9.542  22.863  0.00  0.00    +0.000 A 
ATOM      3  O   UNL     1      -0.346  10.705  23.405  0.00  0.00    +0.000 OA
ATOM      4  C   UNL     1      -0.862  11.638  22.542  0.00  0.00    +0.000 A 
ATOM      5  C   UNL     1      -1.351  12.817  23.106  0.00  0.00    +0.000 A 
ATOM      6  C   UNL     1      -1.889  13.808  22.285  0.00  0.00    +0.000 A 
ATOM      7  C   UNL     1      -1.937  13.621  20.901  0.00  0.00    +0.000 A 
ATOM      8  C   UNL     1      -1.447  12.441  20.335  0.00  0.00    +0.000 A 
ATOM      9  C   UNL     1      -0.911  11.447  21.161  0.00  0.00    +0.000 A 
ATOM     10  C   UNL     1      -0.398  10.183  20.595  0.00  0.00    +0.000 A 
ATOM     11  O   UNL     1      -0.432   9.952  19.393  0.00  0.00    +0.000 OA
ENDROOT
BRANCH   1  13
ATOM     12  N   UNL     1       1.733   7.847  20.311  0.00  0.00    +0.000 NA
ATOM     13  C   UNL     1       0.753   7.922  21.155  0.00  0.00    +0.000 C 
BRANCH  12  20
ATOM     14  C   UNL     1       4.281   4.946  17.152  0.00  0.00    +0.000 C 
ATOM     15  C   UNL     1       3.461   5.120  18.396  0.00  0.00    +0.000 A 
ATOM     16  C   UNL     1       3.153   4.031  19.218  0.00  0.00    +0.000 A 
ATOM     17  C   UNL     1       2.385   4.208  20.374  0.00  0.00    +0.000 A 
ATOM     18  C   UNL     1       2.048   3.050  21.266  0.00  0.00    +0.000 C 
ATOM     19  C   UNL     1       1.937   5.496  20.700  0.00  0.00    +0.000 A 
ATOM     20  C   UNL     1       2.246   6.605  19.903  0.00  0.00    +0.000 A 
ATOM     21  C   UNL     1       2.995   6.399  18.740  0.00  0.00    +0.000 A 
ENDBRANCH  12  20
ENDBRANCH   1  13
TORSDOF 2
ENDMDL
MODEL 4
REMARK VINA RESULT:      -7.3      1.125      1.319
REMARK  Name = 
REMARK  4 active torsions:
REMARK  status: ('A' for Active; 'I' for Inactive)
REMARK    1  A    between atoms: C_1  and  C_2
REMARK    2  A    between atoms: C_4  and  C_5
REMARK    3  A    between atoms: C_7  and  N_8
REMARK    4  A    between atoms: C_9  and  C_10
REMARK                            x       y       z     vdW  Elec       q    Type
REMARK                         _______ _______ _______ _____ _____    ______ ____
ROOT
ATOM      1  C   UNL     1       1.277   9.159  19.433  0.00  0.00    +0.000 A 
ATOM      2  C   UNL     1       0.719  10.109  18.671  0.00  0.00    +0.000 A 
ATOM      3  O   UNL     1      -0.163  11.075  19.089  0.00  0.00    +0.000 OA
ATOM      4  C   UNL     1      -0.528  11.070  20.411  0.00  0.00    +0.000 A 
ATOM      5  C   UNL     1      -1.428  12.053  20.821  0.00  0.00    +0.000 A 
ATOM      6  C   UNL     1      -1.841  12.105  22.153  0.00  0.00    +0.000 A 
ATOM      7  C   UNL     1      -1.355  11.174  23.073  0.00  0.00    +0.000 A 
ATOM      8  C   UNL     1      -0.453  10.188  22.664  0.00  0.00    +0.000 A 
ATOM      9  C   UNL     1      -0.038  10.141  21.328  0.00  0.00    +0.000 A 
ATOM     10  C   UNL     1       0.925   9.120  20.867  0.00  0.00    +0.000 A 
ATOM     11  O   UNL     1       1.403   8.290  21.631  0.00  0.00    +0.000 OA
ENDROOT
BRANCH   1  13
ATOM     12  N   UNL     1       1.854   6.943  18.610  0.00  0.00    +0.000 NA
ATOM     13  C   UNL     1       2.192   8.178  18.803  0.00  0.00    +0.000 C 
BRANCH  12  20
ATOM     14  C   UNL     1       6.103   5.800  16.260  0.00  0.00    +0.000 C 
ATOM     15  C   UNL     1       4.808   5.388  16.894  0.00  0.00    +0.000 A 
ATOM     16  C   UNL     1       4.427   4.043  16.953  0.00  0.00    +0.000 A 
ATOM     17  C   UNL     1       3.215   3.673  17.546  0.00  0.00    +0.000 A 
ATOM     18  C   UNL     1       2.794   2.235  17.619  0.00  0.00    +0.000 C 
ATOM     19  C   UNL     1       2.392   4.671  18.087  0.00  0.00    +0.000 A 
ATOM     20  C   UNL     1       2.758   6.023  18.055  0.00  0.00    +0.000 A 
ATOM     21  C   UNL     1       3.964   6.369  17.436  0.00  0.00    +0.000 A 
ENDBRANCH  12  20
ENDBRANCH   1  13
TORSDOF 2
ENDMDL
MODEL 5
REMARK VINA RESULT:      -7.3      4.662      6.075
REMARK  Name = 
REMARK  4 active torsions:
REMARK  status: ('A' for Active; 'I' for Inactive)
REMARK    1  A    between atoms: C_1  and  C_2
REMARK    2  A    between atoms: C_4  and  C_5
REMARK    3  A    between atoms: C_7  and  N_8
REMARK    4  A    between atoms: C_9  and  C_10
REMARK                            x       y       z     vdW  Elec       q    Type
REMARK                         _______ _______ _______ _____ _____    ______ ____
ROOT
ATOM      1  C   UNL     1       4.003   4.138  17.418  0.00  0.00    +0.000 A 
ATOM      2  C   UNL     1       4.307   5.133  18.262  0.00  0.00    +0.000 A 
ATOM      3  O   UNL     1       3.857   5.274  19.551  0.00  0.00    +0.000 OA
ATOM      4  C   UNL     1       3.000   4.316  20.031  0.00  0.00    +0.000 A 
ATOM      5  C   UNL     1       2.546   4.474  21.341  0.00  0.00    +0.000 A 
ATOM      6  C   UNL     1       1.673   3.534  21.891  0.00  0.00    +0.000 A 
ATOM      7  C   UNL     1       1.253   2.440  21.132  0.00  0.00    +0.000 A 
ATOM      8  C   UNL     1       1.707   2.281  19.820  0.00  0.00    +0.000 A 
ATOM      9  C   UNL     1       2.586   3.222  19.272  0.00  0.00    +0.000 A 
ATOM     10  C   UNL     1       3.094   3.074  17.892  0.00  0.00    +0.000 A 
ATOM     11  O   UNL     1       2.779   2.126  17.185  0.00  0.00    +0.000 OA
ENDROOT
BRANCH   1  13
ATOM     12  N   UNL     1       5.839   4.130  15.820  0.00  0.00    +0.000 NA
ATOM     13  C   UNL     1       4.564   4.163  16.047  0.00  0.00    +0.000 C 
BRANCH  12  20
ATOM     14  C   UNL     1       8.764   6.167  12.331  0.00  0.00    +0.000 C 
ATOM     15  C   UNL     1       7.734   5.160  12.748  0.00  0.00    +0.000 A 
ATOM     16  C   UNL     1       7.210   4.239  11.835  0.00  0.00    +0.000 A 
ATOM     17  C   UNL     1       6.248   3.307  12.238  0.00  0.00    +0.000 A 
ATOM     18  C   UNL     1       5.678   2.312  11.271  0.00  0.00    +0.000 C 
ATOM     19  C   UNL     1       5.823   3.306  13.574  0.00  0.00    +0.000 A 
ATOM     20  C   UNL     1       6.344   4.205  14.512  0.00  0.00    +0.000 A 
ATOM     21  C   UNL     1       7.288   5.143  14.079  0.00  0.00    +0.000 A 
ENDBRANCH  12  20
ENDBRANCH   1  13
TORSDOF 2
ENDMDL
MODEL 6
REMARK VINA RESULT:      -7.2      0.917      2.117
REMARK  Name = 
REMARK  4 active torsions:
REMARK  status: ('A' for Active; 'I' for Inactive)
REMARK    1  A    between atoms: C_1  and  C_2
REMARK    2  A    between atoms: C_4  and  C_5
REMARK    3  A    between atoms: C_7  and  N_8
REMARK    4  A    between atoms: C_9  and  C_10
REMARK                            x       y       z     vdW  Elec       q    Type
REMARK                         _______ _______ _______ _____ _____    ______ ____
ROOT
ATOM      1  C   UNL     1       1.481   8.929  19.273  0.00  0.00    +0.000 A 
ATOM      2  C   UNL     1       1.099  10.016  18.588  0.00  0.00    +0.000 A 
ATOM      3  O   UNL     1       0.341  11.056  19.067  0.00  0.00    +0.000 OA
ATOM      4  C   UNL     1      -0.086  10.981  20.368  0.00  0.00    +0.000 A 
ATOM      5  C   UNL     1      -0.860  12.041  20.840  0.00  0.00    +0.000 A 
ATOM      6  C   UNL     1      -1.327  12.028  22.155  0.00  0.00    +0.000 A 
ATOM      7  C   UNL     1      -1.023  10.955  22.996  0.00  0.00    +0.000 A 
ATOM      8  C   UNL     1      -0.248   9.892  22.524  0.00  0.00    +0.000 A 
ATOM      9  C   UNL     1       0.223   9.910  21.207  0.00  0.00    +0.000 A 
ATOM     10  C   UNL     1       1.056   8.808  20.682  0.00  0.00    +0.000 A 
ATOM     11  O   UNL     1       1.374   7.851  21.377  0.00  0.00    +0.000 OA
ENDROOT
BRANCH   1  13
ATOM     12  N   UNL     1       2.115   6.625  18.810  0.00  0.00    +0.000 NA
ATOM     13  C   UNL     1       2.280   7.890  18.582  0.00  0.00    +0.000 C 
BRANCH  12  20
ATOM     14  C   UNL     1       3.468   1.911  17.901  0.00  0.00    +0.000 C 
ATOM     15  C   UNL     1       3.650   3.386  17.698  0.00  0.00    +0.000 A 
ATOM     16  C   UNL     1       4.657   3.883  16.864  0.00  0.00    +0.000 A 
ATOM     17  C   UNL     1       4.817   5.261  16.687  0.00  0.00    +0.000 A 
ATOM     18  C   UNL     1       5.892   5.809  15.793  0.00  0.00    +0.000 C 
ATOM     19  C   UNL     1       3.946   6.136  17.351  0.00  0.00    +0.000 A 
ATOM     20  C   UNL     1       2.920   5.664  18.178  0.00  0.00    +0.000 A 
ATOM     21  C   UNL     1       2.795   4.282  18.358  0.00  0.00    +0.000 A 
ENDBRANCH  12  20
ENDBRANCH   1  13
TORSDOF 2
ENDMDL
MODEL 7
REMARK VINA RESULT:      -7.2      1.314      2.915
REMARK  Name = 
REMARK  4 active torsions:
REMARK  status: ('A' for Active; 'I' for Inactive)
REMARK    1  A    between atoms: C_1  and  C_2
REMARK    2  A    between atoms: C_4  and  C_5
REMARK    3  A    between atoms: C_7  and  N_8
REMARK    4  A    between atoms: C_9  and  C_10
REMARK                            x       y       z     vdW  Elec       q    Type
REMARK                         _______ _______ _______ _____ _____    ______ ____
ROOT
ATOM      1  C   UNL     1       1.190   8.666  20.274  0.00  0.00    +0.000 A 
ATOM      2  C   UNL     1       1.201   8.455  21.598  0.00  0.00    +0.000 A 
ATOM      3  O   UNL     1       0.534   9.192  22.545  0.00  0.00    +0.000 OA
ATOM      4  C   UNL     1      -0.210  10.258  22.110  0.00  0.00    +0.000 A 
ATOM      5  C   UNL     1      -0.878  11.001  23.083  0.00  0.00    +0.000 A 
ATOM      6  C   UNL     1      -1.653  12.099  22.708  0.00  0.00    +0.000 A 
ATOM      7  C   UNL     1      -1.757  12.456  21.362  0.00  0.00    +0.000 A 
ATOM      8  C   UNL     1      -1.087  11.713  20.386  0.00  0.00    +0.000 A 
ATOM      9  C   UNL     1      -0.315  10.610  20.764  0.00  0.00    +0.000 A 
ATOM     10  C   UNL     1       0.394   9.796  19.754  0.00  0.00    +0.000 A 
ATOM     11  O   UNL     1       0.323  10.045  18.558  0.00  0.00    +0.000 OA
ENDROOT
BRANCH   1  13
ATOM     12  N   UNL     1       1.949   6.490  19.491  0.00  0.00    +0.000 NA
ATOM     13  C   UNL     1       1.996   7.781  19.400  0.00  0.00    +0.000 C 
BRANCH  12  20
ATOM     14  C   UNL     1       3.595   2.039  17.955  0.00  0.00    +0.000 C 
ATOM     15  C   UNL     1       3.627   3.537  17.893  0.00  0.00    +0.000 A 
ATOM     16  C   UNL     1       4.492   4.207  17.021  0.00  0.00    +0.000 A 
ATOM     17  C   UNL     1       4.513   5.605  16.977  0.00  0.00    +0.000 A 
ATOM     18  C   UNL     1       5.433   6.339  16.046  0.00  0.00    +0.000 C 
ATOM     19  C   UNL     1       3.647   6.324  17.814  0.00  0.00    +0.000 A 
ATOM     20  C   UNL     1       2.760   5.677  18.683  0.00  0.00    +0.000 A 
ATOM     21  C   UNL     1       2.775   4.279  18.727  0.00  0.00    +0.000 A 
ENDBRANCH  12  20
ENDBRANCH   1  13
TORSDOF 2
ENDMDL
MODEL 8
REMARK VINA RESULT:      -7.1      2.123      3.570
REMARK  Name = 
REMARK  4 active torsions:
REMARK  status: ('A' for Active; 'I' for Inactive)
REMARK    1  A    between atoms: C_1  and  C_2
REMARK    2  A    between atoms: C_4  and  C_5
REMARK    3  A    between atoms: C_7  and  N_8
REMARK    4  A    between atoms: C_9  and  C_10
REMARK                            x       y       z     vdW  Elec       q    Type
REMARK                         _______ _______ _______ _____ _____    ______ ____
ROOT
ATOM      1  C   UNL     1       0.708   9.371  21.024  0.00  0.00    +0.000 A 
ATOM      2  C   UNL     1       0.924  10.144  19.950  0.00  0.00    +0.000 A 
ATOM      3  O   UNL     1       0.517  11.445  19.789  0.00  0.00    +0.000 OA
ATOM      4  C   UNL     1      -0.192  12.019  20.813  0.00  0.00    +0.000 A 
ATOM      5  C   UNL     1      -0.603  13.339  20.633  0.00  0.00    +0.000 A 
ATOM      6  C   UNL     1      -1.329  13.983  21.637  0.00  0.00    +0.000 A 
ATOM      7  C   UNL     1      -1.644  13.306  22.817  0.00  0.00    +0.000 A 
ATOM      8  C   UNL     1      -1.232  11.983  22.998  0.00  0.00    +0.000 A 
ATOM      9  C   UNL     1      -0.501  11.341  21.992  0.00  0.00    +0.000 A 
ATOM     10  C   UNL     1      -0.040   9.947  22.159  0.00  0.00    +0.000 A 
ATOM     11  O   UNL     1      -0.266   9.309  23.179  0.00  0.00    +0.000 OA
ENDROOT
BRANCH   1  13
ATOM     12  N   UNL     1       1.929   7.504  20.050  0.00  0.00    +0.000 NA
ATOM     13  C   UNL     1       1.200   7.973  21.012  0.00  0.00    +0.000 C 
BRANCH  12  20
ATOM     14  C   UNL     1       1.434   2.727  21.396  0.00  0.00    +0.000 C 
ATOM     15  C   UNL     1       2.174   3.811  20.670  0.00  0.00    +0.000 A 
ATOM     16  C   UNL     1       3.338   3.532  19.946  0.00  0.00    +0.000 A 
ATOM     17  C   UNL     1       4.020   4.554  19.276  0.00  0.00    +0.000 A 
ATOM     18  C   UNL     1       5.268   4.270  18.493  0.00  0.00    +0.000 C 
ATOM     19  C   UNL     1       3.513   5.860  19.336  0.00  0.00    +0.000 A 
ATOM     20  C   UNL     1       2.341   6.162  20.040  0.00  0.00    +0.000 A 
ATOM     21  C   UNL     1       1.690   5.128  20.721  0.00  0.00    +0.000 A 
ENDBRANCH  12  20
ENDBRANCH   1  13
TORSDOF 2
ENDMDL
MODEL 9
REMARK VINA RESULT:      -7.1      1.963      2.913
REMARK  Name = 
REMARK  4 active torsions:
REMARK  status: ('A' for Active; 'I' for Inactive)
REMARK    1  A    between atoms: C_1  and  C_2
REMARK    2  A    between atoms: C_4  and  C_5
REMARK    3  A    between atoms: C_7  and  N_8
REMARK    4  A    between atoms: C_9  and  C_10
REMARK                            x       y       z     vdW  Elec       q    Type
REMARK                         _______ _______ _______ _____ _____    ______ ____
ROOT
ATOM      1  C   UNL     1       0.668   9.363  20.893  0.00  0.00    +0.000 A 
ATOM      2  C   UNL     1       1.109  10.301  20.044  0.00  0.00    +0.000 A 
ATOM      3  O   UNL     1       0.835  11.645  20.101  0.00  0.00    +0.000 OA
ATOM      4  C   UNL     1       0.021  12.083  21.114  0.00  0.00    +0.000 A 
ATOM      5  C   UNL     1      -0.253  13.450  21.157  0.00  0.00    +0.000 A 
ATOM      6  C   UNL     1      -1.074  13.962  22.163  0.00  0.00    +0.000 A 
ATOM      7  C   UNL     1      -1.622  13.107  23.122  0.00  0.00    +0.000 A 
ATOM      8  C   UNL     1      -1.349  11.738  23.079  0.00  0.00    +0.000 A 
ATOM      9  C   UNL     1      -0.522  11.228  22.073  0.00  0.00    +0.000 A 
ATOM     10  C   UNL     1      -0.202   9.786  22.009  0.00  0.00    +0.000 A 
ATOM     11  O   UNL     1      -0.635   8.991  22.833  0.00  0.00    +0.000 OA
ENDROOT
BRANCH   1  13
ATOM     12  N   UNL     1       2.043   7.615  19.905  0.00  0.00    +0.000 NA
ATOM     13  C   UNL     1       1.045   7.949  20.660  0.00  0.00    +0.000 C 
BRANCH  12  20
ATOM     14  C   UNL     1       3.991   3.965  17.118  0.00  0.00    +0.000 C 
ATOM     15  C   UNL     1       3.262   4.426  18.345  0.00  0.00    +0.000 A 
ATOM     16  C   UNL     1       2.833   3.516  19.317  0.00  0.00    +0.000 A 
ATOM     17  C   UNL     1       2.152   3.960  20.456  0.00  0.00    +0.000 A 
ATOM     18  C   UNL     1       1.687   2.996  21.508  0.00  0.00    +0.000 C 
ATOM     19  C   UNL     1       1.914   5.333  20.610  0.00  0.00    +0.000 A 
ATOM     20  C   UNL     1       2.348   6.266  19.661  0.00  0.00    +0.000 A 
ATOM     21  C   UNL     1       3.006   5.795  18.520  0.00  0.00    +0.000 A 
ENDBRANCH  12  20
ENDBRANCH   1  13
TORSDOF 2
ENDMDL
