MODEL 1
REMARK VINA RESULT:      -8.1      0.000      0.000
REMARK  Name = 
REMARK  7 active torsions:
REMARK  status: ('A' for Active; 'I' for Inactive)
REMARK    1  A    between atoms: C_1  and  O_2
REMARK    2  A    between atoms: O_2  and  C_3
REMARK    3  A    between atoms: C_6  and  O_7
REMARK    4  A    between atoms: O_7  and  C_8
REMARK    5  A    between atoms: C_8  and  C_9
REMARK    6  A    between atoms: C_9  and  N_10
REMARK    7  A    between atoms: C_13  and  C_15
REMARK                            x       y       z     vdW  Elec       q    Type
REMARK                         _______ _______ _______ _____ _____    ______ ____
ROOT
ATOM      1  N   UNL     1       2.054   6.304  19.753  0.00  0.00    +0.000 N 
ATOM      2  C   UNL     1       2.625   6.102  18.528  0.00  0.00    +0.000 A 
ATOM      3  N   UNL     1       3.936   6.482  18.416  0.00  0.00    +0.000 N 
ATOM      4  C   UNL     1       4.836   5.914  17.569  0.00  0.00    +0.000 C 
ATOM      5  O   UNL     1       4.587   5.381  16.495  0.00  0.00    +0.000 OA
ATOM      6  N   UNL     1       1.994   5.116  17.931  0.00  0.00    +0.000 NA
ATOM      7  C   UNL     1       1.671   4.318  19.003  0.00  0.00    +0.000 A 
ATOM      8  C   UNL     1       1.381   2.943  19.008  0.00  0.00    +0.000 A 
ATOM      9  C   UNL     1       1.648   2.252  20.193  0.00  0.00    +0.000 A 
ATOM     10  C   UNL     1       2.058   2.935  21.345  0.00  0.00    +0.000 A 
ATOM     11  C   UNL     1       2.092   4.341  21.407  0.00  0.00    +0.000 A 
ATOM     12  C   UNL     1       1.878   5.009  20.201  0.00  0.00    +0.000 A 
ATOM     13  H   UNL     1       4.331   6.902  19.255  0.00  0.00    +0.000 HD
ENDROOT
BRANCH   4  14
ATOM     14  C   UNL     1       6.189   6.057  18.079  0.00  0.00    +0.000 A 
ATOM     15  C   UNL     1       7.196   6.944  17.750  0.00  0.00    +0.000 A 
ATOM     16  C   UNL     1       8.284   6.667  18.608  0.00  0.00    +0.000 A 
ATOM     17  C   UNL     1       7.904   5.604  19.395  0.00  0.00    +0.000 A 
ATOM     18  O   UNL     1       6.628   5.231  19.094  0.00  0.00    +0.000 OA
ENDBRANCH   4  14
BRANCH   1  19
ATOM     19  C   UNL     1       1.573   7.589  20.224  0.00  0.00    +0.000 C 
BRANCH  19  20
ATOM     20  C   UNL     1       1.502   8.802  19.245  0.00  0.00    +0.000 C 
BRANCH  20  21
ATOM     21  O   UNL     1       1.000  10.016  19.826  0.00  0.00    +0.000 OA
BRANCH  21  25
ATOM     22  C   UNL     1      -2.603  11.369  18.099  0.00  0.00    +0.000 A 
ATOM     23  C   UNL     1      -1.812  10.388  17.509  0.00  0.00    +0.000 A 
ATOM     24  C   UNL     1      -0.632   9.946  18.125  0.00  0.00    +0.000 A 
ATOM     25  C   UNL     1      -0.179  10.518  19.316  0.00  0.00    +0.000 A 
ATOM     26  C   UNL     1      -0.980  11.488  19.921  0.00  0.00    +0.000 A 
ATOM     27  C   UNL     1      -2.190  11.917  19.321  0.00  0.00    +0.000 A 
BRANCH  22  29
ATOM     28  C   UNL     1      -4.925  11.026  17.665  0.00  0.00    +0.000 C 
ATOM     29  O   UNL     1      -3.715  11.714  17.382  0.00  0.00    +0.000 OA
ENDBRANCH  22  29
ENDBRANCH  21  25
ENDBRANCH  20  21
ENDBRANCH  19  20
ENDBRANCH   1  19
TORSDOF 6
ENDMDL
MODEL 2
REMARK VINA RESULT:      -8.0      2.191      2.678
REMARK  Name = 
REMARK  7 active torsions:
REMARK  status: ('A' for Active; 'I' for Inactive)
REMARK    1  A    between atoms: C_1  and  O_2
REMARK    2  A    between atoms: O_2  and  C_3
REMARK    3  A    between atoms: C_6  and  O_7
REMARK    4  A    between atoms: O_7  and  C_8
REMARK    5  A    between atoms: C_8  and  C_9
REMARK    6  A    between atoms: C_9  and  N_10
REMARK    7  A    between atoms: C_13  and  C_15
REMARK                            x       y       z     vdW  Elec       q    Type
REMARK                         _______ _______ _______ _____ _____    ______ ____
ROOT
ATOM      1  N   UNL     1       2.130   5.798  18.302  0.00  0.00    +0.000 N 
ATOM      2  C   UNL     1       3.042   5.149  17.518  0.00  0.00    +0.000 A 
ATOM      3  N   UNL     1       4.318   5.647  17.558  0.00  0.00    +0.000 N 
ATOM      4  C   UNL     1       5.442   4.910  17.349  0.00  0.00    +0.000 C 
ATOM      5  O   UNL     1       5.535   3.906  16.654  0.00  0.00    +0.000 OA
ATOM      6  N   UNL     1       2.642   3.909  17.350  0.00  0.00    +0.000 NA
ATOM      7  C   UNL     1       2.038   3.658  18.560  0.00  0.00    +0.000 A 
ATOM      8  C   UNL     1       1.795   2.415  19.171  0.00  0.00    +0.000 A 
ATOM      9  C   UNL     1       1.720   2.409  20.566  0.00  0.00    +0.000 A 
ATOM     10  C   UNL     1       1.753   3.607  21.292  0.00  0.00    +0.000 A 
ATOM     11  C   UNL     1       1.730   4.864  20.660  0.00  0.00    +0.000 A 
ATOM     12  C   UNL     1       1.864   4.850  19.272  0.00  0.00    +0.000 A 
ATOM     13  H   UNL     1       4.436   6.467  18.148  0.00  0.00    +0.000 HD
ENDROOT
BRANCH   4  14
ATOM     14  C   UNL     1       6.580   5.497  18.036  0.00  0.00    +0.000 A 
ATOM     15  C   UNL     1       7.334   6.619  17.751  0.00  0.00    +0.000 A 
ATOM     16  C   UNL     1       8.280   6.755  18.792  0.00  0.00    +0.000 A 
ATOM     17  C   UNL     1       8.081   5.693  19.644  0.00  0.00    +0.000 A 
ATOM     18  O   UNL     1       7.043   4.927  19.205  0.00  0.00    +0.000 OA
ENDBRANCH   4  14
BRANCH   1  19
ATOM     19  C   UNL     1       1.498   7.054  17.945  0.00  0.00    +0.000 C 
BRANCH  19  20
ATOM     20  C   UNL     1       1.916   8.371  18.670  0.00  0.00    +0.000 C 
BRANCH  20  21
ATOM     21  O   UNL     1       1.930   8.291  20.104  0.00  0.00    +0.000 OA
BRANCH  21  25
ATOM     22  C   UNL     1      -0.711  10.633  22.412  0.00  0.00    +0.000 A 
ATOM     23  C   UNL     1      -0.022   9.545  22.937  0.00  0.00    +0.000 A 
ATOM     24  C   UNL     1       0.866   8.803  22.146  0.00  0.00    +0.000 A 
ATOM     25  C   UNL     1       1.043   9.093  20.790  0.00  0.00    +0.000 A 
ATOM     26  C   UNL     1       0.370  10.197  20.265  0.00  0.00    +0.000 A 
ATOM     27  C   UNL     1      -0.506  10.970  21.068  0.00  0.00    +0.000 A 
BRANCH  22  29
ATOM     28  C   UNL     1      -1.835  12.631  23.079  0.00  0.00    +0.000 C 
ATOM     29  O   UNL     1      -1.555  11.255  23.291  0.00  0.00    +0.000 OA
ENDBRANCH  22  29
ENDBRANCH  21  25
ENDBRANCH  20  21
ENDBRANCH  19  20
ENDBRANCH   1  19
TORSDOF 6
ENDMDL
MODEL 3
REMARK VINA RESULT:      -7.8      0.595      1.174
REMARK  Name = 
REMARK  7 active torsions:
REMARK  status: ('A' for Active; 'I' for Inactive)
REMARK    1  A    between atoms: C_1  and  O_2
REMARK    2  A    between atoms: O_2  and  C_3
REMARK    3  A    between atoms: C_6  and  O_7
REMARK    4  A    between atoms: O_7  and  C_8
REMARK    5  A    between atoms: C_8  and  C_9
REMARK    6  A    between atoms: C_9  and  N_10
REMARK    7  A    between atoms: C_13  and  C_15
REMARK                            x       y       z     vdW  Elec       q    Type
REMARK                         _______ _______ _______ _____ _____    ______ ____
ROOT
ATOM      1  N   UNL     1       2.022   6.404  19.723  0.00  0.00    +0.000 N 
ATOM      2  C   UNL     1       2.581   6.178  18.497  0.00  0.00    +0.000 A 
ATOM      3  N   UNL     1       3.883   6.583  18.357  0.00  0.00    +0.000 N 
ATOM      4  C   UNL     1       4.784   6.009  17.514  0.00  0.00    +0.000 C 
ATOM      5  O   UNL     1       4.534   5.440  16.460  0.00  0.00    +0.000 OA
ATOM      6  N   UNL     1       1.965   5.162  17.937  0.00  0.00    +0.000 NA
ATOM      7  C   UNL     1       1.673   4.388  19.036  0.00  0.00    +0.000 A 
ATOM      8  C   UNL     1       1.414   3.008  19.085  0.00  0.00    +0.000 A 
ATOM      9  C   UNL     1       1.712   2.358  20.286  0.00  0.00    +0.000 A 
ATOM     10  C   UNL     1       2.120   3.085  21.412  0.00  0.00    +0.000 A 
ATOM     11  C   UNL     1       2.124   4.492  21.433  0.00  0.00    +0.000 A 
ATOM     12  C   UNL     1       1.880   5.119  20.211  0.00  0.00    +0.000 A 
ATOM     13  H   UNL     1       4.279   7.036  19.177  0.00  0.00    +0.000 HD
ENDROOT
BRANCH   4  14
ATOM     14  C   UNL     1       6.140   6.196  18.002  0.00  0.00    +0.000 A 
ATOM     15  C   UNL     1       6.928   5.412  18.822  0.00  0.00    +0.000 A 
ATOM     16  C   UNL     1       8.186   6.049  18.916  0.00  0.00    +0.000 A 
ATOM     17  C   UNL     1       8.096   7.207  18.178  0.00  0.00    +0.000 A 
ATOM     18  O   UNL     1       6.863   7.303  17.605  0.00  0.00    +0.000 OA
ENDBRANCH   4  14
BRANCH   1  19
ATOM     19  C   UNL     1       1.519   7.692  20.162  0.00  0.00    +0.000 C 
BRANCH  19  20
ATOM     20  C   UNL     1       1.532   8.909  19.186  0.00  0.00    +0.000 C 
BRANCH  20  21
ATOM     21  O   UNL     1       0.907  10.097  19.696  0.00  0.00    +0.000 OA
BRANCH  21  25
ATOM     22  C   UNL     1      -2.822  11.374  18.194  0.00  0.00    +0.000 A 
ATOM     23  C   UNL     1      -2.267  11.893  19.360  0.00  0.00    +0.000 A 
ATOM     24  C   UNL     1      -1.014  11.461  19.816  0.00  0.00    +0.000 A 
ATOM     25  C   UNL     1      -0.309  10.453  19.152  0.00  0.00    +0.000 A 
ATOM     26  C   UNL     1      -0.853   9.946  17.971  0.00  0.00    +0.000 A 
ATOM     27  C   UNL     1      -2.105  10.401  17.487  0.00  0.00    +0.000 A 
BRANCH  22  29
ATOM     28  C   UNL     1      -5.151  10.970  17.855  0.00  0.00    +0.000 C 
ATOM     29  O   UNL     1      -4.055  11.874  17.876  0.00  0.00    +0.000 OA
ENDBRANCH  22  29
ENDBRANCH  21  25
ENDBRANCH  20  21
ENDBRANCH  19  20
ENDBRANCH   1  19
TORSDOF 6
ENDMDL
MODEL 4
REMARK VINA RESULT:      -7.7      2.864      8.739
REMARK  Name = 
REMARK  7 active torsions:
REMARK  status: ('A' for Active; 'I' for Inactive)
REMARK    1  A    between atoms: C_1  and  O_2
REMARK    2  A    between atoms: O_2  and  C_3
REMARK    3  A    between atoms: C_6  and  O_7
REMARK    4  A    between atoms: O_7  and  C_8
REMARK    5  A    between atoms: C_8  and  C_9
REMARK    6  A    between atoms: C_9  and  N_10
REMARK    7  A    between atoms: C_13  and  C_15
REMARK                            x       y       z     vdW  Elec       q    Type
REMARK                         _______ _______ _______ _____ _____    ______ ____
ROOT
ATOM      1  N   UNL     1       0.991   9.469  19.300  0.00  0.00    +0.000 N 
ATOM      2  C   UNL     1       0.636  10.744  18.961  0.00  0.00    +0.000 A 
ATOM      3  N   UNL     1      -0.339  10.852  18.004  0.00  0.00    +0.000 N 
ATOM      4  C   UNL     1      -1.214  11.890  17.907  0.00  0.00    +0.000 C 
ATOM      5  O   UNL     1      -1.015  13.044  18.263  0.00  0.00    +0.000 OA
ATOM      6  N   UNL     1       0.887  11.533  19.981  0.00  0.00    +0.000 NA
ATOM      7  C   UNL     1       0.626  10.693  21.038  0.00  0.00    +0.000 A 
ATOM      8  C   UNL     1       0.294  11.035  22.360  0.00  0.00    +0.000 A 
ATOM      9  C   UNL     1      -0.465  10.104  23.075  0.00  0.00    +0.000 A 
ATOM     10  C   UNL     1      -0.757   8.847  22.531  0.00  0.00    +0.000 A 
ATOM     11  C   UNL     1      -0.198   8.412  21.314  0.00  0.00    +0.000 A 
ATOM     12  C   UNL     1       0.508   9.373  20.590  0.00  0.00    +0.000 A 
ATOM     13  H   UNL     1      -0.670   9.966  17.631  0.00  0.00    +0.000 HD
ENDROOT
BRANCH   4  14
ATOM     14  C   UNL     1      -2.446  11.469  17.263  0.00  0.00    +0.000 A 
ATOM     15  C   UNL     1      -3.756  11.491  17.703  0.00  0.00    +0.000 A 
ATOM     16  C   UNL     1      -4.556  11.017  16.639  0.00  0.00    +0.000 A 
ATOM     17  C   UNL     1      -3.696  10.697  15.614  0.00  0.00    +0.000 A 
ATOM     18  O   UNL     1      -2.412  10.978  15.973  0.00  0.00    +0.000 OA
ENDBRANCH   4  14
BRANCH   1  19
ATOM     19  C   UNL     1       1.874   8.633  18.508  0.00  0.00    +0.000 C 
BRANCH  19  20
ATOM     20  C   UNL     1       2.568   7.396  19.158  0.00  0.00    +0.000 C 
BRANCH  20  21
ATOM     21  O   UNL     1       2.412   6.166  18.432  0.00  0.00    +0.000 OA
BRANCH  21  25
ATOM     22  C   UNL     1       5.536   4.709  16.002  0.00  0.00    +0.000 A 
ATOM     23  C   UNL     1       4.619   3.869  16.626  0.00  0.00    +0.000 A 
ATOM     24  C   UNL     1       3.578   4.391  17.408  0.00  0.00    +0.000 A 
ATOM     25  C   UNL     1       3.464   5.765  17.637  0.00  0.00    +0.000 A 
ATOM     26  C   UNL     1       4.370   6.611  16.996  0.00  0.00    +0.000 A 
ATOM     27  C   UNL     1       5.405   6.092  16.178  0.00  0.00    +0.000 A 
BRANCH  22  29
ATOM     28  C   UNL     1       6.289   3.882  13.892  0.00  0.00    +0.000 C 
ATOM     29  O   UNL     1       6.506   4.064  15.284  0.00  0.00    +0.000 OA
ENDBRANCH  22  29
ENDBRANCH  21  25
ENDBRANCH  20  21
ENDBRANCH  19  20
ENDBRANCH   1  19
TORSDOF 6
ENDMDL
MODEL 5
REMARK VINA RESULT:      -7.7      1.833      2.549
REMARK  Name = 
REMARK  7 active torsions:
REMARK  status: ('A' for Active; 'I' for Inactive)
REMARK    1  A    between atoms: C_1  and  O_2
REMARK    2  A    between atoms: O_2  and  C_3
REMARK    3  A    between atoms: C_6  and  O_7
REMARK    4  A    between atoms: O_7  and  C_8
REMARK    5  A    between atoms: C_8  and  C_9
REMARK    6  A    between atoms: C_9  and  N_10
REMARK    7  A    between atoms: C_13  and  C_15
REMARK                            x       y       z     vdW  Elec       q    Type
REMARK                         _______ _______ _______ _____ _____    ______ ____
ROOT
ATOM      1  N   UNL     1       1.954   6.016  20.005  0.00  0.00    +0.000 N 
ATOM      2  C   UNL     1       2.511   6.032  18.758  0.00  0.00    +0.000 A 
ATOM      3  N   UNL     1       3.825   6.416  18.700  0.00  0.00    +0.000 N 
ATOM      4  C   UNL     1       4.710   6.001  17.754  0.00  0.00    +0.000 C 
ATOM      5  O   UNL     1       4.445   5.672  16.605  0.00  0.00    +0.000 OA
ATOM      6  N   UNL     1       1.865   5.174  18.001  0.00  0.00    +0.000 NA
ATOM      7  C   UNL     1       1.544   4.199  18.916  0.00  0.00    +0.000 A 
ATOM      8  C   UNL     1       1.241   2.848  18.678  0.00  0.00    +0.000 A 
ATOM      9  C   UNL     1       1.514   1.954  19.717  0.00  0.00    +0.000 A 
ATOM     10  C   UNL     1       1.942   2.417  20.968  0.00  0.00    +0.000 A 
ATOM     11  C   UNL     1       1.989   3.788  21.281  0.00  0.00    +0.000 A 
ATOM     12  C   UNL     1       1.770   4.663  20.217  0.00  0.00    +0.000 A 
ATOM     13  H   UNL     1       4.232   6.675  19.596  0.00  0.00    +0.000 HD
ENDROOT
BRANCH   4  14
ATOM     14  C   UNL     1       6.070   6.040  18.266  0.00  0.00    +0.000 A 
ATOM     15  C   UNL     1       7.173   6.766  17.861  0.00  0.00    +0.000 A 
ATOM     16  C   UNL     1       8.221   6.457  18.758  0.00  0.00    +0.000 A 
ATOM     17  C   UNL     1       7.718   5.533  19.646  0.00  0.00    +0.000 A 
ATOM     18  O   UNL     1       6.408   5.280  19.367  0.00  0.00    +0.000 OA
ENDBRANCH   4  14
BRANCH   1  19
ATOM     19  C   UNL     1       1.491   7.200  20.704  0.00  0.00    +0.000 C 
BRANCH  19  20
ATOM     20  C   UNL     1       1.644   8.605  20.045  0.00  0.00    +0.000 C 
BRANCH  20  21
ATOM     21  O   UNL     1       0.407   9.286  19.782  0.00  0.00    +0.000 OA
BRANCH  21  25
ATOM     22  C   UNL     1      -1.270  11.809  22.716  0.00  0.00    +0.000 A 
ATOM     23  C   UNL     1      -1.121  12.200  21.389  0.00  0.00    +0.000 A 
ATOM     24  C   UNL     1      -0.580  11.325  20.435  0.00  0.00    +0.000 A 
ATOM     25  C   UNL     1      -0.118  10.057  20.797  0.00  0.00    +0.000 A 
ATOM     26  C   UNL     1      -0.285   9.654  22.122  0.00  0.00    +0.000 A 
ATOM     27  C   UNL     1      -0.859  10.522  23.085  0.00  0.00    +0.000 A 
BRANCH  22  29
ATOM     28  C   UNL     1      -1.237  14.072  23.477  0.00  0.00    +0.000 C 
ATOM     29  O   UNL     1      -1.795  12.767  23.539  0.00  0.00    +0.000 OA
ENDBRANCH  22  29
ENDBRANCH  21  25
ENDBRANCH  20  21
ENDBRANCH  19  20
ENDBRANCH   1  19
TORSDOF 6
ENDMDL
MODEL 6
REMARK VINA RESULT:      -7.7      2.032      2.369
REMARK  Name = 
REMARK  7 active torsions:
REMARK  status: ('A' for Active; 'I' for Inactive)
REMARK    1  A    between atoms: C_1  and  O_2
REMARK    2  A    between atoms: O_2  and  C_3
REMARK    3  A    between atoms: C_6  and  O_7
REMARK    4  A    between atoms: O_7  and  C_8
REMARK    5  A    between atoms: C_8  and  C_9
REMARK    6  A    between atoms: C_9  and  N_10
REMARK    7  A    between atoms: C_13  and  C_15
REMARK                            x       y       z     vdW  Elec       q    Type
REMARK                         _______ _______ _______ _____ _____    ______ ____
ROOT
ATOM      1  N   UNL     1       2.024   6.206  19.549  0.00  0.00    +0.000 N 
ATOM      2  C   UNL     1       2.641   5.942  18.359  0.00  0.00    +0.000 A 
ATOM      3  N   UNL     1       3.943   6.357  18.262  0.00  0.00    +0.000 N 
ATOM      4  C   UNL     1       4.888   5.764  17.483  0.00  0.00    +0.000 C 
ATOM      5  O   UNL     1       4.691   5.153  16.441  0.00  0.00    +0.000 OA
ATOM      6  N   UNL     1       2.062   4.898  17.810  0.00  0.00    +0.000 NA
ATOM      7  C   UNL     1       1.728   4.162  18.923  0.00  0.00    +0.000 A 
ATOM      8  C   UNL     1       1.481   2.782  19.012  0.00  0.00    +0.000 A 
ATOM      9  C   UNL     1       1.730   2.181  20.249  0.00  0.00    +0.000 A 
ATOM     10  C   UNL     1       2.080   2.953  21.365  0.00  0.00    +0.000 A 
ATOM     11  C   UNL     1       2.068   4.360  21.333  0.00  0.00    +0.000 A 
ATOM     12  C   UNL     1       1.874   4.939  20.078  0.00  0.00    +0.000 A 
ATOM     13  H   UNL     1       4.297   6.845  19.082  0.00  0.00    +0.000 HD
ENDROOT
BRANCH   4  14
ATOM     14  C   UNL     1       6.218   5.985  18.024  0.00  0.00    +0.000 A 
ATOM     15  C   UNL     1       7.165   6.950  17.742  0.00  0.00    +0.000 A 
ATOM     16  C   UNL     1       8.255   6.724  18.613  0.00  0.00    +0.000 A 
ATOM     17  C   UNL     1       7.937   5.614  19.360  0.00  0.00    +0.000 A 
ATOM     18  O   UNL     1       6.696   5.161  19.023  0.00  0.00    +0.000 OA
ENDBRANCH   4  14
BRANCH   1  19
ATOM     19  C   UNL     1       1.488   7.503  19.916  0.00  0.00    +0.000 C 
BRANCH  19  20
ATOM     20  C   UNL     1       1.072   7.785  21.393  0.00  0.00    +0.000 C 
BRANCH  20  21
ATOM     21  O   UNL     1       1.473   9.069  21.898  0.00  0.00    +0.000 OA
BRANCH  21  25
ATOM     22  C   UNL     1      -1.503  12.044  22.182  0.00  0.00    +0.000 A 
ATOM     23  C   UNL     1      -1.376  11.021  23.116  0.00  0.00    +0.000 A 
ATOM     24  C   UNL     1      -0.358  10.063  23.002  0.00  0.00    +0.000 A 
ATOM     25  C   UNL     1       0.521  10.066  21.916  0.00  0.00    +0.000 A 
ATOM     26  C   UNL     1       0.409  11.102  20.988  0.00  0.00    +0.000 A 
ATOM     27  C   UNL     1      -0.597  12.093  21.115  0.00  0.00    +0.000 A 
BRANCH  22  29
ATOM     28  C   UNL     1      -2.827  13.879  21.419  0.00  0.00    +0.000 C 
ATOM     29  O   UNL     1      -2.548  12.898  22.408  0.00  0.00    +0.000 OA
ENDBRANCH  22  29
ENDBRANCH  21  25
ENDBRANCH  20  21
ENDBRANCH  19  20
ENDBRANCH   1  19
TORSDOF 6
ENDMDL
MODEL 7
REMARK VINA RESULT:      -7.7      2.746      8.779
REMARK  Name = 
REMARK  7 active torsions:
REMARK  status: ('A' for Active; 'I' for Inactive)
REMARK    1  A    between atoms: C_1  and  O_2
REMARK    2  A    between atoms: O_2  and  C_3
REMARK    3  A    between atoms: C_6  and  O_7
REMARK    4  A    between atoms: O_7  and  C_8
REMARK    5  A    between atoms: C_8  and  C_9
REMARK    6  A    between atoms: C_9  and  N_10
REMARK    7  A    between atoms: C_13  and  C_15
REMARK                            x       y       z     vdW  Elec       q    Type
REMARK                         _______ _______ _______ _____ _____    ______ ____
ROOT
ATOM      1  N   UNL     1       1.028   9.474  19.220  0.00  0.00    +0.000 N 
ATOM      2  C   UNL     1       0.666  10.754  18.905  0.00  0.00    +0.000 A 
ATOM      3  N   UNL     1      -0.312  10.875  17.952  0.00  0.00    +0.000 N 
ATOM      4  C   UNL     1      -1.191  11.910  17.875  0.00  0.00    +0.000 C 
ATOM      5  O   UNL     1      -0.996  13.059  18.251  0.00  0.00    +0.000 OA
ATOM      6  N   UNL     1       0.916  11.526  19.938  0.00  0.00    +0.000 NA
ATOM      7  C   UNL     1       0.661  10.666  20.981  0.00  0.00    +0.000 A 
ATOM      8  C   UNL     1       0.331  10.983  22.309  0.00  0.00    +0.000 A 
ATOM      9  C   UNL     1      -0.423  10.037  23.009  0.00  0.00    +0.000 A 
ATOM     10  C   UNL     1      -0.710   8.788  22.443  0.00  0.00    +0.000 A 
ATOM     11  C   UNL     1      -0.153   8.377  21.218  0.00  0.00    +0.000 A 
ATOM     12  C   UNL     1       0.547   9.353  20.510  0.00  0.00    +0.000 A 
ATOM     13  H   UNL     1      -0.639   9.994  17.564  0.00  0.00    +0.000 HD
ENDROOT
BRANCH   4  14
ATOM     14  C   UNL     1      -2.423  11.495  17.227  0.00  0.00    +0.000 A 
ATOM     15  C   UNL     1      -2.648  10.877  16.012  0.00  0.00    +0.000 A 
ATOM     16  C   UNL     1      -4.040  10.651  15.916  0.00  0.00    +0.000 A 
ATOM     17  C   UNL     1      -4.602  11.171  17.060  0.00  0.00    +0.000 A 
ATOM     18  O   UNL     1      -3.630  11.676  17.872  0.00  0.00    +0.000 OA
ENDBRANCH   4  14
BRANCH   1  19
ATOM     19  C   UNL     1       1.912   8.657  18.411  0.00  0.00    +0.000 C 
BRANCH  19  20
ATOM     20  C   UNL     1       2.598   7.400  19.032  0.00  0.00    +0.000 C 
BRANCH  20  21
ATOM     21  O   UNL     1       2.288   6.159  18.378  0.00  0.00    +0.000 OA
BRANCH  21  25
ATOM     22  C   UNL     1       5.545   4.448  16.316  0.00  0.00    +0.000 A 
ATOM     23  C   UNL     1       5.451   5.813  16.566  0.00  0.00    +0.000 A 
ATOM     24  C   UNL     1       4.364   6.344  17.276  0.00  0.00    +0.000 A 
ATOM     25  C   UNL     1       3.311   5.530  17.701  0.00  0.00    +0.000 A 
ATOM     26  C   UNL     1       3.411   4.158  17.471  0.00  0.00    +0.000 A 
ATOM     27  C   UNL     1       4.523   3.610  16.782  0.00  0.00    +0.000 A 
BRANCH  22  29
ATOM     28  C   UNL     1       6.915   4.756  14.385  0.00  0.00    +0.000 C 
ATOM     29  O   UNL     1       6.648   4.071  15.601  0.00  0.00    +0.000 OA
ENDBRANCH  22  29
ENDBRANCH  21  25
ENDBRANCH  20  21
ENDBRANCH  19  20
ENDBRANCH   1  19
TORSDOF 6
ENDMDL
MODEL 8
REMARK VINA RESULT:      -7.7      0.853      1.142
REMARK  Name = 
REMARK  7 active torsions:
REMARK  status: ('A' for Active; 'I' for Inactive)
REMARK    1  A    between atoms: C_1  and  O_2
REMARK    2  A    between atoms: O_2  and  C_3
REMARK    3  A    between atoms: C_6  and  O_7
REMARK    4  A    between atoms: O_7  and  C_8
REMARK    5  A    between atoms: C_8  and  C_9
REMARK    6  A    between atoms: C_9  and  N_10
REMARK    7  A    between atoms: C_13  and  C_15
REMARK                            x       y       z     vdW  Elec       q    Type
REMARK                         _______ _______ _______ _____ _____    ______ ____
ROOT
ATOM      1  N   UNL     1       2.041   6.389  19.424  0.00  0.00    +0.000 N 
ATOM      2  C   UNL     1       2.672   6.034  18.265  0.00  0.00    +0.000 A 
ATOM      3  N   UNL     1       3.984   6.417  18.164  0.00  0.00    +0.000 N 
ATOM      4  C   UNL     1       4.929   5.755  17.443  0.00  0.00    +0.000 C 
ATOM      5  O   UNL     1       4.737   5.080  16.439  0.00  0.00    +0.000 OA
ATOM      6  N   UNL     1       2.080   4.969  17.776  0.00  0.00    +0.000 NA
ATOM      7  C   UNL     1       1.713   4.315  18.929  0.00  0.00    +0.000 A 
ATOM      8  C   UNL     1       1.435   2.949  19.104  0.00  0.00    +0.000 A 
ATOM      9  C   UNL     1       1.652   2.426  20.382  0.00  0.00    +0.000 A 
ATOM     10  C   UNL     1       2.000   3.263  21.450  0.00  0.00    +0.000 A 
ATOM     11  C   UNL     1       2.017   4.665  21.326  0.00  0.00    +0.000 A 
ATOM     12  C   UNL     1       1.856   5.163  20.033  0.00  0.00    +0.000 A 
ATOM     13  H   UNL     1       4.334   6.950  18.956  0.00  0.00    +0.000 HD
ENDROOT
BRANCH   4  14
ATOM     14  C   UNL     1       6.254   5.985  17.991  0.00  0.00    +0.000 A 
ATOM     15  C   UNL     1       7.204   6.945  17.702  0.00  0.00    +0.000 A 
ATOM     16  C   UNL     1       8.287   6.734  18.585  0.00  0.00    +0.000 A 
ATOM     17  C   UNL     1       7.962   5.636  19.348  0.00  0.00    +0.000 A 
ATOM     18  O   UNL     1       6.724   5.178  19.008  0.00  0.00    +0.000 OA
ENDBRANCH   4  14
BRANCH   1  19
ATOM     19  C   UNL     1       1.527   7.718  19.696  0.00  0.00    +0.000 C 
BRANCH  19  20
ATOM     20  C   UNL     1       1.907   8.908  18.761  0.00  0.00    +0.000 C 
BRANCH  20  21
ATOM     21  O   UNL     1       0.857   9.344  17.883  0.00  0.00    +0.000 OA
BRANCH  21  25
ATOM     22  C   UNL     1      -2.214  11.835  19.349  0.00  0.00    +0.000 A 
ATOM     23  C   UNL     1      -2.406  10.957  18.287  0.00  0.00    +0.000 A 
ATOM     24  C   UNL     1      -1.368  10.126  17.842  0.00  0.00    +0.000 A 
ATOM     25  C   UNL     1      -0.091  10.196  18.407  0.00  0.00    +0.000 A 
ATOM     26  C   UNL     1       0.099  11.061  19.486  0.00  0.00    +0.000 A 
ATOM     27  C   UNL     1      -0.955  11.880  19.962  0.00  0.00    +0.000 A 
BRANCH  22  29
ATOM     28  C   UNL     1      -3.611  12.773  21.044  0.00  0.00    +0.000 C 
ATOM     29  O   UNL     1      -3.306  12.595  19.667  0.00  0.00    +0.000 OA
ENDBRANCH  22  29
ENDBRANCH  21  25
ENDBRANCH  20  21
ENDBRANCH  19  20
ENDBRANCH   1  19
TORSDOF 6
ENDMDL
MODEL 9
REMARK VINA RESULT:      -7.7      4.914      8.105
REMARK  Name = 
REMARK  7 active torsions:
REMARK  status: ('A' for Active; 'I' for Inactive)
REMARK    1  A    between atoms: C_1  and  O_2
REMARK    2  A    between atoms: O_2  and  C_3
REMARK    3  A    between atoms: C_6  and  O_7
REMARK    4  A    between atoms: O_7  and  C_8
REMARK    5  A    between atoms: C_8  and  C_9
REMARK    6  A    between atoms: C_9  and  N_10
REMARK    7  A    between atoms: C_13  and  C_15
REMARK                            x       y       z     vdW  Elec       q    Type
REMARK                         _______ _______ _______ _____ _____    ______ ____
ROOT
ATOM      1  N   UNL     1       6.253   6.402  17.668  0.00  0.00    +0.000 N 
ATOM      2  C   UNL     1       6.232   5.287  18.457  0.00  0.00    +0.000 A 
ATOM      3  N   UNL     1       5.097   5.113  19.205  0.00  0.00    +0.000 N 
ATOM      4  C   UNL     1       4.609   3.905  19.598  0.00  0.00    +0.000 C 
ATOM      5  O   UNL     1       5.261   2.889  19.802  0.00  0.00    +0.000 OA
ATOM      6  N   UNL     1       7.020   4.382  17.923  0.00  0.00    +0.000 NA
ATOM      7  C   UNL     1       6.844   4.634  16.582  0.00  0.00    +0.000 A 
ATOM      8  C   UNL     1       7.060   3.767  15.497  0.00  0.00    +0.000 A 
ATOM      9  C   UNL     1       6.304   4.006  14.346  0.00  0.00    +0.000 A 
ATOM     10  C   UNL     1       5.479   5.134  14.251  0.00  0.00    +0.000 A 
ATOM     11  C   UNL     1       5.470   6.138  15.237  0.00  0.00    +0.000 A 
ATOM     12  C   UNL     1       6.185   5.855  16.401  0.00  0.00    +0.000 A 
ATOM     13  H   UNL     1       4.406   5.853  19.109  0.00  0.00    +0.000 HD
ENDROOT
BRANCH   4  14
ATOM     14  C   UNL     1       3.172   3.970  19.801  0.00  0.00    +0.000 A 
ATOM     15  C   UNL     1       2.419   4.578  20.787  0.00  0.00    +0.000 A 
ATOM     16  C   UNL     1       1.061   4.373  20.454  0.00  0.00    +0.000 A 
ATOM     17  C   UNL     1       1.049   3.621  19.302  0.00  0.00    +0.000 A 
ATOM     18  O   UNL     1       2.324   3.379  18.885  0.00  0.00    +0.000 OA
ENDBRANCH   4  14
BRANCH   1  19
ATOM     19  C   UNL     1       6.540   7.739  18.155  0.00  0.00    +0.000 C 
BRANCH  19  20
ATOM     20  C   UNL     1       7.878   8.441  17.766  0.00  0.00    +0.000 C 
BRANCH  20  21
ATOM     21  O   UNL     1       8.719   8.791  18.876  0.00  0.00    +0.000 OA
BRANCH  21  25
ATOM     22  C   UNL     1       9.793  12.869  18.986  0.00  0.00    +0.000 A 
ATOM     23  C   UNL     1       9.353  12.241  17.825  0.00  0.00    +0.000 A 
ATOM     24  C   UNL     1       8.982  10.889  17.832  0.00  0.00    +0.000 A 
ATOM     25  C   UNL     1       9.100  10.112  18.987  0.00  0.00    +0.000 A 
ATOM     26  C   UNL     1       9.521  10.743  20.158  0.00  0.00    +0.000 A 
ATOM     27  C   UNL     1       9.867  12.117  20.166  0.00  0.00    +0.000 A 
BRANCH  22  29
ATOM     28  C   UNL     1       9.135  15.079  18.368  0.00  0.00    +0.000 C 
ATOM     29  O   UNL     1      10.136  14.184  18.831  0.00  0.00    +0.000 OA
ENDBRANCH  22  29
ENDBRANCH  21  25
ENDBRANCH  20  21
ENDBRANCH  19  20
ENDBRANCH   1  19
TORSDOF 6
ENDMDL
