MODEL 1
REMARK VINA RESULT:      -7.9      0.000      0.000
REMARK  Name = 
REMARK  4 active torsions:
REMARK  status: ('A' for Active; 'I' for Inactive)
REMARK    1  A    between atoms: C_1  and  C_2
REMARK    2  A    between atoms: C_2  and  N_3
REMARK    3  A    between atoms: C_10  and  O_11
REMARK    4  A    between atoms: C_19  and  O_20
REMARK                            x       y       z     vdW  Elec       q    Type
REMARK                         _______ _______ _______ _____ _____    ______ ____
ROOT
ATOM      1  N   UNL     1       6.731   5.656  17.569  0.00  0.00    +0.000 N 
ATOM      2  C   UNL     1       5.835   5.289  18.602  0.00  0.00    +0.000 A 
ATOM      3  O   UNL     1       6.010   5.586  19.782  0.00  0.00    +0.000 OA
ATOM      4  C   UNL     1       4.670   4.553  18.187  0.00  0.00    +0.000 A 
ATOM      5  C   UNL     1       3.529   4.099  18.883  0.00  0.00    +0.000 A 
ATOM      6  C   UNL     1       3.079   4.168  20.214  0.00  0.00    +0.000 A 
ATOM      7  C   UNL     1       1.840   3.606  20.538  0.00  0.00    +0.000 A 
ATOM      8  C   UNL     1       1.074   2.984  19.552  0.00  0.00    +0.000 A 
ATOM      9  C   UNL     1       1.493   2.899  18.221  0.00  0.00    +0.000 A 
ATOM     10  C   UNL     1       2.729   3.471  17.927  0.00  0.00    +0.000 A 
ATOM     11  O   UNL     1       3.333   3.514  16.693  0.00  0.00    +0.000 OA
ATOM     12  C   UNL     1       4.501   4.179  16.882  0.00  0.00    +0.000 A 
ATOM     13  C   UNL     1       5.428   4.463  15.816  0.00  0.00    +0.000 A 
ATOM     14  C   UNL     1       5.242   4.044  14.494  0.00  0.00    +0.000 A 
ATOM     15  C   UNL     1       6.197   4.358  13.527  0.00  0.00    +0.000 A 
ATOM     16  C   UNL     1       7.327   5.081  13.894  0.00  0.00    +0.000 A 
ATOM     17  C   UNL     1       7.522   5.509  15.206  0.00  0.00    +0.000 A 
ATOM     18  C   UNL     1       6.573   5.217  16.194  0.00  0.00    +0.000 A 
ENDROOT
BRANCH   1  20
ATOM     19  C   UNL     1       7.590   7.979  17.642  0.00  0.00    +0.000 C 
ATOM     20  C   UNL     1       7.843   6.515  17.963  0.00  0.00    +0.000 C 
ENDBRANCH   1  20
BRANCH   8  21
ATOM     21  O   UNL     1      -0.140   2.436  19.867  0.00  0.00    +0.000 OA
ATOM     22  H   UNL     1      -0.832   2.904  19.369  0.00  0.00    +0.000 HD
ENDBRANCH   8  21
BRANCH  16  23
ATOM     23  O   UNL     1       8.293   5.401  12.985  0.00  0.00    +0.000 OA
ATOM     24  H   UNL     1       8.619   6.297  13.172  0.00  0.00    +0.000 HD
ENDBRANCH  16  23
TORSDOF 3
ENDMDL
MODEL 2
REMARK VINA RESULT:      -7.7      3.072      6.661
REMARK  Name = 
REMARK  4 active torsions:
REMARK  status: ('A' for Active; 'I' for Inactive)
REMARK    1  A    between atoms: C_1  and  C_2
REMARK    2  A    between atoms: C_2  and  N_3
REMARK    3  A    between atoms: C_10  and  O_11
REMARK    4  A    between atoms: C_19  and  O_20
REMARK                            x       y       z     vdW  Elec       q    Type
REMARK                         _______ _______ _______ _____ _____    ______ ____
ROOT
ATOM      1  N   UNL     1       2.692   5.028  20.245  0.00  0.00    +0.000 N 
ATOM      2  C   UNL     1       3.676   4.438  19.417  0.00  0.00    +0.000 A 
ATOM      3  O   UNL     1       4.152   3.324  19.625  0.00  0.00    +0.000 OA
ATOM      4  C   UNL     1       4.085   5.217  18.278  0.00  0.00    +0.000 A 
ATOM      5  C   UNL     1       4.949   4.946  17.195  0.00  0.00    +0.000 A 
ATOM      6  C   UNL     1       5.740   3.852  16.800  0.00  0.00    +0.000 A 
ATOM      7  C   UNL     1       6.469   3.942  15.610  0.00  0.00    +0.000 A 
ATOM      8  C   UNL     1       6.409   5.102  14.837  0.00  0.00    +0.000 A 
ATOM      9  C   UNL     1       5.633   6.206  15.202  0.00  0.00    +0.000 A 
ATOM     10  C   UNL     1       4.915   6.086  16.391  0.00  0.00    +0.000 A 
ATOM     11  O   UNL     1       4.083   7.034  16.938  0.00  0.00    +0.000 OA
ATOM     12  C   UNL     1       3.593   6.477  18.074  0.00  0.00    +0.000 A 
ATOM     13  C   UNL     1       2.651   7.145  18.937  0.00  0.00    +0.000 A 
ATOM     14  C   UNL     1       2.186   8.446  18.717  0.00  0.00    +0.000 A 
ATOM     15  C   UNL     1       1.279   9.016  19.611  0.00  0.00    +0.000 A 
ATOM     16  C   UNL     1       0.854   8.282  20.714  0.00  0.00    +0.000 A 
ATOM     17  C   UNL     1       1.306   6.984  20.940  0.00  0.00    +0.000 A 
ATOM     18  C   UNL     1       2.207   6.384  20.053  0.00  0.00    +0.000 A 
ENDROOT
BRANCH   1  20
ATOM     19  C   UNL     1       1.072   3.256  20.859  0.00  0.00    +0.000 C 
ATOM     20  C   UNL     1       2.178   4.190  21.323  0.00  0.00    +0.000 C 
ENDBRANCH   1  20
BRANCH   8  21
ATOM     21  O   UNL     1       7.120   5.190  13.671  0.00  0.00    +0.000 OA
ATOM     22  H   UNL     1       8.019   5.498  13.876  0.00  0.00    +0.000 HD
ENDBRANCH   8  21
BRANCH  16  23
ATOM     23  O   UNL     1      -0.023   8.805  21.620  0.00  0.00    +0.000 OA
ATOM     24  H   UNL     1       0.253   9.710  21.840  0.00  0.00    +0.000 HD
ENDBRANCH  16  23
TORSDOF 3
ENDMDL
MODEL 3
REMARK VINA RESULT:      -7.6      3.721      4.594
REMARK  Name = 
REMARK  4 active torsions:
REMARK  status: ('A' for Active; 'I' for Inactive)
REMARK    1  A    between atoms: C_1  and  C_2
REMARK    2  A    between atoms: C_2  and  N_3
REMARK    3  A    between atoms: C_10  and  O_11
REMARK    4  A    between atoms: C_19  and  O_20
REMARK                            x       y       z     vdW  Elec       q    Type
REMARK                         _______ _______ _______ _____ _____    ______ ____
ROOT
ATOM      1  N   UNL     1       3.993   4.337  18.905  0.00  0.00    +0.000 N 
ATOM      2  C   UNL     1       3.059   5.084  19.662  0.00  0.00    +0.000 A 
ATOM      3  O   UNL     1       2.532   4.661  20.689  0.00  0.00    +0.000 OA
ATOM      4  C   UNL     1       2.770   6.406  19.171  0.00  0.00    +0.000 A 
ATOM      5  C   UNL     1       1.988   7.465  19.680  0.00  0.00    +0.000 A 
ATOM      6  C   UNL     1       1.195   7.658  20.827  0.00  0.00    +0.000 A 
ATOM      7  C   UNL     1       0.569   8.894  21.013  0.00  0.00    +0.000 A 
ATOM      8  C   UNL     1       0.728   9.910  20.070  0.00  0.00    +0.000 A 
ATOM      9  C   UNL     1       1.509   9.749  18.922  0.00  0.00    +0.000 A 
ATOM     10  C   UNL     1       2.124   8.509  18.765  0.00  0.00    +0.000 A 
ATOM     11  O   UNL     1       2.939   8.131  17.725  0.00  0.00    +0.000 OA
ATOM     12  C   UNL     1       3.318   6.858  18.002  0.00  0.00    +0.000 A 
ATOM     13  C   UNL     1       4.208   6.099  17.161  0.00  0.00    +0.000 A 
ATOM     14  C   UNL     1       4.732   6.578  15.955  0.00  0.00    +0.000 A 
ATOM     15  C   UNL     1       5.582   5.768  15.200  0.00  0.00    +0.000 A 
ATOM     16  C   UNL     1       5.892   4.492  15.656  0.00  0.00    +0.000 A 
ATOM     17  C   UNL     1       5.380   4.006  16.857  0.00  0.00    +0.000 A 
ATOM     18  C   UNL     1       4.535   4.800  17.640  0.00  0.00    +0.000 A 
ENDROOT
BRANCH   1  20
ATOM     19  C   UNL     1       3.546   1.900  18.948  0.00  0.00    +0.000 C 
ATOM     20  C   UNL     1       4.390   3.051  19.469  0.00  0.00    +0.000 C 
ENDBRANCH   1  20
BRANCH   8  21
ATOM     21  O   UNL     1       0.118  11.121  20.253  0.00  0.00    +0.000 OA
ATOM     22  H   UNL     1      -0.256  11.413  19.404  0.00  0.00    +0.000 HD
ENDBRANCH   8  21
BRANCH  16  23
ATOM     23  O   UNL     1       6.709   3.662  14.945  0.00  0.00    +0.000 OA
ATOM     24  H   UNL     1       7.470   3.418  15.497  0.00  0.00    +0.000 HD
ENDBRANCH  16  23
TORSDOF 3
ENDMDL
MODEL 4
REMARK VINA RESULT:      -7.5      5.954      8.210
REMARK  Name = 
REMARK  4 active torsions:
REMARK  status: ('A' for Active; 'I' for Inactive)
REMARK    1  A    between atoms: C_1  and  C_2
REMARK    2  A    between atoms: C_2  and  N_3
REMARK    3  A    between atoms: C_10  and  O_11
REMARK    4  A    between atoms: C_19  and  O_20
REMARK                            x       y       z     vdW  Elec       q    Type
REMARK                         _______ _______ _______ _____ _____    ______ ____
ROOT
ATOM      1  N   UNL     1       1.010  10.791  19.324  0.00  0.00    +0.000 N 
ATOM      2  C   UNL     1       1.642   9.761  18.587  0.00  0.00    +0.000 A 
ATOM      3  O   UNL     1       2.072   9.916  17.446  0.00  0.00    +0.000 OA
ATOM      4  C   UNL     1       1.781   8.501  19.267  0.00  0.00    +0.000 A 
ATOM      5  C   UNL     1       2.418   7.291  18.916  0.00  0.00    +0.000 A 
ATOM      6  C   UNL     1       3.146   6.833  17.802  0.00  0.00    +0.000 A 
ATOM      7  C   UNL     1       3.665   5.535  17.824  0.00  0.00    +0.000 A 
ATOM      8  C   UNL     1       3.457   4.714  18.932  0.00  0.00    +0.000 A 
ATOM      9  C   UNL     1       2.739   5.139  20.053  0.00  0.00    +0.000 A 
ATOM     10  C   UNL     1       2.236   6.438  20.006  0.00  0.00    +0.000 A 
ATOM     11  O   UNL     1       1.513   7.068  20.991  0.00  0.00    +0.000 OA
ATOM     12  C   UNL     1       1.258   8.313  20.518  0.00  0.00    +0.000 A 
ATOM     13  C   UNL     1       0.538   9.310  21.268  0.00  0.00    +0.000 A 
ATOM     14  C   UNL     1      -0.010   9.081  22.535  0.00  0.00    +0.000 A 
ATOM     15  C   UNL     1      -0.699  10.105  23.186  0.00  0.00    +0.000 A 
ATOM     16  C   UNL     1      -0.837  11.340  22.561  0.00  0.00    +0.000 A 
ATOM     17  C   UNL     1      -0.293  11.581  21.301  0.00  0.00    +0.000 A 
ATOM     18  C   UNL     1       0.414  10.576  20.631  0.00  0.00    +0.000 A 
ENDROOT
BRANCH   1  20
ATOM     19  C   UNL     1       2.216  12.935  19.024  0.00  0.00    +0.000 C 
ATOM     20  C   UNL     1       0.985  12.106  18.693  0.00  0.00    +0.000 C 
ENDBRANCH   1  20
BRANCH   8  21
ATOM     21  O   UNL     1       3.967   3.444  18.955  0.00  0.00    +0.000 OA
ATOM     22  H   UNL     1       3.289   2.830  18.624  0.00  0.00    +0.000 HD
ENDBRANCH   8  21
BRANCH  16  23
ATOM     23  O   UNL     1      -1.514  12.365  23.155  0.00  0.00    +0.000 OA
ATOM     24  H   UNL     1      -2.049  12.010  23.884  0.00  0.00    +0.000 HD
ENDBRANCH  16  23
TORSDOF 3
ENDMDL
MODEL 5
REMARK VINA RESULT:      -7.1      3.954      5.656
REMARK  Name = 
REMARK  4 active torsions:
REMARK  status: ('A' for Active; 'I' for Inactive)
REMARK    1  A    between atoms: C_1  and  C_2
REMARK    2  A    between atoms: C_2  and  N_3
REMARK    3  A    between atoms: C_10  and  O_11
REMARK    4  A    between atoms: C_19  and  O_20
REMARK                            x       y       z     vdW  Elec       q    Type
REMARK                         _______ _______ _______ _____ _____    ______ ____
ROOT
ATOM      1  N   UNL     1       4.289   5.275  17.448  0.00  0.00    +0.000 N 
ATOM      2  C   UNL     1       3.847   6.618  17.378  0.00  0.00    +0.000 A 
ATOM      3  O   UNL     1       4.158   7.383  16.467  0.00  0.00    +0.000 OA
ATOM      4  C   UNL     1       2.975   7.046  18.440  0.00  0.00    +0.000 A 
ATOM      5  C   UNL     1       2.269   8.246  18.671  0.00  0.00    +0.000 A 
ATOM      6  C   UNL     1       2.134   9.471  17.993  0.00  0.00    +0.000 A 
ATOM      7  C   UNL     1       1.296  10.452  18.532  0.00  0.00    +0.000 A 
ATOM      8  C   UNL     1       0.614  10.213  19.725  0.00  0.00    +0.000 A 
ATOM      9  C   UNL     1       0.727   9.007  20.423  0.00  0.00    +0.000 A 
ATOM     10  C   UNL     1       1.566   8.047  19.860  0.00  0.00    +0.000 A 
ATOM     11  O   UNL     1       1.820   6.793  20.363  0.00  0.00    +0.000 OA
ATOM     12  C   UNL     1       2.670   6.211  19.480  0.00  0.00    +0.000 A 
ATOM     13  C   UNL     1       3.163   4.866  19.630  0.00  0.00    +0.000 A 
ATOM     14  C   UNL     1       2.855   4.044  20.719  0.00  0.00    +0.000 A 
ATOM     15  C   UNL     1       3.385   2.755  20.785  0.00  0.00    +0.000 A 
ATOM     16  C   UNL     1       4.219   2.307  19.766  0.00  0.00    +0.000 A 
ATOM     17  C   UNL     1       4.530   3.114  18.674  0.00  0.00    +0.000 A 
ATOM     18  C   UNL     1       4.002   4.407  18.577  0.00  0.00    +0.000 A 
ENDROOT
BRANCH   1  20
ATOM     19  C   UNL     1       6.558   4.994  16.493  0.00  0.00    +0.000 C 
ATOM     20  C   UNL     1       5.063   4.796  16.307  0.00  0.00    +0.000 C 
ENDBRANCH   1  20
BRANCH   8  21
ATOM     21  O   UNL     1      -0.208  11.172  20.253  0.00  0.00    +0.000 OA
ATOM     22  H   UNL     1      -0.182  11.105  21.223  0.00  0.00    +0.000 HD
ENDBRANCH   8  21
BRANCH  16  23
ATOM     23  O   UNL     1       4.770   1.058  19.795  0.00  0.00    +0.000 OA
ATOM     24  H   UNL     1       4.324   0.533  20.481  0.00  0.00    +0.000 HD
ENDBRANCH  16  23
TORSDOF 3
ENDMDL
MODEL 6
REMARK VINA RESULT:      -7.1      4.166      5.867
REMARK  Name = 
REMARK  4 active torsions:
REMARK  status: ('A' for Active; 'I' for Inactive)
REMARK    1  A    between atoms: C_1  and  C_2
REMARK    2  A    between atoms: C_2  and  N_3
REMARK    3  A    between atoms: C_10  and  O_11
REMARK    4  A    between atoms: C_19  and  O_20
REMARK                            x       y       z     vdW  Elec       q    Type
REMARK                         _______ _______ _______ _____ _____    ______ ____
ROOT
ATOM      1  N   UNL     1       3.722   5.927  17.931  0.00  0.00    +0.000 N 
ATOM      2  C   UNL     1       3.183   7.223  18.117  0.00  0.00    +0.000 A 
ATOM      3  O   UNL     1       3.398   8.159  17.349  0.00  0.00    +0.000 OA
ATOM      4  C   UNL     1       2.330   7.386  19.264  0.00  0.00    +0.000 A 
ATOM      5  C   UNL     1       1.550   8.468  19.729  0.00  0.00    +0.000 A 
ATOM      6  C   UNL     1       1.298   9.779  19.286  0.00  0.00    +0.000 A 
ATOM      7  C   UNL     1       0.417  10.581  20.018  0.00  0.00    +0.000 A 
ATOM      8  C   UNL     1      -0.193  10.082  21.169  0.00  0.00    +0.000 A 
ATOM      9  C   UNL     1       0.036   8.784  21.635  0.00  0.00    +0.000 A 
ATOM     10  C   UNL     1       0.916   8.007  20.884  0.00  0.00    +0.000 A 
ATOM     11  O   UNL     1       1.281   6.708  21.144  0.00  0.00    +0.000 OA
ATOM     12  C   UNL     1       2.131   6.359  20.146  0.00  0.00    +0.000 A 
ATOM     13  C   UNL     1       2.725   5.052  20.036  0.00  0.00    +0.000 A 
ATOM     14  C   UNL     1       2.525   4.029  20.969  0.00  0.00    +0.000 A 
ATOM     15  C   UNL     1       3.149   2.794  20.786  0.00  0.00    +0.000 A 
ATOM     16  C   UNL     1       3.967   2.600  19.679  0.00  0.00    +0.000 A 
ATOM     17  C   UNL     1       4.170   3.609  18.740  0.00  0.00    +0.000 A 
ATOM     18  C   UNL     1       3.548   4.854  18.894  0.00  0.00    +0.000 A 
ENDROOT
BRANCH   1  20
ATOM     19  C   UNL     1       5.938   6.115  16.839  0.00  0.00    +0.000 C 
ATOM     20  C   UNL     1       4.477   5.720  16.700  0.00  0.00    +0.000 C 
ENDBRANCH   1  20
BRANCH   8  21
ATOM     21  O   UNL     1      -1.058  10.865  21.885  0.00  0.00    +0.000 OA
ATOM     22  H   UNL     1      -0.625  11.715  22.074  0.00  0.00    +0.000 HD
ENDBRANCH   8  21
BRANCH  16  23
ATOM     23  O   UNL     1       4.606   1.413  19.466  0.00  0.00    +0.000 OA
ATOM     24  H   UNL     1       4.315   1.045  18.615  0.00  0.00    +0.000 HD
ENDBRANCH  16  23
TORSDOF 3
ENDMDL
MODEL 7
REMARK VINA RESULT:      -7.1      4.482      5.618
REMARK  Name = 
REMARK  4 active torsions:
REMARK  status: ('A' for Active; 'I' for Inactive)
REMARK    1  A    between atoms: C_1  and  C_2
REMARK    2  A    between atoms: C_2  and  N_3
REMARK    3  A    between atoms: C_10  and  O_11
REMARK    4  A    between atoms: C_19  and  O_20
REMARK                            x       y       z     vdW  Elec       q    Type
REMARK                         _______ _______ _______ _____ _____    ______ ____
ROOT
ATOM      1  N   UNL     1       3.088   5.321  19.509  0.00  0.00    +0.000 N 
ATOM      2  C   UNL     1       2.244   6.359  19.970  0.00  0.00    +0.000 A 
ATOM      3  O   UNL     1       1.540   6.260  20.973  0.00  0.00    +0.000 OA
ATOM      4  C   UNL     1       2.269   7.574  19.199  0.00  0.00    +0.000 A 
ATOM      5  C   UNL     1       1.658   8.834  19.381  0.00  0.00    +0.000 A 
ATOM      6  C   UNL     1       0.803   9.398  20.345  0.00  0.00    +0.000 A 
ATOM      7  C   UNL     1       0.411  10.733  20.201  0.00  0.00    +0.000 A 
ATOM      8  C   UNL     1       0.863  11.483  19.115  0.00  0.00    +0.000 A 
ATOM      9  C   UNL     1       1.712  10.951  18.141  0.00  0.00    +0.000 A 
ATOM     10  C   UNL     1       2.088   9.620  18.312  0.00  0.00    +0.000 A 
ATOM     11  O   UNL     1       2.920   8.897  17.490  0.00  0.00    +0.000 OA
ATOM     12  C   UNL     1       3.013   7.667  18.055  0.00  0.00    +0.000 A 
ATOM     13  C   UNL     1       3.822   6.608  17.510  0.00  0.00    +0.000 A 
ATOM     14  C   UNL     1       4.552   6.723  16.321  0.00  0.00    +0.000 A 
ATOM     15  C   UNL     1       5.303   5.640  15.863  0.00  0.00    +0.000 A 
ATOM     16  C   UNL     1       5.311   4.456  16.594  0.00  0.00    +0.000 A 
ATOM     17  C   UNL     1       4.592   4.331  17.781  0.00  0.00    +0.000 A 
ATOM     18  C   UNL     1       3.839   5.406  18.269  0.00  0.00    +0.000 A 
ENDROOT
BRANCH   1  20
ATOM     19  C   UNL     1       2.011   3.178  20.133  0.00  0.00    +0.000 C 
ATOM     20  C   UNL     1       3.168   4.138  20.359  0.00  0.00    +0.000 C 
ENDBRANCH   1  20
BRANCH   8  21
ATOM     21  O   UNL     1       0.482  12.790  18.974  0.00  0.00    +0.000 OA
ATOM     22  H   UNL     1       1.094  13.349  19.484  0.00  0.00    +0.000 HD
ENDBRANCH   8  21
BRANCH  16  23
ATOM     23  O   UNL     1       6.021   3.369  16.177  0.00  0.00    +0.000 OA
ATOM     24  H   UNL     1       5.533   2.928  15.462  0.00  0.00    +0.000 HD
ENDBRANCH  16  23
TORSDOF 3
ENDMDL
MODEL 8
REMARK VINA RESULT:      -6.4      9.729     10.499
REMARK  Name = 
REMARK  4 active torsions:
REMARK  status: ('A' for Active; 'I' for Inactive)
REMARK    1  A    between atoms: C_1  and  C_2
REMARK    2  A    between atoms: C_2  and  N_3
REMARK    3  A    between atoms: C_10  and  O_11
REMARK    4  A    between atoms: C_19  and  O_20
REMARK                            x       y       z     vdW  Elec       q    Type
REMARK                         _______ _______ _______ _____ _____    ______ ____
ROOT
ATOM      1  N   UNL     1       8.884  14.881  18.844  0.00  0.00    +0.000 N 
ATOM      2  C   UNL     1       8.152  14.893  20.056  0.00  0.00    +0.000 A 
ATOM      3  O   UNL     1       7.368  15.789  20.361  0.00  0.00    +0.000 OA
ATOM      4  C   UNL     1       8.360  13.763  20.923  0.00  0.00    +0.000 A 
ATOM      5  C   UNL     1       7.763  13.371  22.141  0.00  0.00    +0.000 A 
ATOM      6  C   UNL     1       6.766  13.902  22.980  0.00  0.00    +0.000 A 
ATOM      7  C   UNL     1       6.408  13.195  24.132  0.00  0.00    +0.000 A 
ATOM      8  C   UNL     1       7.037  11.989  24.439  0.00  0.00    +0.000 A 
ATOM      9  C   UNL     1       8.030  11.435  23.626  0.00  0.00    +0.000 A 
ATOM     10  C   UNL     1       8.364  12.159  22.483  0.00  0.00    +0.000 A 
ATOM     11  O   UNL     1       9.299  11.805  21.539  0.00  0.00    +0.000 OA
ATOM     12  C   UNL     1       9.269  12.791  20.608  0.00  0.00    +0.000 A 
ATOM     13  C   UNL     1      10.091  12.784  19.424  0.00  0.00    +0.000 A 
ATOM     14  C   UNL     1      11.033  11.789  19.142  0.00  0.00    +0.000 A 
ATOM     15  C   UNL     1      11.793  11.867  17.974  0.00  0.00    +0.000 A 
ATOM     16  C   UNL     1      11.605  12.939  17.108  0.00  0.00    +0.000 A 
ATOM     17  C   UNL     1      10.666  13.934  17.376  0.00  0.00    +0.000 A 
ATOM     18  C   UNL     1       9.883  13.873  18.535  0.00  0.00    +0.000 A 
ENDROOT
BRANCH   1  20
ATOM     19  C   UNL     1       9.433  17.190  18.131  0.00  0.00    +0.000 C 
ATOM     20  C   UNL     1       8.579  15.953  17.903  0.00  0.00    +0.000 C 
ENDBRANCH   1  20
BRANCH   8  21
ATOM     21  O   UNL     1       6.685  11.295  25.565  0.00  0.00    +0.000 OA
ATOM     22  H   UNL     1       7.488  10.907  25.955  0.00  0.00    +0.000 HD
ENDBRANCH   8  21
BRANCH  16  23
ATOM     23  O   UNL     1      12.333  13.063  15.961  0.00  0.00    +0.000 OA
ATOM     24  H   UNL     1      12.437  14.006  15.752  0.00  0.00    +0.000 HD
ENDBRANCH  16  23
TORSDOF 3
ENDMDL
MODEL 9
REMARK VINA RESULT:      -6.4     10.368     12.456
REMARK  Name = 
REMARK  4 active torsions:
REMARK  status: ('A' for Active; 'I' for Inactive)
REMARK    1  A    between atoms: C_1  and  C_2
REMARK    2  A    between atoms: C_2  and  N_3
REMARK    3  A    between atoms: C_10  and  O_11
REMARK    4  A    between atoms: C_19  and  O_20
REMARK                            x       y       z     vdW  Elec       q    Type
REMARK                         _______ _______ _______ _____ _____    ______ ____
ROOT
ATOM      1  N   UNL     1      -1.743  12.015  21.520  0.00  0.00    +0.000 N 
ATOM      2  C   UNL     1      -1.487  11.473  20.237  0.00  0.00    +0.000 A 
ATOM      3  O   UNL     1      -0.430  10.923  19.938  0.00  0.00    +0.000 OA
ATOM      4  C   UNL     1      -2.562  11.581  19.287  0.00  0.00    +0.000 A 
ATOM      5  C   UNL     1      -2.727  11.096  17.971  0.00  0.00    +0.000 A 
ATOM      6  C   UNL     1      -1.940  10.342  17.080  0.00  0.00    +0.000 A 
ATOM      7  C   UNL     1      -2.465  10.020  15.825  0.00  0.00    +0.000 A 
ATOM      8  C   UNL     1      -3.745  10.446  15.470  0.00  0.00    +0.000 A 
ATOM      9  C   UNL     1      -4.551  11.195  16.332  0.00  0.00    +0.000 A 
ATOM     10  C   UNL     1      -4.003  11.498  17.577  0.00  0.00    +0.000 A 
ATOM     11  O   UNL     1      -4.613  12.210  18.583  0.00  0.00    +0.000 OA
ATOM     12  C   UNL     1      -3.719  12.238  19.604  0.00  0.00    +0.000 A 
ATOM     13  C   UNL     1      -3.987  12.873  20.869  0.00  0.00    +0.000 A 
ATOM     14  C   UNL     1      -5.171  13.562  21.156  0.00  0.00    +0.000 A 
ATOM     15  C   UNL     1      -5.341  14.154  22.408  0.00  0.00    +0.000 A 
ATOM     16  C   UNL     1      -4.326  14.054  23.354  0.00  0.00    +0.000 A 
ATOM     17  C   UNL     1      -3.145  13.366  23.081  0.00  0.00    +0.000 A 
ATOM     18  C   UNL     1      -2.953  12.754  21.838  0.00  0.00    +0.000 A 
ENDROOT
BRANCH   1  20
ATOM     19  C   UNL     1      -0.815  10.420  23.173  0.00  0.00    +0.000 C 
ATOM     20  C   UNL     1      -0.711  11.791  22.526  0.00  0.00    +0.000 C 
ENDBRANCH   1  20
BRANCH   8  21
ATOM     21  O   UNL     1      -4.261  10.128  14.242  0.00  0.00    +0.000 OA
ATOM     22  H   UNL     1      -3.603  10.350  13.561  0.00  0.00    +0.000 HD
ENDBRANCH   8  21
BRANCH  16  23
ATOM     23  O   UNL     1      -4.444  14.627  24.586  0.00  0.00    +0.000 OA
ATOM     24  H   UNL     1      -3.719  14.313  25.151  0.00  0.00    +0.000 HD
ENDBRANCH  16  23
TORSDOF 3
ENDMDL
