MODEL 1
REMARK VINA RESULT:      -7.7      0.000      0.000
REMARK  Name = 
REMARK  5 active torsions:
REMARK  status: ('A' for Active; 'I' for Inactive)
REMARK    1  A    between atoms: C_3  and  C_4
REMARK    2  A    between atoms: C_6  and  C_7
REMARK    3  A    between atoms: C_7  and  C_8
REMARK    4  A    between atoms: C_28  and  C_29
REMARK    5  A    between atoms: C_34  and  O_35
REMARK                            x       y       z     vdW  Elec       q    Type
REMARK                         _______ _______ _______ _____ _____    ______ ____
ROOT
ATOM      1  C   UNL     1       1.217  14.687  18.826  0.00  0.00    +0.000 C 
ATOM      2  C   UNL     1       0.644  13.519  18.464  0.00  0.00    +0.000 C 
ATOM      3  C   UNL     1       1.551  12.328  18.149  0.00  0.00    +0.000 C 
ATOM      4  C   UNL     1       3.110  12.589  18.058  0.00  0.00    +0.000 C 
ATOM      5  C   UNL     1       1.291  11.372  19.295  0.00  0.00    +0.000 C 
ATOM      6  C   UNL     1       1.806   9.920  19.171  0.00  0.00    +0.000 C 
ATOM      7  N   UNL     1       0.763   9.174  19.813  0.00  0.00    +0.000 N 
ATOM      8  C   UNL     1      -0.317   9.893  20.316  0.00  0.00    +0.000 C 
ATOM      9  O   UNL     1      -1.258   9.339  20.861  0.00  0.00    +0.000 OA
ATOM     10  C   UNL     1      -0.114  11.417  20.160  0.00  0.00    +0.000 C 
ATOM     11  O   UNL     1       0.484  12.065  21.357  0.00  0.00    +0.000 OA
ATOM     12  C   UNL     1      -0.288  12.204  22.460  0.00  0.00    +0.000 C 
ATOM     13  O   UNL     1      -0.697  11.309  23.173  0.00  0.00    +0.000 OA
ATOM     14  C   UNL     1      -0.612  13.642  22.603  0.00  0.00    +0.000 C 
ATOM     15  C   UNL     1      -1.917  13.854  22.806  0.00  0.00    +0.000 C 
ATOM     16  C   UNL     1      -2.649  15.132  22.587  0.00  0.00    +0.000 C 
ATOM     17  C   UNL     1      -3.670  15.188  23.691  0.00  0.00    +0.000 C 
ATOM     18  O   UNL     1      -3.406  14.837  24.843  0.00  0.00    +0.000 OA
ATOM     19  C   UNL     1      -5.031  15.698  23.339  0.00  0.00    +0.000 C 
ATOM     20  C   UNL     1      -6.037  14.705  23.875  0.00  0.00    +0.000 C 
ATOM     21  C   UNL     1      -6.695  13.893  22.734  0.00  0.00    +0.000 C 
ATOM     22  C   UNL     1      -7.810  14.825  22.156  0.00  0.00    +0.000 C 
ATOM     23  C   UNL     1      -5.706  12.855  21.721  0.00  0.00    +0.000 C 
ATOM     24  C   UNL     1      -4.304  13.025  20.681  0.00  0.00    +0.000 C 
ATOM     25  C   UNL     1      -3.136  12.229  20.461  0.00  0.00    +0.000 C 
ATOM     26  C   UNL     1      -1.473  12.398  19.729  0.00  0.00    +0.000 C 
ATOM     27  C   UNL     1      -0.934  13.264  18.477  0.00  0.00    +0.000 C 
ATOM     28  H   UNL     1       0.880   8.209  20.098  0.00  0.00    +0.000 HD
ENDROOT
BRANCH  27  29
ATOM     29  O   UNL     1      -1.341  12.678  17.251  0.00  0.00    +0.000 OA
ATOM     30  H   UNL     1      -0.645  12.774  16.583  0.00  0.00    +0.000 HD
ENDBRANCH  27  29
BRANCH   6  31
ATOM     31  C   UNL     1       2.385   9.285  17.847  0.00  0.00    +0.000 C 
BRANCH  31  32
ATOM     32  C   UNL     1       2.880   7.857  17.828  0.00  0.00    +0.000 A 
ATOM     33  C   UNL     1       2.095   6.783  18.292  0.00  0.00    +0.000 A 
ATOM     34  C   UNL     1       2.584   5.470  18.242  0.00  0.00    +0.000 A 
ATOM     35  C   UNL     1       3.845   5.215  17.712  0.00  0.00    +0.000 A 
ATOM     36  C   UNL     1       4.593   6.260  17.183  0.00  0.00    +0.000 A 
ATOM     37  C   UNL     1       4.102   7.563  17.222  0.00  0.00    +0.000 A 
ENDBRANCH  31  32
ENDBRANCH   6  31
TORSDOF 3
ENDMDL
MODEL 2
REMARK VINA RESULT:      -7.0      5.600      7.060
REMARK  Name = 
REMARK  5 active torsions:
REMARK  status: ('A' for Active; 'I' for Inactive)
REMARK    1  A    between atoms: C_3  and  C_4
REMARK    2  A    between atoms: C_6  and  C_7
REMARK    3  A    between atoms: C_7  and  C_8
REMARK    4  A    between atoms: C_28  and  C_29
REMARK    5  A    between atoms: C_34  and  O_35
REMARK                            x       y       z     vdW  Elec       q    Type
REMARK                         _______ _______ _______ _____ _____    ______ ____
ROOT
ATOM      1  C   UNL     1       6.711  17.993  20.302  0.00  0.00    +0.000 C 
ATOM      2  C   UNL     1       6.709  16.647  20.200  0.00  0.00    +0.000 C 
ATOM      3  C   UNL     1       7.999  15.889  20.516  0.00  0.00    +0.000 C 
ATOM      4  C   UNL     1       9.319  16.736  20.737  0.00  0.00    +0.000 C 
ATOM      5  C   UNL     1       7.677  15.161  21.805  0.00  0.00    +0.000 C 
ATOM      6  C   UNL     1       8.639  14.050  22.282  0.00  0.00    +0.000 C 
ATOM      7  N   UNL     1       7.736  13.090  22.848  0.00  0.00    +0.000 N 
ATOM      8  C   UNL     1       6.379  13.394  22.811  0.00  0.00    +0.000 C 
ATOM      9  O   UNL     1       5.538  12.628  23.253  0.00  0.00    +0.000 OA
ATOM     10  C   UNL     1       6.123  14.805  22.233  0.00  0.00    +0.000 C 
ATOM     11  O   UNL     1       6.021  15.865  23.271  0.00  0.00    +0.000 OA
ATOM     12  C   UNL     1       4.911  15.897  24.044  0.00  0.00    +0.000 C 
ATOM     13  O   UNL     1       4.589  15.076  24.880  0.00  0.00    +0.000 OA
ATOM     14  C   UNL     1       4.114  17.076  23.637  0.00  0.00    +0.000 C 
ATOM     15  C   UNL     1       2.827  16.777  23.431  0.00  0.00    +0.000 C 
ATOM     16  C   UNL     1       1.848  17.577  22.643  0.00  0.00    +0.000 C 
ATOM     17  C   UNL     1       0.546  17.434  23.381  0.00  0.00    +0.000 C 
ATOM     18  O   UNL     1       0.487  17.459  24.613  0.00  0.00    +0.000 OA
ATOM     19  C   UNL     1      -0.692  17.267  22.559  0.00  0.00    +0.000 C 
ATOM     20  C   UNL     1      -1.446  16.080  23.116  0.00  0.00    +0.000 C 
ATOM     21  C   UNL     1      -1.364  14.860  22.168  0.00  0.00    +0.000 C 
ATOM     22  C   UNL     1      -2.442  15.123  21.065  0.00  0.00    +0.000 C 
ATOM     23  C   UNL     1       0.194  14.133  21.816  0.00  0.00    +0.000 C 
ATOM     24  C   UNL     1       1.737  14.644  21.159  0.00  0.00    +0.000 C 
ATOM     25  C   UNL     1       3.097  14.364  21.501  0.00  0.00    +0.000 C 
ATOM     26  C   UNL     1       4.763  15.042  21.190  0.00  0.00    +0.000 C 
ATOM     27  C   UNL     1       5.397  15.782  19.902  0.00  0.00    +0.000 C 
ATOM     28  H   UNL     1       8.049  12.333  23.445  0.00  0.00    +0.000 HD
ENDROOT
BRANCH  27  29
ATOM     29  O   UNL     1       5.657  14.849  18.866  0.00  0.00    +0.000 OA
ATOM     30  H   UNL     1       6.534  15.005  18.483  0.00  0.00    +0.000 HD
ENDBRANCH  27  29
BRANCH   6  31
ATOM     31  C   UNL     1       9.817  13.453  21.415  0.00  0.00    +0.000 C 
BRANCH  31  32
ATOM     32  C   UNL     1       9.531  12.501  20.277  0.00  0.00    +0.000 A 
ATOM     33  C   UNL     1       9.327  12.947  18.956  0.00  0.00    +0.000 A 
ATOM     34  C   UNL     1       9.080  12.030  17.924  0.00  0.00    +0.000 A 
ATOM     35  C   UNL     1       9.057  10.665  18.195  0.00  0.00    +0.000 A 
ATOM     36  C   UNL     1       9.332  10.214  19.481  0.00  0.00    +0.000 A 
ATOM     37  C   UNL     1       9.589  11.125  20.503  0.00  0.00    +0.000 A 
ENDBRANCH  31  32
ENDBRANCH   6  31
TORSDOF 3
ENDMDL
MODEL 3
REMARK VINA RESULT:      -6.9      4.478      9.046
REMARK  Name = 
REMARK  5 active torsions:
REMARK  status: ('A' for Active; 'I' for Inactive)
REMARK    1  A    between atoms: C_3  and  C_4
REMARK    2  A    between atoms: C_6  and  C_7
REMARK    3  A    between atoms: C_7  and  C_8
REMARK    4  A    between atoms: C_28  and  C_29
REMARK    5  A    between atoms: C_34  and  O_35
REMARK                            x       y       z     vdW  Elec       q    Type
REMARK                         _______ _______ _______ _____ _____    ______ ____
ROOT
ATOM      1  C   UNL     1       0.620  17.653  21.069  0.00  0.00    +0.000 C 
ATOM      2  C   UNL     1       0.714  16.307  21.117  0.00  0.00    +0.000 C 
ATOM      3  C   UNL     1      -0.387  15.474  20.459  0.00  0.00    +0.000 C 
ATOM      4  C   UNL     1      -1.679  16.231  19.944  0.00  0.00    +0.000 C 
ATOM      5  C   UNL     1       0.307  14.847  19.267  0.00  0.00    +0.000 C 
ATOM      6  C   UNL     1      -0.407  13.696  18.523  0.00  0.00    +0.000 C 
ATOM      7  N   UNL     1       0.689  12.841  18.167  0.00  0.00    +0.000 N 
ATOM      8  C   UNL     1       1.962  13.243  18.556  0.00  0.00    +0.000 C 
ATOM      9  O   UNL     1       2.950  12.568  18.313  0.00  0.00    +0.000 OA
ATOM     10  C   UNL     1       1.944  14.633  19.232  0.00  0.00    +0.000 C 
ATOM     11  O   UNL     1       2.207  15.756  18.293  0.00  0.00    +0.000 OA
ATOM     12  C   UNL     1       3.468  15.915  17.826  0.00  0.00    +0.000 C 
ATOM     13  O   UNL     1       4.057  15.170  17.069  0.00  0.00    +0.000 OA
ATOM     14  C   UNL     1       4.033  17.125  18.465  0.00  0.00    +0.000 C 
ATOM     15  C   UNL     1       5.250  16.912  18.977  0.00  0.00    +0.000 C 
ATOM     16  C   UNL     1       5.929  17.736  20.015  0.00  0.00    +0.000 C 
ATOM     17  C   UNL     1       7.381  17.734  19.624  0.00  0.00    +0.000 C 
ATOM     18  O   UNL     1       7.741  17.834  18.449  0.00  0.00    +0.000 OA
ATOM     19  C   UNL     1       8.386  17.613  20.726  0.00  0.00    +0.000 C 
ATOM     20  C   UNL     1       9.354  16.520  20.333  0.00  0.00    +0.000 C 
ATOM     21  C   UNL     1       9.146  15.245  21.184  0.00  0.00    +0.000 C 
ATOM     22  C   UNL     1       9.890  15.524  22.532  0.00  0.00    +0.000 C 
ATOM     23  C   UNL     1       7.619  14.384  21.105  0.00  0.00    +0.000 C 
ATOM     24  C   UNL     1       5.922  14.740  21.370  0.00  0.00    +0.000 C 
ATOM     25  C   UNL     1       4.719  14.379  20.687  0.00  0.00    +0.000 C 
ATOM     26  C   UNL     1       2.976  14.911  20.592  0.00  0.00    +0.000 C 
ATOM     27  C   UNL     1       1.980  15.527  21.705  0.00  0.00    +0.000 C 
ATOM     28  H   UNL     1       0.600  12.098  17.484  0.00  0.00    +0.000 HD
ENDROOT
BRANCH  27  29
ATOM     29  O   UNL     1       1.554  14.518  22.606  0.00  0.00    +0.000 OA
ATOM     30  H   UNL     1       2.293  14.227  23.162  0.00  0.00    +0.000 HD
ENDBRANCH  27  29
BRANCH   6  31
ATOM     31  C   UNL     1      -1.706  12.964  19.041  0.00  0.00    +0.000 C 
BRANCH  31  32
ATOM     32  C   UNL     1      -1.813  12.510  20.479  0.00  0.00    +0.000 A 
ATOM     33  C   UNL     1      -0.780  11.801  21.124  0.00  0.00    +0.000 A 
ATOM     34  C   UNL     1      -0.912  11.412  22.464  0.00  0.00    +0.000 A 
ATOM     35  C   UNL     1      -2.061  11.742  23.177  0.00  0.00    +0.000 A 
ATOM     36  C   UNL     1      -3.051  12.506  22.570  0.00  0.00    +0.000 A 
ATOM     37  C   UNL     1      -2.914  12.903  21.241  0.00  0.00    +0.000 A 
ENDBRANCH  31  32
ENDBRANCH   6  31
TORSDOF 3
ENDMDL
MODEL 4
REMARK VINA RESULT:      -6.9      4.181      9.527
REMARK  Name = 
REMARK  5 active torsions:
REMARK  status: ('A' for Active; 'I' for Inactive)
REMARK    1  A    between atoms: C_3  and  C_4
REMARK    2  A    between atoms: C_6  and  C_7
REMARK    3  A    between atoms: C_7  and  C_8
REMARK    4  A    between atoms: C_28  and  C_29
REMARK    5  A    between atoms: C_34  and  O_35
REMARK                            x       y       z     vdW  Elec       q    Type
REMARK                         _______ _______ _______ _____ _____    ______ ____
ROOT
ATOM      1  C   UNL     1       1.208  18.323  18.769  0.00  0.00    +0.000 C 
ATOM      2  C   UNL     1       0.941  17.562  19.853  0.00  0.00    +0.000 C 
ATOM      3  C   UNL     1      -0.470  16.996  20.018  0.00  0.00    +0.000 C 
ATOM      4  C   UNL     1      -1.592  17.505  19.024  0.00  0.00    +0.000 C 
ATOM      5  C   UNL     1      -0.282  15.508  19.805  0.00  0.00    +0.000 C 
ATOM      6  C   UNL     1      -1.439  14.559  20.188  0.00  0.00    +0.000 C 
ATOM      7  N   UNL     1      -0.738  13.418  20.702  0.00  0.00    +0.000 N 
ATOM      8  C   UNL     1       0.652  13.478  20.715  0.00  0.00    +0.000 C 
ATOM      9  O   UNL     1       1.329  12.562  21.151  0.00  0.00    +0.000 OA
ATOM     10  C   UNL     1       1.176  14.774  20.054  0.00  0.00    +0.000 C 
ATOM     11  O   UNL     1       1.499  14.620  18.612  0.00  0.00    +0.000 OA
ATOM     12  C   UNL     1       2.604  13.912  18.278  0.00  0.00    +0.000 C 
ATOM     13  O   UNL     1       2.767  12.717  18.421  0.00  0.00    +0.000 OA
ATOM     14  C   UNL     1       3.614  14.870  17.772  0.00  0.00    +0.000 C 
ATOM     15  C   UNL     1       4.813  14.693  18.336  0.00  0.00    +0.000 C 
ATOM     16  C   UNL     1       5.921  15.687  18.389  0.00  0.00    +0.000 C 
ATOM     17  C   UNL     1       7.178  14.876  18.239  0.00  0.00    +0.000 C 
ATOM     18  O   UNL     1       7.257  13.931  17.450  0.00  0.00    +0.000 OA
ATOM     19  C   UNL     1       8.348  15.264  19.087  0.00  0.00    +0.000 C 
ATOM     20  C   UNL     1       8.858  14.007  19.754  0.00  0.00    +0.000 C 
ATOM     21  C   UNL     1       8.523  13.991  21.265  0.00  0.00    +0.000 C 
ATOM     22  C   UNL     1       9.618  14.883  21.938  0.00  0.00    +0.000 C 
ATOM     23  C   UNL     1       6.847  13.991  21.786  0.00  0.00    +0.000 C 
ATOM     24  C   UNL     1       5.428  14.997  21.565  0.00  0.00    +0.000 C 
ATOM     25  C   UNL     1       4.044  14.716  21.342  0.00  0.00    +0.000 C 
ATOM     26  C   UNL     1       2.542  15.572  20.756  0.00  0.00    +0.000 C 
ATOM     27  C   UNL     1       2.051  17.103  20.909  0.00  0.00    +0.000 C 
ATOM     28  H   UNL     1      -1.187  12.521  20.846  0.00  0.00    +0.000 HD
ENDROOT
BRANCH  27  29
ATOM     29  O   UNL     1       1.598  17.353  22.229  0.00  0.00    +0.000 OA
ATOM     30  H   UNL     1       1.204  18.236  22.289  0.00  0.00    +0.000 HD
ENDBRANCH  27  29
BRANCH   6  31
ATOM     31  C   UNL     1      -2.723  14.994  20.998  0.00  0.00    +0.000 C 
BRANCH  31  32
ATOM     32  C   UNL     1      -2.735  14.945  22.509  0.00  0.00    +0.000 A 
ATOM     33  C   UNL     1      -3.474  13.984  23.226  0.00  0.00    +0.000 A 
ATOM     34  C   UNL     1      -3.446  13.962  24.627  0.00  0.00    +0.000 A 
ATOM     35  C   UNL     1      -2.666  14.881  25.323  0.00  0.00    +0.000 A 
ATOM     36  C   UNL     1      -1.876  15.784  24.621  0.00  0.00    +0.000 A 
ATOM     37  C   UNL     1      -1.895  15.798  23.228  0.00  0.00    +0.000 A 
ENDBRANCH  31  32
ENDBRANCH   6  31
TORSDOF 3
ENDMDL
MODEL 5
REMARK VINA RESULT:      -6.9      3.829      9.082
REMARK  Name = 
REMARK  5 active torsions:
REMARK  status: ('A' for Active; 'I' for Inactive)
REMARK    1  A    between atoms: C_3  and  C_4
REMARK    2  A    between atoms: C_6  and  C_7
REMARK    3  A    between atoms: C_7  and  C_8
REMARK    4  A    between atoms: C_28  and  C_29
REMARK    5  A    between atoms: C_34  and  O_35
REMARK                            x       y       z     vdW  Elec       q    Type
REMARK                         _______ _______ _______ _____ _____    ______ ____
ROOT
ATOM      1  C   UNL     1       0.332  17.725  20.137  0.00  0.00    +0.000 C 
ATOM      2  C   UNL     1       0.278  16.721  21.038  0.00  0.00    +0.000 C 
ATOM      3  C   UNL     1      -1.014  15.911  21.151  0.00  0.00    +0.000 C 
ATOM      4  C   UNL     1      -2.283  16.429  20.360  0.00  0.00    +0.000 C 
ATOM      5  C   UNL     1      -0.631  14.551  20.603  0.00  0.00    +0.000 C 
ATOM      6  C   UNL     1      -1.598  13.368  20.830  0.00  0.00    +0.000 C 
ATOM      7  N   UNL     1      -0.694  12.274  21.038  0.00  0.00    +0.000 N 
ATOM      8  C   UNL     1       0.668  12.555  20.986  0.00  0.00    +0.000 C 
ATOM      9  O   UNL     1       1.508  11.690  21.169  0.00  0.00    +0.000 OA
ATOM     10  C   UNL     1       0.935  14.029  20.602  0.00  0.00    +0.000 C 
ATOM     11  O   UNL     1       1.146  14.236  19.145  0.00  0.00    +0.000 OA
ATOM     12  C   UNL     1       2.308  13.804  18.601  0.00  0.00    +0.000 C 
ATOM     13  O   UNL     1       2.657  12.647  18.466  0.00  0.00    +0.000 OA
ATOM     14  C   UNL     1       3.117  14.997  18.265  0.00  0.00    +0.000 C 
ATOM     15  C   UNL     1       4.376  14.902  18.708  0.00  0.00    +0.000 C 
ATOM     16  C   UNL     1       5.326  16.030  18.918  0.00  0.00    +0.000 C 
ATOM     17  C   UNL     1       6.670  15.483  18.522  0.00  0.00    +0.000 C 
ATOM     18  O   UNL     1       6.815  14.752  17.540  0.00  0.00    +0.000 OA
ATOM     19  C   UNL     1       7.842  15.869  19.369  0.00  0.00    +0.000 C 
ATOM     20  C   UNL     1       8.588  14.599  19.710  0.00  0.00    +0.000 C 
ATOM     21  C   UNL     1       8.396  14.211  21.196  0.00  0.00    +0.000 C 
ATOM     22  C   UNL     1       9.405  15.106  21.988  0.00  0.00    +0.000 C 
ATOM     23  C   UNL     1       6.792  13.829  21.796  0.00  0.00    +0.000 C 
ATOM     24  C   UNL     1       5.228  14.615  21.885  0.00  0.00    +0.000 C 
ATOM     25  C   UNL     1       3.885  14.166  21.681  0.00  0.00    +0.000 C 
ATOM     26  C   UNL     1       2.227  14.871  21.385  0.00  0.00    +0.000 C 
ATOM     27  C   UNL     1       1.533  16.235  21.902  0.00  0.00    +0.000 C 
ATOM     28  H   UNL     1      -0.993  11.306  21.004  0.00  0.00    +0.000 HD
ENDROOT
BRANCH  27  29
ATOM     29  O   UNL     1       1.169  16.125  23.268  0.00  0.00    +0.000 OA
ATOM     30  H   UNL     1       1.869  16.484  23.834  0.00  0.00    +0.000 HD
ENDBRANCH  27  29
BRANCH   6  31
ATOM     31  C   UNL     1      -2.854  13.408  21.787  0.00  0.00    +0.000 C 
BRANCH  31  32
ATOM     32  C   UNL     1      -4.206  12.934  21.306  0.00  0.00    +0.000 A 
ATOM     33  C   UNL     1      -5.344  12.941  22.135  0.00  0.00    +0.000 A 
ATOM     34  C   UNL     1      -6.585  12.508  21.646  0.00  0.00    +0.000 A 
ATOM     35  C   UNL     1      -6.705  12.087  20.324  0.00  0.00    +0.000 A 
ATOM     36  C   UNL     1      -5.603  12.150  19.479  0.00  0.00    +0.000 A 
ATOM     37  C   UNL     1      -4.373  12.591  19.963  0.00  0.00    +0.000 A 
ENDBRANCH  31  32
ENDBRANCH   6  31
TORSDOF 3
ENDMDL
MODEL 6
REMARK VINA RESULT:      -6.8      4.108      9.466
REMARK  Name = 
REMARK  5 active torsions:
REMARK  status: ('A' for Active; 'I' for Inactive)
REMARK    1  A    between atoms: C_3  and  C_4
REMARK    2  A    between atoms: C_6  and  C_7
REMARK    3  A    between atoms: C_7  and  C_8
REMARK    4  A    between atoms: C_28  and  C_29
REMARK    5  A    between atoms: C_34  and  O_35
REMARK                            x       y       z     vdW  Elec       q    Type
REMARK                         _______ _______ _______ _____ _____    ______ ____
ROOT
ATOM      1  C   UNL     1       1.248  18.301  18.605  0.00  0.00    +0.000 C 
ATOM      2  C   UNL     1       0.987  17.606  19.734  0.00  0.00    +0.000 C 
ATOM      3  C   UNL     1      -0.430  17.074  19.952  0.00  0.00    +0.000 C 
ATOM      4  C   UNL     1      -1.560  17.547  18.949  0.00  0.00    +0.000 C 
ATOM      5  C   UNL     1      -0.270  15.574  19.820  0.00  0.00    +0.000 C 
ATOM      6  C   UNL     1      -1.436  14.667  20.274  0.00  0.00    +0.000 C 
ATOM      7  N   UNL     1      -0.745  13.545  20.839  0.00  0.00    +0.000 N 
ATOM      8  C   UNL     1       0.646  13.582  20.826  0.00  0.00    +0.000 C 
ATOM      9  O   UNL     1       1.315  12.680  21.302  0.00  0.00    +0.000 OA
ATOM     10  C   UNL     1       1.180  14.830  20.087  0.00  0.00    +0.000 C 
ATOM     11  O   UNL     1       1.476  14.590  18.650  0.00  0.00    +0.000 OA
ATOM     12  C   UNL     1       2.564  13.847  18.338  0.00  0.00    +0.000 C 
ATOM     13  O   UNL     1       2.710  12.658  18.546  0.00  0.00    +0.000 OA
ATOM     14  C   UNL     1       3.580  14.757  17.764  0.00  0.00    +0.000 C 
ATOM     15  C   UNL     1       4.786  14.591  18.319  0.00  0.00    +0.000 C 
ATOM     16  C   UNL     1       5.910  15.568  18.298  0.00  0.00    +0.000 C 
ATOM     17  C   UNL     1       7.152  14.728  18.174  0.00  0.00    +0.000 C 
ATOM     18  O   UNL     1       7.202  13.740  17.438  0.00  0.00    +0.000 OA
ATOM     19  C   UNL     1       8.341  15.143  18.981  0.00  0.00    +0.000 C 
ATOM     20  C   UNL     1       8.842  13.916  19.709  0.00  0.00    +0.000 C 
ATOM     21  C   UNL     1       8.532  13.989  21.223  0.00  0.00    +0.000 C 
ATOM     22  C   UNL     1       9.652  14.898  21.829  0.00  0.00    +0.000 C 
ATOM     23  C   UNL     1       6.865  14.047  21.770  0.00  0.00    +0.000 C 
ATOM     24  C   UNL     1       5.460  15.063  21.516  0.00  0.00    +0.000 C 
ATOM     25  C   UNL     1       4.067  14.794  21.330  0.00  0.00    +0.000 C 
ATOM     26  C   UNL     1       2.570  15.642  20.721  0.00  0.00    +0.000 C 
ATOM     27  C   UNL     1       2.107  17.187  20.796  0.00  0.00    +0.000 C 
ATOM     28  H   UNL     1      -1.206  12.666  21.040  0.00  0.00    +0.000 HD
ENDROOT
BRANCH  27  29
ATOM     29  O   UNL     1       1.680  17.518  22.107  0.00  0.00    +0.000 OA
ATOM     30  H   UNL     1       0.782  17.885  22.088  0.00  0.00    +0.000 HD
ENDBRANCH  27  29
BRANCH   6  31
ATOM     31  C   UNL     1      -2.699  15.169  21.078  0.00  0.00    +0.000 C 
BRANCH  31  32
ATOM     32  C   UNL     1      -3.154  14.449  22.327  0.00  0.00    +0.000 A 
ATOM     33  C   UNL     1      -2.776  14.869  23.618  0.00  0.00    +0.000 A 
ATOM     34  C   UNL     1      -3.233  14.184  24.753  0.00  0.00    +0.000 A 
ATOM     35  C   UNL     1      -4.083  13.091  24.612  0.00  0.00    +0.000 A 
ATOM     36  C   UNL     1      -4.520  12.718  23.346  0.00  0.00    +0.000 A 
ATOM     37  C   UNL     1      -4.076  13.406  22.220  0.00  0.00    +0.000 A 
ENDBRANCH  31  32
ENDBRANCH   6  31
TORSDOF 3
ENDMDL
MODEL 7
REMARK VINA RESULT:      -6.7      5.858      7.508
REMARK  Name = 
REMARK  5 active torsions:
REMARK  status: ('A' for Active; 'I' for Inactive)
REMARK    1  A    between atoms: C_3  and  C_4
REMARK    2  A    between atoms: C_6  and  C_7
REMARK    3  A    between atoms: C_7  and  C_8
REMARK    4  A    between atoms: C_28  and  C_29
REMARK    5  A    between atoms: C_34  and  O_35
REMARK                            x       y       z     vdW  Elec       q    Type
REMARK                         _______ _______ _______ _____ _____    ______ ____
ROOT
ATOM      1  C   UNL     1       6.434  18.218  20.088  0.00  0.00    +0.000 C 
ATOM      2  C   UNL     1       6.737  16.911  19.942  0.00  0.00    +0.000 C 
ATOM      3  C   UNL     1       8.150  16.445  20.295  0.00  0.00    +0.000 C 
ATOM      4  C   UNL     1       9.237  17.553  20.609  0.00  0.00    +0.000 C 
ATOM      5  C   UNL     1       7.947  15.607  21.540  0.00  0.00    +0.000 C 
ATOM      6  C   UNL     1       9.113  14.717  22.026  0.00  0.00    +0.000 C 
ATOM      7  N   UNL     1       8.425  13.557  22.514  0.00  0.00    +0.000 N 
ATOM      8  C   UNL     1       7.037  13.554  22.421  0.00  0.00    +0.000 C 
ATOM      9  O   UNL     1       6.372  12.601  22.794  0.00  0.00    +0.000 OA
ATOM     10  C   UNL     1       6.496  14.896  21.879  0.00  0.00    +0.000 C 
ATOM     11  O   UNL     1       6.118  15.860  22.945  0.00  0.00    +0.000 OA
ATOM     12  C   UNL     1       4.997  15.611  23.664  0.00  0.00    +0.000 C 
ATOM     13  O   UNL     1       4.833  14.703  24.454  0.00  0.00    +0.000 OA
ATOM     14  C   UNL     1       3.975  16.601  23.258  0.00  0.00    +0.000 C 
ATOM     15  C   UNL     1       2.796  16.033  22.979  0.00  0.00    +0.000 C 
ATOM     16  C   UNL     1       1.697  16.630  22.170  0.00  0.00    +0.000 C 
ATOM     17  C   UNL     1       0.430  16.170  22.838  0.00  0.00    +0.000 C 
ATOM     18  O   UNL     1       0.317  16.126  24.066  0.00  0.00    +0.000 OA
ATOM     19  C   UNL     1      -0.705  15.768  21.950  0.00  0.00    +0.000 C 
ATOM     20  C   UNL     1      -1.196  14.421  22.429  0.00  0.00    +0.000 C 
ATOM     21  C   UNL     1      -0.805  13.292  21.445  0.00  0.00    +0.000 C 
ATOM     22  C   UNL     1      -1.869  13.358  20.300  0.00  0.00    +0.000 C 
ATOM     23  C   UNL     1       0.889  12.945  21.146  0.00  0.00    +0.000 C 
ATOM     24  C   UNL     1       2.304  13.815  20.584  0.00  0.00    +0.000 C 
ATOM     25  C   UNL     1       3.678  13.828  20.983  0.00  0.00    +0.000 C 
ATOM     26  C   UNL     1       5.161  14.872  20.778  0.00  0.00    +0.000 C 
ATOM     27  C   UNL     1       5.665  15.790  19.549  0.00  0.00    +0.000 C 
ATOM     28  H   UNL     1       8.875  12.863  23.099  0.00  0.00    +0.000 HD
ENDROOT
BRANCH  27  29
ATOM     29  O   UNL     1       6.169  14.984  18.497  0.00  0.00    +0.000 OA
ATOM     30  H   UNL     1       5.625  15.089  17.701  0.00  0.00    +0.000 HD
ENDBRANCH  27  29
BRANCH   6  31
ATOM     31  C   UNL     1      10.429  14.435  21.199  0.00  0.00    +0.000 C 
BRANCH  31  32
ATOM     32  C   UNL     1      10.440  13.400  20.098  0.00  0.00    +0.000 A 
ATOM     33  C   UNL     1      10.833  12.066  20.324  0.00  0.00    +0.000 A 
ATOM     34  C   UNL     1      10.815  11.131  19.279  0.00  0.00    +0.000 A 
ATOM     35  C   UNL     1      10.385  11.511  18.011  0.00  0.00    +0.000 A 
ATOM     36  C   UNL     1       9.924  12.806  17.800  0.00  0.00    +0.000 A 
ATOM     37  C   UNL     1       9.932  13.731  18.841  0.00  0.00    +0.000 A 
ENDBRANCH  31  32
ENDBRANCH   6  31
TORSDOF 3
ENDMDL
MODEL 8
REMARK VINA RESULT:      -6.7      4.006      9.411
REMARK  Name = 
REMARK  5 active torsions:
REMARK  status: ('A' for Active; 'I' for Inactive)
REMARK    1  A    between atoms: C_3  and  C_4
REMARK    2  A    between atoms: C_6  and  C_7
REMARK    3  A    between atoms: C_7  and  C_8
REMARK    4  A    between atoms: C_28  and  C_29
REMARK    5  A    between atoms: C_34  and  O_35
REMARK                            x       y       z     vdW  Elec       q    Type
REMARK                         _______ _______ _______ _____ _____    ______ ____
ROOT
ATOM      1  C   UNL     1       1.080  18.268  18.709  0.00  0.00    +0.000 C 
ATOM      2  C   UNL     1       0.850  17.562  19.836  0.00  0.00    +0.000 C 
ATOM      3  C   UNL     1      -0.555  17.006  20.075  0.00  0.00    +0.000 C 
ATOM      4  C   UNL     1      -1.709  17.469  19.095  0.00  0.00    +0.000 C 
ATOM      5  C   UNL     1      -0.374  15.509  19.928  0.00  0.00    +0.000 C 
ATOM      6  C   UNL     1      -1.518  14.582  20.395  0.00  0.00    +0.000 C 
ATOM      7  N   UNL     1      -0.800  13.466  20.940  0.00  0.00    +0.000 N 
ATOM      8  C   UNL     1       0.589  13.525  20.903  0.00  0.00    +0.000 C 
ATOM      9  O   UNL     1       1.281  12.630  21.361  0.00  0.00    +0.000 OA
ATOM     10  C   UNL     1       1.091  14.786  20.164  0.00  0.00    +0.000 C 
ATOM     11  O   UNL     1       1.366  14.562  18.721  0.00  0.00    +0.000 OA
ATOM     12  C   UNL     1       2.459  13.837  18.385  0.00  0.00    +0.000 C 
ATOM     13  O   UNL     1       2.627  12.650  18.581  0.00  0.00    +0.000 OA
ATOM     14  C   UNL     1       3.451  14.767  17.800  0.00  0.00    +0.000 C 
ATOM     15  C   UNL     1       4.669  14.616  18.332  0.00  0.00    +0.000 C 
ATOM     16  C   UNL     1       5.777  15.610  18.299  0.00  0.00    +0.000 C 
ATOM     17  C   UNL     1       7.029  14.790  18.147  0.00  0.00    +0.000 C 
ATOM     18  O   UNL     1       7.082  13.809  17.403  0.00  0.00    +0.000 OA
ATOM     19  C   UNL     1       8.227  15.217  18.936  0.00  0.00    +0.000 C 
ATOM     20  C   UNL     1       8.759  13.993  19.646  0.00  0.00    +0.000 C 
ATOM     21  C   UNL     1       8.474  14.050  21.166  0.00  0.00    +0.000 C 
ATOM     22  C   UNL     1       9.591  14.972  21.758  0.00  0.00    +0.000 C 
ATOM     23  C   UNL     1       6.817  14.078  21.742  0.00  0.00    +0.000 C 
ATOM     24  C   UNL     1       5.391  15.075  21.520  0.00  0.00    +0.000 C 
ATOM     25  C   UNL     1       4.000  14.785  21.356  0.00  0.00    +0.000 C 
ATOM     26  C   UNL     1       2.480  15.615  20.780  0.00  0.00    +0.000 C 
ATOM     27  C   UNL     1       1.994  17.152  20.875  0.00  0.00    +0.000 C 
ATOM     28  H   UNL     1      -1.245  12.579  21.143  0.00  0.00    +0.000 HD
ENDROOT
BRANCH  27  29
ATOM     29  O   UNL     1       1.585  17.466  22.196  0.00  0.00    +0.000 OA
ATOM     30  H   UNL     1       1.102  18.307  22.209  0.00  0.00    +0.000 HD
ENDBRANCH  27  29
BRANCH   6  31
ATOM     31  C   UNL     1      -2.774  15.058  21.226  0.00  0.00    +0.000 C 
BRANCH  31  32
ATOM     32  C   UNL     1      -4.004  14.185  21.333  0.00  0.00    +0.000 A 
ATOM     33  C   UNL     1      -4.293  13.174  20.396  0.00  0.00    +0.000 A 
ATOM     34  C   UNL     1      -5.436  12.374  20.539  0.00  0.00    +0.000 A 
ATOM     35  C   UNL     1      -6.286  12.562  21.626  0.00  0.00    +0.000 A 
ATOM     36  C   UNL     1      -5.966  13.507  22.594  0.00  0.00    +0.000 A 
ATOM     37  C   UNL     1      -4.824  14.293  22.457  0.00  0.00    +0.000 A 
ENDBRANCH  31  32
ENDBRANCH   6  31
TORSDOF 3
ENDMDL
MODEL 9
REMARK VINA RESULT:      -6.7      4.754      6.738
REMARK  Name = 
REMARK  5 active torsions:
REMARK  status: ('A' for Active; 'I' for Inactive)
REMARK    1  A    between atoms: C_3  and  C_4
REMARK    2  A    between atoms: C_6  and  C_7
REMARK    3  A    between atoms: C_7  and  C_8
REMARK    4  A    between atoms: C_28  and  C_29
REMARK    5  A    between atoms: C_34  and  O_35
REMARK                            x       y       z     vdW  Elec       q    Type
REMARK                         _______ _______ _______ _____ _____    ______ ____
ROOT
ATOM      1  C   UNL     1       4.826  14.970  23.028  0.00  0.00    +0.000 C 
ATOM      2  C   UNL     1       4.970  15.722  21.916  0.00  0.00    +0.000 C 
ATOM      3  C   UNL     1       6.158  15.441  20.994  0.00  0.00    +0.000 C 
ATOM      4  C   UNL     1       7.266  14.431  21.502  0.00  0.00    +0.000 C 
ATOM      5  C   UNL     1       5.513  14.860  19.752  0.00  0.00    +0.000 C 
ATOM      6  C   UNL     1       6.370  14.726  18.474  0.00  0.00    +0.000 C 
ATOM      7  N   UNL     1       5.421  15.026  17.441  0.00  0.00    +0.000 N 
ATOM      8  C   UNL     1       4.122  15.326  17.838  0.00  0.00    +0.000 C 
ATOM      9  O   UNL     1       3.254  15.611  17.029  0.00  0.00    +0.000 OA
ATOM     10  C   UNL     1       3.939  15.173  19.365  0.00  0.00    +0.000 C 
ATOM     11  O   UNL     1       3.430  13.838  19.774  0.00  0.00    +0.000 OA
ATOM     12  C   UNL     1       2.136  13.541  19.513  0.00  0.00    +0.000 C 
ATOM     13  O   UNL     1       1.640  13.372  18.416  0.00  0.00    +0.000 OA
ATOM     14  C   UNL     1       1.408  13.533  20.802  0.00  0.00    +0.000 C 
ATOM     15  C   UNL     1       0.279  14.248  20.756  0.00  0.00    +0.000 C 
ATOM     16  C   UNL     1      -0.469  14.794  21.922  0.00  0.00    +0.000 C 
ATOM     17  C   UNL     1      -1.920  14.672  21.544  0.00  0.00    +0.000 C 
ATOM     18  O   UNL     1      -2.362  13.681  20.958  0.00  0.00    +0.000 OA
ATOM     19  C   UNL     1      -2.822  15.807  21.914  0.00  0.00    +0.000 C 
ATOM     20  C   UNL     1      -3.608  16.179  20.677  0.00  0.00    +0.000 C 
ATOM     21  C   UNL     1      -3.131  17.528  20.088  0.00  0.00    +0.000 C 
ATOM     22  C   UNL     1      -3.831  18.627  20.955  0.00  0.00    +0.000 C 
ATOM     23  C   UNL     1      -1.485  17.690  19.501  0.00  0.00    +0.000 C 
ATOM     24  C   UNL     1       0.137  17.488  20.137  0.00  0.00    +0.000 C 
ATOM     25  C   UNL     1       1.342  16.927  19.608  0.00  0.00    +0.000 C 
ATOM     26  C   UNL     1       2.958  16.324  20.205  0.00  0.00    +0.000 C 
ATOM     27  C   UNL     1       3.895  16.802  21.430  0.00  0.00    +0.000 C 
ATOM     28  H   UNL     1       5.596  14.821  16.464  0.00  0.00    +0.000 HD
ENDROOT
BRANCH  27  29
ATOM     29  O   UNL     1       4.543  18.024  21.116  0.00  0.00    +0.000 OA
ATOM     30  H   UNL     1       3.900  18.674  20.794  0.00  0.00    +0.000 HD
ENDBRANCH  27  29
BRANCH   6  31
ATOM     31  C   UNL     1       7.806  15.358  18.287  0.00  0.00    +0.000 C 
BRANCH  31  32
ATOM     32  C   UNL     1       8.993  14.488  17.946  0.00  0.00    +0.000 A 
ATOM     33  C   UNL     1      10.253  15.027  17.621  0.00  0.00    +0.000 A 
ATOM     34  C   UNL     1      11.335  14.185  17.327  0.00  0.00    +0.000 A 
ATOM     35  C   UNL     1      11.176  12.803  17.375  0.00  0.00    +0.000 A 
ATOM     36  C   UNL     1       9.957  12.264  17.769  0.00  0.00    +0.000 A 
ATOM     37  C   UNL     1       8.886  13.102  18.073  0.00  0.00    +0.000 A 
ENDBRANCH  31  32
ENDBRANCH   6  31
TORSDOF 3
ENDMDL
