MODEL 1
REMARK VINA RESULT:      -8.5      0.000      0.000
REMARK  Name = 
REMARK  4 active torsions:
REMARK  status: ('A' for Active; 'I' for Inactive)
REMARK    1  A    between atoms: C_2  and  O_3
REMARK    2  A    between atoms: O_3  and  C_4
REMARK    3  A    between atoms: C_8  and  N_9
REMARK    4  A    between atoms: C_19  and  C_20
REMARK                            x       y       z     vdW  Elec       q    Type
REMARK                         _______ _______ _______ _____ _____    ______ ____
ROOT
ATOM      1  O   UNL     1       0.655   8.445  21.765  0.00  0.00    +0.000 OA
ATOM      2  C   UNL     1       1.114   8.648  20.647  0.00  0.00    +0.000 C 
ATOM      3  N   UNL     1       1.755   7.683  19.890  0.00  0.00    +0.000 N 
ATOM      4  C   UNL     1       2.383   7.971  18.607  0.00  0.00    +0.000 C 
ATOM      5  C   UNL     1       2.192   6.805  17.648  0.00  0.00    +0.000 C 
ATOM      6  C   UNL     1       2.632   5.450  18.244  0.00  0.00    +0.000 C 
ATOM      7  C   UNL     1       2.040   5.261  19.656  0.00  0.00    +0.000 C 
ATOM      8  C   UNL     1       2.207   6.478  20.556  0.00  0.00    +0.000 C 
ENDROOT
BRANCH   6   9
ATOM      9  C   UNL     1       4.130   5.203  18.096  0.00  0.00    +0.000 A 
ATOM     10  C   UNL     1       5.056   5.373  19.138  0.00  0.00    +0.000 A 
ATOM     11  C   UNL     1       6.410   5.073  18.957  0.00  0.00    +0.000 A 
ATOM     12  C   UNL     1       6.849   4.592  17.733  0.00  0.00    +0.000 A 
ATOM     13  F   UNL     1       8.141   4.284  17.568  0.00  0.00    +0.000 F 
ATOM     14  C   UNL     1       5.961   4.408  16.683  0.00  0.00    +0.000 A 
ATOM     15  C   UNL     1       4.610   4.709  16.866  0.00  0.00    +0.000 A 
ENDBRANCH   6   9
BRANCH   2  16
ATOM     16  O   UNL     1       1.091   9.878  19.996  0.00  0.00    +0.000 OA
BRANCH  16  17
ATOM     17  C   UNL     1      -0.129  10.506  19.683  0.00  0.00    +0.000 A 
ATOM     18  C   UNL     1      -0.626  10.247  18.410  0.00  0.00    +0.000 A 
ATOM     19  C   UNL     1      -1.761  10.922  17.985  0.00  0.00    +0.000 A 
ATOM     20  C   UNL     1      -2.391  11.830  18.845  0.00  0.00    +0.000 A 
ATOM     21  C   UNL     1      -1.910  12.101  20.139  0.00  0.00    +0.000 A 
ATOM     22  C   UNL     1      -0.743  11.440  20.526  0.00  0.00    +0.000 A 
BRANCH  21  23
ATOM     23  N   UNL     1      -2.563  13.012  20.960  0.00  0.00    +0.000 N 
ATOM     24  C   UNL     1      -2.188  13.206  22.366  0.00  0.00    +0.000 C 
ATOM     25  C   UNL     1      -3.179  12.538  23.320  0.00  0.00    +0.000 C 
ATOM     26  C   UNL     1      -4.616  12.939  22.999  0.00  0.00    +0.000 C 
ATOM     27  C   UNL     1      -4.933  12.661  21.533  0.00  0.00    +0.000 C 
ATOM     28  C   UNL     1      -3.942  13.371  20.610  0.00  0.00    +0.000 C 
ENDBRANCH  21  23
ENDBRANCH  16  17
ENDBRANCH   2  16
TORSDOF 4
ENDMDL
MODEL 2
REMARK VINA RESULT:      -8.5      3.654      9.316
REMARK  Name = 
REMARK  4 active torsions:
REMARK  status: ('A' for Active; 'I' for Inactive)
REMARK    1  A    between atoms: C_2  and  O_3
REMARK    2  A    between atoms: O_3  and  C_4
REMARK    3  A    between atoms: C_8  and  N_9
REMARK    4  A    between atoms: C_19  and  C_20
REMARK                            x       y       z     vdW  Elec       q    Type
REMARK                         _______ _______ _______ _____ _____    ______ ____
ROOT
ATOM      1  O   UNL     1       1.798   7.999  20.724  0.00  0.00    +0.000 OA
ATOM      2  C   UNL     1       1.585   8.637  19.700  0.00  0.00    +0.000 C 
ATOM      3  N   UNL     1       0.635   9.639  19.600  0.00  0.00    +0.000 N 
ATOM      4  C   UNL     1       0.326  10.315  18.347  0.00  0.00    +0.000 C 
ATOM      5  C   UNL     1       0.033  11.787  18.595  0.00  0.00    +0.000 C 
ATOM      6  C   UNL     1      -1.037  12.018  19.685  0.00  0.00    +0.000 C 
ATOM      7  C   UNL     1      -0.724  11.176  20.939  0.00  0.00    +0.000 C 
ATOM      8  C   UNL     1      -0.381   9.724  20.630  0.00  0.00    +0.000 C 
ENDROOT
BRANCH   6   9
ATOM      9  C   UNL     1      -2.459  11.924  19.140  0.00  0.00    +0.000 A 
ATOM     10  C   UNL     1      -3.597  12.338  19.851  0.00  0.00    +0.000 A 
ATOM     11  C   UNL     1      -4.869  12.281  19.273  0.00  0.00    +0.000 A 
ATOM     12  C   UNL     1      -5.014  11.818  17.975  0.00  0.00    +0.000 A 
ATOM     13  F   UNL     1      -6.230  11.786  17.415  0.00  0.00    +0.000 F 
ATOM     14  C   UNL     1      -3.911  11.405  17.242  0.00  0.00    +0.000 A 
ATOM     15  C   UNL     1      -2.641  11.460  17.821  0.00  0.00    +0.000 A 
ENDBRANCH   6   9
BRANCH   2  16
ATOM     16  O   UNL     1       2.233   8.423  18.488  0.00  0.00    +0.000 OA
BRANCH  16  17
ATOM     17  C   UNL     1       2.910   7.215  18.234  0.00  0.00    +0.000 A 
ATOM     18  C   UNL     1       3.973   7.301  17.341  0.00  0.00    +0.000 A 
ATOM     19  C   UNL     1       4.614   6.135  16.949  0.00  0.00    +0.000 A 
ATOM     20  C   UNL     1       4.195   4.905  17.470  0.00  0.00    +0.000 A 
ATOM     21  C   UNL     1       3.127   4.796  18.381  0.00  0.00    +0.000 A 
ATOM     22  C   UNL     1       2.474   5.980  18.726  0.00  0.00    +0.000 A 
BRANCH  21  23
ATOM     23  N   UNL     1       2.741   3.555  18.872  0.00  0.00    +0.000 N 
ATOM     24  C   UNL     1       1.369   3.051  18.729  0.00  0.00    +0.000 C 
ATOM     25  C   UNL     1       0.584   3.151  20.038  0.00  0.00    +0.000 C 
ATOM     26  C   UNL     1       1.357   2.529  21.198  0.00  0.00    +0.000 C 
ATOM     27  C   UNL     1       2.750   3.143  21.300  0.00  0.00    +0.000 C 
ATOM     28  C   UNL     1       3.515   2.994  19.985  0.00  0.00    +0.000 C 
ENDBRANCH  21  23
ENDBRANCH  16  17
ENDBRANCH   2  16
TORSDOF 4
ENDMDL
MODEL 3
REMARK VINA RESULT:      -8.4      1.655      3.046
REMARK  Name = 
REMARK  4 active torsions:
REMARK  status: ('A' for Active; 'I' for Inactive)
REMARK    1  A    between atoms: C_2  and  O_3
REMARK    2  A    between atoms: O_3  and  C_4
REMARK    3  A    between atoms: C_8  and  N_9
REMARK    4  A    between atoms: C_19  and  C_20
REMARK                            x       y       z     vdW  Elec       q    Type
REMARK                         _______ _______ _______ _____ _____    ______ ____
ROOT
ATOM      1  O   UNL     1       0.671   8.316  21.945  0.00  0.00    +0.000 OA
ATOM      2  C   UNL     1       1.185   8.622  20.875  0.00  0.00    +0.000 C 
ATOM      3  N   UNL     1       1.806   7.717  20.032  0.00  0.00    +0.000 N 
ATOM      4  C   UNL     1       2.500   8.116  18.815  0.00  0.00    +0.000 C 
ATOM      5  C   UNL     1       2.290   7.082  17.718  0.00  0.00    +0.000 C 
ATOM      6  C   UNL     1       2.634   5.645  18.165  0.00  0.00    +0.000 C 
ATOM      7  C   UNL     1       1.975   5.326  19.524  0.00  0.00    +0.000 C 
ATOM      8  C   UNL     1       2.168   6.419  20.567  0.00  0.00    +0.000 C 
ENDROOT
BRANCH   6   9
ATOM      9  C   UNL     1       4.123   5.333  18.042  0.00  0.00    +0.000 A 
ATOM     10  C   UNL     1       5.025   5.391  19.117  0.00  0.00    +0.000 A 
ATOM     11  C   UNL     1       6.367   5.036  18.952  0.00  0.00    +0.000 A 
ATOM     12  C   UNL     1       6.819   4.612  17.712  0.00  0.00    +0.000 A 
ATOM     13  F   UNL     1       8.099   4.251  17.562  0.00  0.00    +0.000 F 
ATOM     14  C   UNL     1       5.955   4.540  16.629  0.00  0.00    +0.000 A 
ATOM     15  C   UNL     1       4.614   4.896  16.795  0.00  0.00    +0.000 A 
ENDBRANCH   6   9
BRANCH   2  16
ATOM     16  O   UNL     1       1.252   9.918  20.374  0.00  0.00    +0.000 OA
BRANCH  16  17
ATOM     17  C   UNL     1       0.091  10.585  19.940  0.00  0.00    +0.000 A 
ATOM     18  C   UNL     1      -0.176  11.794  20.573  0.00  0.00    +0.000 A 
ATOM     19  C   UNL     1      -1.362  12.453  20.285  0.00  0.00    +0.000 A 
ATOM     20  C   UNL     1      -2.253  11.902  19.355  0.00  0.00    +0.000 A 
ATOM     21  C   UNL     1      -1.998  10.685  18.696  0.00  0.00    +0.000 A 
ATOM     22  C   UNL     1      -0.818  10.023  19.036  0.00  0.00    +0.000 A 
BRANCH  21  23
ATOM     23  N   UNL     1      -2.911  10.172  17.782  0.00  0.00    +0.000 N 
ATOM     24  C   UNL     1      -2.491   9.605  16.494  0.00  0.00    +0.000 C 
ATOM     25  C   UNL     1      -2.764  10.561  15.332  0.00  0.00    +0.000 C 
ATOM     26  C   UNL     1      -4.206  11.061  15.351  0.00  0.00    +0.000 C 
ATOM     27  C   UNL     1      -4.540  11.674  16.707  0.00  0.00    +0.000 C 
ATOM     28  C   UNL     1      -4.286  10.679  17.839  0.00  0.00    +0.000 C 
ENDBRANCH  21  23
ENDBRANCH  16  17
ENDBRANCH   2  16
TORSDOF 4
ENDMDL
MODEL 4
REMARK VINA RESULT:      -8.4      4.024     10.044
REMARK  Name = 
REMARK  4 active torsions:
REMARK  status: ('A' for Active; 'I' for Inactive)
REMARK    1  A    between atoms: C_2  and  O_3
REMARK    2  A    between atoms: O_3  and  C_4
REMARK    3  A    between atoms: C_8  and  N_9
REMARK    4  A    between atoms: C_19  and  C_20
REMARK                            x       y       z     vdW  Elec       q    Type
REMARK                         _______ _______ _______ _____ _____    ______ ____
ROOT
ATOM      1  O   UNL     1       1.268  10.109  22.023  0.00  0.00    +0.000 OA
ATOM      2  C   UNL     1       0.384  10.417  21.233  0.00  0.00    +0.000 C 
ATOM      3  N   UNL     1      -0.653  11.282  21.537  0.00  0.00    +0.000 N 
ATOM      4  C   UNL     1      -1.750  11.556  20.618  0.00  0.00    +0.000 C 
ATOM      5  C   UNL     1      -2.173  13.015  20.714  0.00  0.00    +0.000 C 
ATOM      6  C   UNL     1      -2.471  13.467  22.161  0.00  0.00    +0.000 C 
ATOM      7  C   UNL     1      -1.333  13.034  23.109  0.00  0.00    +0.000 C 
ATOM      8  C   UNL     1      -0.909  11.582  22.931  0.00  0.00    +0.000 C 
ENDROOT
BRANCH   6   9
ATOM      9  C   UNL     1      -3.890  13.125  22.601  0.00  0.00    +0.000 A 
ATOM     10  C   UNL     1      -4.257  12.882  23.935  0.00  0.00    +0.000 A 
ATOM     11  C   UNL     1      -5.588  12.632  24.283  0.00  0.00    +0.000 A 
ATOM     12  C   UNL     1      -6.567  12.629  23.301  0.00  0.00    +0.000 A 
ATOM     13  F   UNL     1      -7.844  12.412  23.640  0.00  0.00    +0.000 F 
ATOM     14  C   UNL     1      -6.240  12.869  21.975  0.00  0.00    +0.000 A 
ATOM     15  C   UNL     1      -4.910  13.118  21.628  0.00  0.00    +0.000 A 
ENDBRANCH   6   9
BRANCH   2  16
ATOM     16  O   UNL     1       0.272   9.919  19.939  0.00  0.00    +0.000 OA
BRANCH  16  17
ATOM     17  C   UNL     1       1.240   9.039  19.419  0.00  0.00    +0.000 A 
ATOM     18  C   UNL     1       1.816   9.429  18.214  0.00  0.00    +0.000 A 
ATOM     19  C   UNL     1       2.691   8.559  17.579  0.00  0.00    +0.000 A 
ATOM     20  C   UNL     1       2.991   7.324  18.166  0.00  0.00    +0.000 A 
ATOM     21  C   UNL     1       2.427   6.915  19.389  0.00  0.00    +0.000 A 
ATOM     22  C   UNL     1       1.518   7.790  19.985  0.00  0.00    +0.000 A 
BRANCH  21  23
ATOM     23  N   UNL     1       2.749   5.678  19.937  0.00  0.00    +0.000 N 
ATOM     24  C   UNL     1       3.605   4.713  19.236  0.00  0.00    +0.000 C 
ATOM     25  C   UNL     1       2.795   3.568  18.627  0.00  0.00    +0.000 C 
ATOM     26  C   UNL     1       1.862   2.938  19.657  0.00  0.00    +0.000 C 
ATOM     27  C   UNL     1       0.980   4.004  20.300  0.00  0.00    +0.000 C 
ATOM     28  C   UNL     1       1.824   5.113  20.926  0.00  0.00    +0.000 C 
ENDBRANCH  21  23
ENDBRANCH  16  17
ENDBRANCH   2  16
TORSDOF 4
ENDMDL
MODEL 5
REMARK VINA RESULT:      -8.2      3.852      9.860
REMARK  Name = 
REMARK  4 active torsions:
REMARK  status: ('A' for Active; 'I' for Inactive)
REMARK    1  A    between atoms: C_2  and  O_3
REMARK    2  A    between atoms: O_3  and  C_4
REMARK    3  A    between atoms: C_8  and  N_9
REMARK    4  A    between atoms: C_19  and  C_20
REMARK                            x       y       z     vdW  Elec       q    Type
REMARK                         _______ _______ _______ _____ _____    ______ ____
ROOT
ATOM      1  O   UNL     1       1.459   9.001  21.848  0.00  0.00    +0.000 OA
ATOM      2  C   UNL     1       0.855   9.502  20.906  0.00  0.00    +0.000 C 
ATOM      3  N   UNL     1      -0.056  10.536  21.037  0.00  0.00    +0.000 N 
ATOM      4  C   UNL     1      -0.839  11.048  19.920  0.00  0.00    +0.000 C 
ATOM      5  C   UNL     1      -1.009  12.555  20.036  0.00  0.00    +0.000 C 
ATOM      6  C   UNL     1      -1.555  13.001  21.410  0.00  0.00    +0.000 C 
ATOM      7  C   UNL     1      -0.769  12.325  22.552  0.00  0.00    +0.000 C 
ATOM      8  C   UNL     1      -0.577  10.826  22.358  0.00  0.00    +0.000 C 
ENDROOT
BRANCH   6   9
ATOM      9  C   UNL     1      -3.076  12.919  21.491  0.00  0.00    +0.000 A 
ATOM     10  C   UNL     1      -3.902  12.620  20.394  0.00  0.00    +0.000 A 
ATOM     11  C   UNL     1      -5.287  12.500  20.545  0.00  0.00    +0.000 A 
ATOM     12  C   UNL     1      -5.859  12.671  21.797  0.00  0.00    +0.000 A 
ATOM     13  F   UNL     1      -7.183  12.533  21.943  0.00  0.00    +0.000 F 
ATOM     14  C   UNL     1      -5.073  12.963  22.902  0.00  0.00    +0.000 A 
ATOM     15  C   UNL     1      -3.690  13.084  22.749  0.00  0.00    +0.000 A 
ENDBRANCH   6   9
BRANCH   2  16
ATOM     16  O   UNL     1       0.966   9.082  19.585  0.00  0.00    +0.000 OA
BRANCH  16  17
ATOM     17  C   UNL     1       1.927   8.124  19.211  0.00  0.00    +0.000 A 
ATOM     18  C   UNL     1       2.678   8.439  18.083  0.00  0.00    +0.000 A 
ATOM     19  C   UNL     1       3.562   7.495  17.582  0.00  0.00    +0.000 A 
ATOM     20  C   UNL     1       3.696   6.259  18.227  0.00  0.00    +0.000 A 
ATOM     21  C   UNL     1       2.953   5.923  19.374  0.00  0.00    +0.000 A 
ATOM     22  C   UNL     1       2.040   6.875  19.831  0.00  0.00    +0.000 A 
BRANCH  21  23
ATOM     23  N   UNL     1       3.113   4.684  19.982  0.00  0.00    +0.000 N 
ATOM     24  C   UNL     1       3.740   3.550  19.290  0.00  0.00    +0.000 C 
ATOM     25  C   UNL     1       2.706   2.524  18.822  0.00  0.00    +0.000 C 
ATOM     26  C   UNL     1       1.771   2.119  19.959  0.00  0.00    +0.000 C 
ATOM     27  C   UNL     1       1.131   3.353  20.587  0.00  0.00    +0.000 C 
ATOM     28  C   UNL     1       2.194   4.339  21.072  0.00  0.00    +0.000 C 
ENDBRANCH  21  23
ENDBRANCH  16  17
ENDBRANCH   2  16
TORSDOF 4
ENDMDL
MODEL 6
REMARK VINA RESULT:      -8.2      3.538      9.858
REMARK  Name = 
REMARK  4 active torsions:
REMARK  status: ('A' for Active; 'I' for Inactive)
REMARK    1  A    between atoms: C_2  and  O_3
REMARK    2  A    between atoms: O_3  and  C_4
REMARK    3  A    between atoms: C_8  and  N_9
REMARK    4  A    between atoms: C_19  and  C_20
REMARK                            x       y       z     vdW  Elec       q    Type
REMARK                         _______ _______ _______ _____ _____    ______ ____
ROOT
ATOM      1  O   UNL     1       1.557   8.032  21.594  0.00  0.00    +0.000 OA
ATOM      2  C   UNL     1       1.486   8.463  20.449  0.00  0.00    +0.000 C 
ATOM      3  N   UNL     1       0.661   9.507  20.069  0.00  0.00    +0.000 N 
ATOM      4  C   UNL     1       0.515   9.936  18.684  0.00  0.00    +0.000 C 
ATOM      5  C   UNL     1       0.369  11.449  18.608  0.00  0.00    +0.000 C 
ATOM      6  C   UNL     1      -0.741  11.999  19.531  0.00  0.00    +0.000 C 
ATOM      7  C   UNL     1      -0.609  11.408  20.950  0.00  0.00    +0.000 C 
ATOM      8  C   UNL     1      -0.408   9.898  20.966  0.00  0.00    +0.000 C 
ENDROOT
BRANCH   6   9
ATOM      9  C   UNL     1      -2.123  11.929  18.890  0.00  0.00    +0.000 A 
ATOM     10  C   UNL     1      -2.355  11.488  17.577  0.00  0.00    +0.000 A 
ATOM     11  C   UNL     1      -3.653  11.389  17.067  0.00  0.00    +0.000 A 
ATOM     12  C   UNL     1      -4.734  11.725  17.868  0.00  0.00    +0.000 A 
ATOM     13  F   UNL     1      -5.977  11.609  17.386  0.00  0.00    +0.000 F 
ATOM     14  C   UNL     1      -4.542  12.161  19.171  0.00  0.00    +0.000 A 
ATOM     15  C   UNL     1      -3.245  12.260  19.679  0.00  0.00    +0.000 A 
ENDBRANCH   6   9
BRANCH   2  16
ATOM     16  O   UNL     1       2.188   7.944  19.366  0.00  0.00    +0.000 OA
BRANCH  16  17
ATOM     17  C   UNL     1       2.617   6.603  19.359  0.00  0.00    +0.000 A 
ATOM     18  C   UNL     1       1.932   5.752  20.221  0.00  0.00    +0.000 A 
ATOM     19  C   UNL     1       2.372   4.444  20.358  0.00  0.00    +0.000 A 
ATOM     20  C   UNL     1       3.476   4.002  19.618  0.00  0.00    +0.000 A 
ATOM     21  C   UNL     1       4.176   4.843  18.734  0.00  0.00    +0.000 A 
ATOM     22  C   UNL     1       3.739   6.166  18.647  0.00  0.00    +0.000 A 
BRANCH  21  23
ATOM     23  N   UNL     1       5.269   4.365  18.020  0.00  0.00    +0.000 N 
ATOM     24  C   UNL     1       6.632   4.855  18.259  0.00  0.00    +0.000 C 
ATOM     25  C   UNL     1       7.093   5.821  17.166  0.00  0.00    +0.000 C 
ATOM     26  C   UNL     1       6.880   5.229  15.776  0.00  0.00    +0.000 C 
ATOM     27  C   UNL     1       5.429   4.790  15.600  0.00  0.00    +0.000 C 
ATOM     28  C   UNL     1       5.016   3.802  16.689  0.00  0.00    +0.000 C 
ENDBRANCH  21  23
ENDBRANCH  16  17
ENDBRANCH   2  16
TORSDOF 4
ENDMDL
MODEL 7
REMARK VINA RESULT:      -8.2      3.746      9.619
REMARK  Name = 
REMARK  4 active torsions:
REMARK  status: ('A' for Active; 'I' for Inactive)
REMARK    1  A    between atoms: C_2  and  O_3
REMARK    2  A    between atoms: O_3  and  C_4
REMARK    3  A    between atoms: C_8  and  N_9
REMARK    4  A    between atoms: C_19  and  C_20
REMARK                            x       y       z     vdW  Elec       q    Type
REMARK                         _______ _______ _______ _____ _____    ______ ____
ROOT
ATOM      1  O   UNL     1       1.539   8.814  20.699  0.00  0.00    +0.000 OA
ATOM      2  C   UNL     1       1.062   9.177  19.630  0.00  0.00    +0.000 C 
ATOM      3  N   UNL     1       0.038  10.101  19.518  0.00  0.00    +0.000 N 
ATOM      4  C   UNL     1      -0.584  10.443  18.244  0.00  0.00    +0.000 C 
ATOM      5  C   UNL     1      -0.932  11.924  18.203  0.00  0.00    +0.000 C 
ATOM      6  C   UNL     1      -1.759  12.387  19.422  0.00  0.00    +0.000 C 
ATOM      7  C   UNL     1      -1.121  11.884  20.734  0.00  0.00    +0.000 C 
ATOM      8  C   UNL     1      -0.739  10.410  20.701  0.00  0.00    +0.000 C 
ENDROOT
BRANCH   6   9
ATOM      9  C   UNL     1      -3.253  12.128  19.250  0.00  0.00    +0.000 A 
ATOM     10  C   UNL     1      -3.805  11.434  18.161  0.00  0.00    +0.000 A 
ATOM     11  C   UNL     1      -5.177  11.177  18.090  0.00  0.00    +0.000 A 
ATOM     12  C   UNL     1      -6.011  11.605  19.111  0.00  0.00    +0.000 A 
ATOM     13  F   UNL     1      -7.321  11.339  19.053  0.00  0.00    +0.000 F 
ATOM     14  C   UNL     1      -5.499  12.291  20.203  0.00  0.00    +0.000 A 
ATOM     15  C   UNL     1      -4.128  12.548  20.272  0.00  0.00    +0.000 A 
ENDBRANCH   6   9
BRANCH   2  16
ATOM     16  O   UNL     1       1.452   8.690  18.387  0.00  0.00    +0.000 OA
BRANCH  16  17
ATOM     17  C   UNL     1       2.436   7.690  18.279  0.00  0.00    +0.000 A 
ATOM     18  C   UNL     1       3.511   7.995  17.450  0.00  0.00    +0.000 A 
ATOM     19  C   UNL     1       4.461   7.016  17.199  0.00  0.00    +0.000 A 
ATOM     20  C   UNL     1       4.333   5.756  17.797  0.00  0.00    +0.000 A 
ATOM     21  C   UNL     1       3.260   5.430  18.646  0.00  0.00    +0.000 A 
ATOM     22  C   UNL     1       2.296   6.419  18.847  0.00  0.00    +0.000 A 
BRANCH  21  23
ATOM     23  N   UNL     1       3.169   4.166  19.217  0.00  0.00    +0.000 N 
ATOM     24  C   UNL     1       3.221   2.940  18.410  0.00  0.00    +0.000 C 
ATOM     25  C   UNL     1       1.838   2.311  18.236  0.00  0.00    +0.000 C 
ATOM     26  C   UNL     1       1.131   2.142  19.579  0.00  0.00    +0.000 C 
ATOM     27  C   UNL     1       1.082   3.472  20.326  0.00  0.00    +0.000 C 
ATOM     28  C   UNL     1       2.484   4.052  20.509  0.00  0.00    +0.000 C 
ENDBRANCH  21  23
ENDBRANCH  16  17
ENDBRANCH   2  16
TORSDOF 4
ENDMDL
MODEL 8
REMARK VINA RESULT:      -8.2      3.548      9.813
REMARK  Name = 
REMARK  4 active torsions:
REMARK  status: ('A' for Active; 'I' for Inactive)
REMARK    1  A    between atoms: C_2  and  O_3
REMARK    2  A    between atoms: O_3  and  C_4
REMARK    3  A    between atoms: C_8  and  N_9
REMARK    4  A    between atoms: C_19  and  C_20
REMARK                            x       y       z     vdW  Elec       q    Type
REMARK                         _______ _______ _______ _____ _____    ______ ____
ROOT
ATOM      1  O   UNL     1       1.465   8.604  21.796  0.00  0.00    +0.000 OA
ATOM      2  C   UNL     1       1.233   8.884  20.625  0.00  0.00    +0.000 C 
ATOM      3  N   UNL     1       0.320   9.846  20.230  0.00  0.00    +0.000 N 
ATOM      4  C   UNL     1      -0.016  10.093  18.833  0.00  0.00    +0.000 C 
ATOM      5  C   UNL     1      -0.240  11.579  18.594  0.00  0.00    +0.000 C 
ATOM      6  C   UNL     1      -1.252  12.207  19.578  0.00  0.00    +0.000 C 
ATOM      7  C   UNL     1      -0.919  11.803  21.030  0.00  0.00    +0.000 C 
ATOM      8  C   UNL     1      -0.647  10.314  21.203  0.00  0.00    +0.000 C 
ENDROOT
BRANCH   6   9
ATOM      9  C   UNL     1      -2.698  12.014  19.133  0.00  0.00    +0.000 A 
ATOM     10  C   UNL     1      -3.809  12.427  19.887  0.00  0.00    +0.000 A 
ATOM     11  C   UNL     1      -5.110  12.276  19.398  0.00  0.00    +0.000 A 
ATOM     12  C   UNL     1      -5.312  11.716  18.146  0.00  0.00    +0.000 A 
ATOM     13  F   UNL     1      -6.557  11.592  17.669  0.00  0.00    +0.000 F 
ATOM     14  C   UNL     1      -4.238  11.300  17.373  0.00  0.00    +0.000 A 
ATOM     15  C   UNL     1      -2.939  11.451  17.863  0.00  0.00    +0.000 A 
ENDBRANCH   6   9
BRANCH   2  16
ATOM     16  O   UNL     1       1.819   8.255  19.532  0.00  0.00    +0.000 OA
BRANCH  16  17
ATOM     17  C   UNL     1       2.297   6.934  19.630  0.00  0.00    +0.000 A 
ATOM     18  C   UNL     1       1.586   6.103  20.490  0.00  0.00    +0.000 A 
ATOM     19  C   UNL     1       2.063   4.824  20.731  0.00  0.00    +0.000 A 
ATOM     20  C   UNL     1       3.232   4.388  20.094  0.00  0.00    +0.000 A 
ATOM     21  C   UNL     1       3.961   5.209  19.214  0.00  0.00    +0.000 A 
ATOM     22  C   UNL     1       3.482   6.505  19.022  0.00  0.00    +0.000 A 
BRANCH  21  23
ATOM     23  N   UNL     1       5.119   4.739  18.605  0.00  0.00    +0.000 N 
ATOM     24  C   UNL     1       6.446   5.276  18.930  0.00  0.00    +0.000 C 
ATOM     25  C   UNL     1       6.965   6.216  17.841  0.00  0.00    +0.000 C 
ATOM     26  C   UNL     1       6.877   5.570  16.461  0.00  0.00    +0.000 C 
ATOM     27  C   UNL     1       5.456   5.083  16.190  0.00  0.00    +0.000 C 
ATOM     28  C   UNL     1       4.986   4.121  17.280  0.00  0.00    +0.000 C 
ENDBRANCH  21  23
ENDBRANCH  16  17
ENDBRANCH   2  16
TORSDOF 4
ENDMDL
MODEL 9
REMARK VINA RESULT:      -8.1      1.736      3.281
REMARK  Name = 
REMARK  4 active torsions:
REMARK  status: ('A' for Active; 'I' for Inactive)
REMARK    1  A    between atoms: C_2  and  O_3
REMARK    2  A    between atoms: O_3  and  C_4
REMARK    3  A    between atoms: C_8  and  N_9
REMARK    4  A    between atoms: C_19  and  C_20
REMARK                            x       y       z     vdW  Elec       q    Type
REMARK                         _______ _______ _______ _____ _____    ______ ____
ROOT
ATOM      1  O   UNL     1       0.334   8.720  22.094  0.00  0.00    +0.000 OA
ATOM      2  C   UNL     1       0.850   9.092  21.047  0.00  0.00    +0.000 C 
ATOM      3  N   UNL     1       1.545   8.256  20.190  0.00  0.00    +0.000 N 
ATOM      4  C   UNL     1       2.237   8.738  19.002  0.00  0.00    +0.000 C 
ATOM      5  C   UNL     1       2.115   7.729  17.870  0.00  0.00    +0.000 C 
ATOM      6  C   UNL     1       2.541   6.302  18.279  0.00  0.00    +0.000 C 
ATOM      7  C   UNL     1       1.875   5.898  19.611  0.00  0.00    +0.000 C 
ATOM      8  C   UNL     1       1.976   6.967  20.692  0.00  0.00    +0.000 C 
ENDROOT
BRANCH   6   9
ATOM      9  C   UNL     1       4.048   6.089  18.180  0.00  0.00    +0.000 A 
ATOM     10  C   UNL     1       4.863   6.703  17.214  0.00  0.00    +0.000 A 
ATOM     11  C   UNL     1       6.248   6.514  17.213  0.00  0.00    +0.000 A 
ATOM     12  C   UNL     1       6.834   5.714  18.182  0.00  0.00    +0.000 A 
ATOM     13  F   UNL     1       8.163   5.552  18.192  0.00  0.00    +0.000 F 
ATOM     14  C   UNL     1       6.060   5.095  19.152  0.00  0.00    +0.000 A 
ATOM     15  C   UNL     1       4.676   5.283  19.152  0.00  0.00    +0.000 A 
ENDBRANCH   6   9
BRANCH   2  16
ATOM     16  O   UNL     1       0.845  10.406  20.589  0.00  0.00    +0.000 OA
BRANCH  16  17
ATOM     17  C   UNL     1      -0.330  10.988  20.077  0.00  0.00    +0.000 A 
ATOM     18  C   UNL     1      -0.689  12.206  20.643  0.00  0.00    +0.000 A 
ATOM     19  C   UNL     1      -1.896  12.784  20.277  0.00  0.00    +0.000 A 
ATOM     20  C   UNL     1      -2.714  12.146  19.337  0.00  0.00    +0.000 A 
ATOM     21  C   UNL     1      -2.365  10.918  18.745  0.00  0.00    +0.000 A 
ATOM     22  C   UNL     1      -1.167  10.338  19.163  0.00  0.00    +0.000 A 
BRANCH  21  23
ATOM     23  N   UNL     1      -3.207  10.316  17.818  0.00  0.00    +0.000 N 
ATOM     24  C   UNL     1      -2.697   9.459  16.740  0.00  0.00    +0.000 C 
ATOM     25  C   UNL     1      -2.699  10.177  15.389  0.00  0.00    +0.000 C 
ATOM     26  C   UNL     1      -4.060  10.803  15.095  0.00  0.00    +0.000 C 
ATOM     27  C   UNL     1      -4.489  11.711  16.244  0.00  0.00    +0.000 C 
ATOM     28  C   UNL     1      -4.507  10.950  17.570  0.00  0.00    +0.000 C 
ENDBRANCH  21  23
ENDBRANCH  16  17
ENDBRANCH   2  16
TORSDOF 4
ENDMDL
