MODEL 1
REMARK VINA RESULT:      -7.9      0.000      0.000
REMARK  Name = 
REMARK  10 active torsions:
REMARK  status: ('A' for Active; 'I' for Inactive)
REMARK    1  A    between atoms: C_1  and  C_2
REMARK    2  A    between atoms: C_2  and  O_3
REMARK    3  A    between atoms: O_3  and  C_4
REMARK    4  A    between atoms: C_4  and  C_6
REMARK    5  A    between atoms: C_9  and  N_10
REMARK    6  A    between atoms: C_11  and  C_13
REMARK    7  A    between atoms: C_13  and  C_14
REMARK    8  A    between atoms: C_14  and  C_15
REMARK    9  A    between atoms: C_15  and  C_16
REMARK   10  A    between atoms: C_18  and  C_19
REMARK                            x       y       z     vdW  Elec       q    Type
REMARK                         _______ _______ _______ _____ _____    ______ ____
ROOT
ATOM      1  N   UNL     1       2.204   5.179  20.990  0.00  0.00    +0.000 N 
ATOM      2  C   UNL     1       1.421   4.060  20.759  0.00  0.00    +0.000 C 
ATOM      3  O   UNL     1       0.515   3.961  19.934  0.00  0.00    +0.000 OA
ATOM      4  H   UNL     1       3.029   5.072  21.567  0.00  0.00    +0.000 HD
ENDROOT
BRANCH   1   8
ATOM      5  C   UNL     1       1.692   8.890  19.028  0.00  0.00    +0.000 A 
ATOM      6  C   UNL     1       1.254   8.736  20.345  0.00  0.00    +0.000 A 
ATOM      7  C   UNL     1       1.423   7.521  21.006  0.00  0.00    +0.000 A 
ATOM      8  C   UNL     1       2.033   6.439  20.366  0.00  0.00    +0.000 A 
ATOM      9  C   UNL     1       2.497   6.597  19.055  0.00  0.00    +0.000 A 
ATOM     10  C   UNL     1       2.317   7.816  18.383  0.00  0.00    +0.000 A 
BRANCH   5  11
ATOM     11  C   UNL     1       1.404  10.187  18.362  0.00  0.00    +0.000 C 
ATOM     12  O   UNL     1       2.264  10.888  17.852  0.00  0.00    +0.000 OA
BRANCH  11  13
ATOM     13  O   UNL     1       0.097  10.511  18.512  0.00  0.00    +0.000 OA
BRANCH  13  15
ATOM     14  C   UNL     1       0.310  12.201  20.181  0.00  0.00    +0.000 C 
ATOM     15  C   UNL     1      -0.153  11.899  18.768  0.00  0.00    +0.000 C 
ENDBRANCH  13  15
ENDBRANCH  11  13
ENDBRANCH   5  11
ENDBRANCH   1   8
BRANCH   2  16
ATOM     16  C   UNL     1       1.814   2.852  21.582  0.00  0.00    +0.000 C 
BRANCH  16  17
ATOM     17  C   UNL     1       3.225   2.381  21.212  0.00  0.00    +0.000 C 
BRANCH  17  18
ATOM     18  C   UNL     1       3.379   1.926  19.757  0.00  0.00    +0.000 C 
BRANCH  18  19
ATOM     19  C   UNL     1       4.149   2.899  18.950  0.00  0.00    +0.000 A 
ATOM     20  N   UNL     1       4.923   3.887  19.328  0.00  0.00    +0.000 NA
ATOM     21  C   UNL     1       5.293   4.460  18.124  0.00  0.00    +0.000 A 
ATOM     22  N   UNL     1       4.779   3.831  17.054  0.00  0.00    +0.000 NA
ATOM     23  O   UNL     1       4.022   2.802  17.597  0.00  0.00    +0.000 OA
BRANCH  21  24
ATOM     24  C   UNL     1       6.214   5.590  18.070  0.00  0.00    +0.000 A 
ATOM     25  C   UNL     1       7.261   5.630  19.012  0.00  0.00    +0.000 A 
ATOM     26  C   UNL     1       8.193   6.670  19.015  0.00  0.00    +0.000 A 
ATOM     27  C   UNL     1       8.093   7.692  18.079  0.00  0.00    +0.000 A 
ATOM     28  C   UNL     1       7.057   7.677  17.146  0.00  0.00    +0.000 A 
ATOM     29  C   UNL     1       6.118   6.637  17.138  0.00  0.00    +0.000 A 
ATOM     30 CL   UNL     1       4.845   6.768  15.972  0.00  0.00    +0.000 Cl
ENDBRANCH  21  24
ENDBRANCH  18  19
ENDBRANCH  17  18
ENDBRANCH  16  17
ENDBRANCH   2  16
TORSDOF 9
ENDMDL
MODEL 2
REMARK VINA RESULT:      -7.2      0.959      1.467
REMARK  Name = 
REMARK  10 active torsions:
REMARK  status: ('A' for Active; 'I' for Inactive)
REMARK    1  A    between atoms: C_1  and  C_2
REMARK    2  A    between atoms: C_2  and  O_3
REMARK    3  A    between atoms: O_3  and  C_4
REMARK    4  A    between atoms: C_4  and  C_6
REMARK    5  A    between atoms: C_9  and  N_10
REMARK    6  A    between atoms: C_11  and  C_13
REMARK    7  A    between atoms: C_13  and  C_14
REMARK    8  A    between atoms: C_14  and  C_15
REMARK    9  A    between atoms: C_15  and  C_16
REMARK   10  A    between atoms: C_18  and  C_19
REMARK                            x       y       z     vdW  Elec       q    Type
REMARK                         _______ _______ _______ _____ _____    ______ ____
ROOT
ATOM      1  N   UNL     1       2.737   5.570  20.142  0.00  0.00    +0.000 N 
ATOM      2  C   UNL     1       1.922   4.556  20.616  0.00  0.00    +0.000 C 
ATOM      3  O   UNL     1       0.696   4.584  20.702  0.00  0.00    +0.000 OA
ATOM      4  H   UNL     1       3.709   5.353  19.958  0.00  0.00    +0.000 HD
ENDROOT
BRANCH   1   8
ATOM      5  C   UNL     1       1.426   9.448  19.082  0.00  0.00    +0.000 A 
ATOM      6  C   UNL     1       2.086   8.658  18.138  0.00  0.00    +0.000 A 
ATOM      7  C   UNL     1       2.517   7.374  18.472  0.00  0.00    +0.000 A 
ATOM      8  C   UNL     1       2.296   6.858  19.751  0.00  0.00    +0.000 A 
ATOM      9  C   UNL     1       1.613   7.637  20.692  0.00  0.00    +0.000 A 
ATOM     10  C   UNL     1       1.188   8.934  20.362  0.00  0.00    +0.000 A 
BRANCH   5  11
ATOM     11  C   UNL     1       1.070  10.833  18.678  0.00  0.00    +0.000 C 
ATOM     12  O   UNL     1      -0.052  11.166  18.329  0.00  0.00    +0.000 OA
BRANCH  11  13
ATOM     13  O   UNL     1       2.178  11.614  18.649  0.00  0.00    +0.000 OA
BRANCH  13  15
ATOM     14  C   UNL     1       2.467  13.928  18.151  0.00  0.00    +0.000 C 
ATOM     15  C   UNL     1       2.002  12.928  19.194  0.00  0.00    +0.000 C 
ENDBRANCH  13  15
ENDBRANCH  11  13
ENDBRANCH   5  11
ENDBRANCH   1   8
BRANCH   2  16
ATOM     16  C   UNL     1       2.664   3.289  20.984  0.00  0.00    +0.000 C 
BRANCH  16  17
ATOM     17  C   UNL     1       2.407   2.191  19.944  0.00  0.00    +0.000 C 
BRANCH  17  18
ATOM     18  C   UNL     1       3.664   1.703  19.217  0.00  0.00    +0.000 C 
BRANCH  18  19
ATOM     19  C   UNL     1       4.364   2.803  18.516  0.00  0.00    +0.000 A 
ATOM     20  N   UNL     1       5.126   3.758  18.990  0.00  0.00    +0.000 NA
ATOM     21  C   UNL     1       5.420   4.500  17.861  0.00  0.00    +0.000 A 
ATOM     22  N   UNL     1       4.872   4.004  16.739  0.00  0.00    +0.000 NA
ATOM     23  O   UNL     1       4.174   2.885  17.169  0.00  0.00    +0.000 OA
BRANCH  21  24
ATOM     24  C   UNL     1       6.303   5.660  17.921  0.00  0.00    +0.000 A 
ATOM     25  C   UNL     1       7.349   5.641  18.865  0.00  0.00    +0.000 A 
ATOM     26  C   UNL     1       8.246   6.706  18.972  0.00  0.00    +0.000 A 
ATOM     27  C   UNL     1       8.112   7.812  18.141  0.00  0.00    +0.000 A 
ATOM     28  C   UNL     1       7.076   7.855  17.209  0.00  0.00    +0.000 A 
ATOM     29  C   UNL     1       6.171   6.790  17.096  0.00  0.00    +0.000 A 
ATOM     30 CL   UNL     1       4.893   6.994  15.945  0.00  0.00    +0.000 Cl
ENDBRANCH  21  24
ENDBRANCH  18  19
ENDBRANCH  17  18
ENDBRANCH  16  17
ENDBRANCH   2  16
TORSDOF 9
ENDMDL
MODEL 3
REMARK VINA RESULT:      -7.0      5.553      8.189
REMARK  Name = 
REMARK  10 active torsions:
REMARK  status: ('A' for Active; 'I' for Inactive)
REMARK    1  A    between atoms: C_1  and  C_2
REMARK    2  A    between atoms: C_2  and  O_3
REMARK    3  A    between atoms: O_3  and  C_4
REMARK    4  A    between atoms: C_4  and  C_6
REMARK    5  A    between atoms: C_9  and  N_10
REMARK    6  A    between atoms: C_11  and  C_13
REMARK    7  A    between atoms: C_13  and  C_14
REMARK    8  A    between atoms: C_14  and  C_15
REMARK    9  A    between atoms: C_15  and  C_16
REMARK   10  A    between atoms: C_18  and  C_19
REMARK                            x       y       z     vdW  Elec       q    Type
REMARK                         _______ _______ _______ _____ _____    ______ ____
ROOT
ATOM      1  N   UNL     1       5.827   6.842  17.157  0.00  0.00    +0.000 N 
ATOM      2  C   UNL     1       7.025   6.888  17.850  0.00  0.00    +0.000 C 
ATOM      3  O   UNL     1       7.325   6.219  18.837  0.00  0.00    +0.000 OA
ATOM      4  H   UNL     1       5.776   7.312  16.262  0.00  0.00    +0.000 HD
ENDROOT
BRANCH   1   8
ATOM      5  C   UNL     1       2.530   4.439  18.271  0.00  0.00    +0.000 A 
ATOM      6  C   UNL     1       2.466   5.824  18.438  0.00  0.00    +0.000 A 
ATOM      7  C   UNL     1       3.543   6.629  18.069  0.00  0.00    +0.000 A 
ATOM      8  C   UNL     1       4.700   6.067  17.524  0.00  0.00    +0.000 A 
ATOM      9  C   UNL     1       4.758   4.682  17.331  0.00  0.00    +0.000 A 
ATOM     10  C   UNL     1       3.680   3.868  17.713  0.00  0.00    +0.000 A 
BRANCH   5  11
ATOM     11  C   UNL     1       1.377   3.641  18.763  0.00  0.00    +0.000 C 
ATOM     12  O   UNL     1       0.863   2.736  18.124  0.00  0.00    +0.000 OA
BRANCH  11  13
ATOM     13  O   UNL     1       0.930   4.139  19.942  0.00  0.00    +0.000 OA
BRANCH  13  15
ATOM     14  C   UNL     1       1.543   2.556  21.617  0.00  0.00    +0.000 C 
ATOM     15  C   UNL     1       1.814   3.939  21.052  0.00  0.00    +0.000 C 
ENDBRANCH  13  15
ENDBRANCH  11  13
ENDBRANCH   5  11
ENDBRANCH   1   8
BRANCH   2  16
ATOM     16  C   UNL     1       8.052   7.822  17.246  0.00  0.00    +0.000 C 
BRANCH  16  17
ATOM     17  C   UNL     1       7.915   9.231  17.834  0.00  0.00    +0.000 C 
BRANCH  17  18
ATOM     18  C   UNL     1       8.949   9.571  18.911  0.00  0.00    +0.000 C 
BRANCH  18  19
ATOM     19  C   UNL     1       9.511  10.929  18.734  0.00  0.00    +0.000 A 
ATOM     20  N   UNL     1       9.336  12.016  19.446  0.00  0.00    +0.000 NA
ATOM     21  C   UNL     1      10.062  12.959  18.742  0.00  0.00    +0.000 A 
ATOM     22  N   UNL     1      10.671  12.460  17.654  0.00  0.00    +0.000 NA
ATOM     23  O   UNL     1      10.307  11.121  17.646  0.00  0.00    +0.000 OA
BRANCH  21  24
ATOM     24  C   UNL     1      10.186  14.334  19.216  0.00  0.00    +0.000 A 
ATOM     25  C   UNL     1      11.254  14.636  20.084  0.00  0.00    +0.000 A 
ATOM     26  C   UNL     1      11.450  15.932  20.567  0.00  0.00    +0.000 A 
ATOM     27  C   UNL     1      10.578  16.949  20.196  0.00  0.00    +0.000 A 
ATOM     28  C   UNL     1       9.508  16.668  19.347  0.00  0.00    +0.000 A 
ATOM     29  C   UNL     1       9.305  15.369  18.859  0.00  0.00    +0.000 A 
ATOM     30 CL   UNL     1       7.905  15.137  17.867  0.00  0.00    +0.000 Cl
ENDBRANCH  21  24
ENDBRANCH  18  19
ENDBRANCH  17  18
ENDBRANCH  16  17
ENDBRANCH   2  16
TORSDOF 9
ENDMDL
MODEL 4
REMARK VINA RESULT:      -7.0      5.949      8.808
REMARK  Name = 
REMARK  10 active torsions:
REMARK  status: ('A' for Active; 'I' for Inactive)
REMARK    1  A    between atoms: C_1  and  C_2
REMARK    2  A    between atoms: C_2  and  O_3
REMARK    3  A    between atoms: O_3  and  C_4
REMARK    4  A    between atoms: C_4  and  C_6
REMARK    5  A    between atoms: C_9  and  N_10
REMARK    6  A    between atoms: C_11  and  C_13
REMARK    7  A    between atoms: C_13  and  C_14
REMARK    8  A    between atoms: C_14  and  C_15
REMARK    9  A    between atoms: C_15  and  C_16
REMARK   10  A    between atoms: C_18  and  C_19
REMARK                            x       y       z     vdW  Elec       q    Type
REMARK                         _______ _______ _______ _____ _____    ______ ____
ROOT
ATOM      1  N   UNL     1       6.480   7.100  16.952  0.00  0.00    +0.000 N 
ATOM      2  C   UNL     1       7.578   7.390  17.745  0.00  0.00    +0.000 C 
ATOM      3  O   UNL     1       7.981   6.733  18.703  0.00  0.00    +0.000 OA
ATOM      4  H   UNL     1       6.363   7.621  16.092  0.00  0.00    +0.000 HD
ENDROOT
BRANCH   1   8
ATOM      5  C   UNL     1       3.856   3.836  17.541  0.00  0.00    +0.000 A 
ATOM      6  C   UNL     1       3.803   4.932  18.404  0.00  0.00    +0.000 A 
ATOM      7  C   UNL     1       4.658   6.018  18.217  0.00  0.00    +0.000 A 
ATOM      8  C   UNL     1       5.577   6.030  17.166  0.00  0.00    +0.000 A 
ATOM      9  C   UNL     1       5.615   4.945  16.282  0.00  0.00    +0.000 A 
ATOM     10  C   UNL     1       4.765   3.845  16.475  0.00  0.00    +0.000 A 
BRANCH   5  11
ATOM     11  C   UNL     1       2.973   2.682  17.851  0.00  0.00    +0.000 C 
ATOM     12  O   UNL     1       3.388   1.554  18.064  0.00  0.00    +0.000 OA
BRANCH  11  13
ATOM     13  O   UNL     1       1.671   3.047  17.749  0.00  0.00    +0.000 OA
BRANCH  13  15
ATOM     14  C   UNL     1       0.913   3.376  19.986  0.00  0.00    +0.000 C 
ATOM     15  C   UNL     1       0.812   2.495  18.754  0.00  0.00    +0.000 C 
ENDBRANCH  13  15
ENDBRANCH  11  13
ENDBRANCH   5  11
ENDBRANCH   1   8
BRANCH   2  16
ATOM     16  C   UNL     1       8.358   8.608  17.298  0.00  0.00    +0.000 C 
BRANCH  16  17
ATOM     17  C   UNL     1       8.086   9.795  18.230  0.00  0.00    +0.000 C 
BRANCH  17  18
ATOM     18  C   UNL     1       9.312  10.283  19.008  0.00  0.00    +0.000 C 
BRANCH  18  19
ATOM     19  C   UNL     1       9.826  11.570  18.488  0.00  0.00    +0.000 A 
ATOM     20  N   UNL     1       9.393  12.792  18.680  0.00  0.00    +0.000 NA
ATOM     21  C   UNL     1      10.238  13.542  17.883  0.00  0.00    +0.000 A 
ATOM     22  N   UNL     1      11.162  12.805  17.245  0.00  0.00    +0.000 NA
ATOM     23  O   UNL     1      10.890  11.503  17.641  0.00  0.00    +0.000 OA
BRANCH  21  24
ATOM     24  C   UNL     1      10.144  14.997  17.830  0.00  0.00    +0.000 A 
ATOM     25  C   UNL     1      11.255  15.710  17.337  0.00  0.00    +0.000 A 
ATOM     26  C   UNL     1      11.237  17.103  17.240  0.00  0.00    +0.000 A 
ATOM     27  C   UNL     1      10.109  17.810  17.638  0.00  0.00    +0.000 A 
ATOM     28  C   UNL     1       9.003  17.124  18.140  0.00  0.00    +0.000 A 
ATOM     29  C   UNL     1       9.015  15.726  18.241  0.00  0.00    +0.000 A 
ATOM     30 CL   UNL     1       7.607  15.000  18.939  0.00  0.00    +0.000 Cl
ENDBRANCH  21  24
ENDBRANCH  18  19
ENDBRANCH  17  18
ENDBRANCH  16  17
ENDBRANCH   2  16
TORSDOF 9
ENDMDL
MODEL 5
REMARK VINA RESULT:      -7.0      4.102      9.029
REMARK  Name = 
REMARK  10 active torsions:
REMARK  status: ('A' for Active; 'I' for Inactive)
REMARK    1  A    between atoms: C_1  and  C_2
REMARK    2  A    between atoms: C_2  and  O_3
REMARK    3  A    between atoms: O_3  and  C_4
REMARK    4  A    between atoms: C_4  and  C_6
REMARK    5  A    between atoms: C_9  and  N_10
REMARK    6  A    between atoms: C_11  and  C_13
REMARK    7  A    between atoms: C_13  and  C_14
REMARK    8  A    between atoms: C_14  and  C_15
REMARK    9  A    between atoms: C_15  and  C_16
REMARK   10  A    between atoms: C_18  and  C_19
REMARK                            x       y       z     vdW  Elec       q    Type
REMARK                         _______ _______ _______ _____ _____    ______ ____
ROOT
ATOM      1  N   UNL     1       3.446   6.252  18.998  0.00  0.00    +0.000 N 
ATOM      2  C   UNL     1       2.335   5.578  19.477  0.00  0.00    +0.000 C 
ATOM      3  O   UNL     1       1.892   4.509  19.060  0.00  0.00    +0.000 OA
ATOM      4  H   UNL     1       3.805   7.026  19.543  0.00  0.00    +0.000 HD
ENDROOT
BRANCH   1   8
ATOM      5  C   UNL     1       5.793   5.188  15.645  0.00  0.00    +0.000 A 
ATOM      6  C   UNL     1       5.421   4.209  16.569  0.00  0.00    +0.000 A 
ATOM      7  C   UNL     1       4.641   4.545  17.675  0.00  0.00    +0.000 A 
ATOM      8  C   UNL     1       4.218   5.861  17.877  0.00  0.00    +0.000 A 
ATOM      9  C   UNL     1       4.567   6.839  16.939  0.00  0.00    +0.000 A 
ATOM     10  C   UNL     1       5.361   6.507  15.831  0.00  0.00    +0.000 A 
BRANCH   5  11
ATOM     11  C   UNL     1       6.691   4.771  14.537  0.00  0.00    +0.000 C 
ATOM     12  O   UNL     1       7.631   5.443  14.143  0.00  0.00    +0.000 OA
BRANCH  11  13
ATOM     13  O   UNL     1       6.245   3.619  13.979  0.00  0.00    +0.000 OA
BRANCH  13  15
ATOM     14  C   UNL     1       5.880   2.566  11.871  0.00  0.00    +0.000 C 
ATOM     15  C   UNL     1       5.569   3.781  12.726  0.00  0.00    +0.000 C 
ENDBRANCH  13  15
ENDBRANCH  11  13
ENDBRANCH   5  11
ENDBRANCH   1   8
BRANCH   2  16
ATOM     16  C   UNL     1       1.685   6.234  20.677  0.00  0.00    +0.000 C 
BRANCH  16  17
ATOM     17  C   UNL     1       1.537   7.744  20.453  0.00  0.00    +0.000 C 
BRANCH  17  18
ATOM     18  C   UNL     1       1.598   8.583  21.733  0.00  0.00    +0.000 C 
BRANCH  18  19
ATOM     19  C   UNL     1       0.642   9.713  21.704  0.00  0.00    +0.000 A 
ATOM     20  N   UNL     1       0.163  10.440  22.683  0.00  0.00    +0.000 NA
ATOM     21  C   UNL     1      -0.723  11.279  22.032  0.00  0.00    +0.000 A 
ATOM     22  N   UNL     1      -0.767  11.081  20.704  0.00  0.00    +0.000 NA
ATOM     23  O   UNL     1       0.132  10.047  20.486  0.00  0.00    +0.000 OA
BRANCH  21  24
ATOM     24  C   UNL     1      -1.462  12.312  22.750  0.00  0.00    +0.000 A 
ATOM     25  C   UNL     1      -2.692  11.952  23.337  0.00  0.00    +0.000 A 
ATOM     26  C   UNL     1      -3.450  12.879  24.055  0.00  0.00    +0.000 A 
ATOM     27  C   UNL     1      -2.996  14.185  24.195  0.00  0.00    +0.000 A 
ATOM     28  C   UNL     1      -1.788  14.564  23.612  0.00  0.00    +0.000 A 
ATOM     29  C   UNL     1      -1.022  13.639  22.889  0.00  0.00    +0.000 A 
ATOM     30 CL   UNL     1       0.425  14.250  22.161  0.00  0.00    +0.000 Cl
ENDBRANCH  21  24
ENDBRANCH  18  19
ENDBRANCH  17  18
ENDBRANCH  16  17
ENDBRANCH   2  16
TORSDOF 9
ENDMDL
MODEL 6
REMARK VINA RESULT:      -6.9      3.791      8.441
REMARK  Name = 
REMARK  10 active torsions:
REMARK  status: ('A' for Active; 'I' for Inactive)
REMARK    1  A    between atoms: C_1  and  C_2
REMARK    2  A    between atoms: C_2  and  O_3
REMARK    3  A    between atoms: O_3  and  C_4
REMARK    4  A    between atoms: C_4  and  C_6
REMARK    5  A    between atoms: C_9  and  N_10
REMARK    6  A    between atoms: C_11  and  C_13
REMARK    7  A    between atoms: C_13  and  C_14
REMARK    8  A    between atoms: C_14  and  C_15
REMARK    9  A    between atoms: C_15  and  C_16
REMARK   10  A    between atoms: C_18  and  C_19
REMARK                            x       y       z     vdW  Elec       q    Type
REMARK                         _______ _______ _______ _____ _____    ______ ____
ROOT
ATOM      1  N   UNL     1       3.018   6.332  19.824  0.00  0.00    +0.000 N 
ATOM      2  C   UNL     1       2.147   7.409  19.814  0.00  0.00    +0.000 C 
ATOM      3  O   UNL     1       2.005   8.225  18.906  0.00  0.00    +0.000 OA
ATOM      4  H   UNL     1       2.909   5.638  20.552  0.00  0.00    +0.000 HD
ENDROOT
BRANCH   1   8
ATOM      5  C   UNL     1       5.857   5.349  16.847  0.00  0.00    +0.000 A 
ATOM      6  C   UNL     1       4.865   6.293  16.574  0.00  0.00    +0.000 A 
ATOM      7  C   UNL     1       3.927   6.632  17.549  0.00  0.00    +0.000 A 
ATOM      8  C   UNL     1       3.964   6.037  18.812  0.00  0.00    +0.000 A 
ATOM      9  C   UNL     1       4.972   5.109  19.098  0.00  0.00    +0.000 A 
ATOM     10  C   UNL     1       5.910   4.757  18.115  0.00  0.00    +0.000 A 
BRANCH   5  11
ATOM     11  C   UNL     1       6.769   4.980  15.734  0.00  0.00    +0.000 C 
ATOM     12  O   UNL     1       7.694   5.684  15.360  0.00  0.00    +0.000 OA
BRANCH  11  13
ATOM     13  O   UNL     1       6.353   3.832  15.146  0.00  0.00    +0.000 OA
BRANCH  13  15
ATOM     14  C   UNL     1       5.120   3.902  13.105  0.00  0.00    +0.000 C 
ATOM     15  C   UNL     1       6.504   3.797  13.721  0.00  0.00    +0.000 C 
ENDBRANCH  13  15
ENDBRANCH  11  13
ENDBRANCH   5  11
ENDBRANCH   1   8
BRANCH   2  16
ATOM     16  C   UNL     1       1.260   7.496  21.038  0.00  0.00    +0.000 C 
BRANCH  16  17
ATOM     17  C   UNL     1       1.651   8.700  21.904  0.00  0.00    +0.000 C 
BRANCH  17  18
ATOM     18  C   UNL     1       0.534   9.730  22.097  0.00  0.00    +0.000 C 
BRANCH  18  19
ATOM     19  C   UNL     1       0.021  10.242  20.807  0.00  0.00    +0.000 A 
ATOM     20  N   UNL     1      -1.100   9.981  20.179  0.00  0.00    +0.000 NA
ATOM     21  C   UNL     1      -0.968  10.706  19.008  0.00  0.00    +0.000 A 
ATOM     22  N   UNL     1       0.182  11.396  18.936  0.00  0.00    +0.000 NA
ATOM     23  O   UNL     1       0.836  11.091  20.121  0.00  0.00    +0.000 OA
BRANCH  21  24
ATOM     24  C   UNL     1      -2.032  10.743  18.011  0.00  0.00    +0.000 A 
ATOM     25  C   UNL     1      -1.839  10.022  16.817  0.00  0.00    +0.000 A 
ATOM     26  C   UNL     1      -2.818   9.995  15.821  0.00  0.00    +0.000 A 
ATOM     27  C   UNL     1      -4.006  10.693  15.998  0.00  0.00    +0.000 A 
ATOM     28  C   UNL     1      -4.212  11.423  17.169  0.00  0.00    +0.000 A 
ATOM     29  C   UNL     1      -3.233  11.455  18.172  0.00  0.00    +0.000 A 
ATOM     30 CL   UNL     1      -3.582  12.448  19.547  0.00  0.00    +0.000 Cl
ENDBRANCH  21  24
ENDBRANCH  18  19
ENDBRANCH  17  18
ENDBRANCH  16  17
ENDBRANCH   2  16
TORSDOF 9
ENDMDL
MODEL 7
REMARK VINA RESULT:      -6.9      2.286      4.792
REMARK  Name = 
REMARK  10 active torsions:
REMARK  status: ('A' for Active; 'I' for Inactive)
REMARK    1  A    between atoms: C_1  and  C_2
REMARK    2  A    between atoms: C_2  and  O_3
REMARK    3  A    between atoms: O_3  and  C_4
REMARK    4  A    between atoms: C_4  and  C_6
REMARK    5  A    between atoms: C_9  and  N_10
REMARK    6  A    between atoms: C_11  and  C_13
REMARK    7  A    between atoms: C_13  and  C_14
REMARK    8  A    between atoms: C_14  and  C_15
REMARK    9  A    between atoms: C_15  and  C_16
REMARK   10  A    between atoms: C_18  and  C_19
REMARK                            x       y       z     vdW  Elec       q    Type
REMARK                         _______ _______ _______ _____ _____    ______ ____
ROOT
ATOM      1  N   UNL     1       3.611   6.636  17.064  0.00  0.00    +0.000 N 
ATOM      2  C   UNL     1       4.934   6.849  16.714  0.00  0.00    +0.000 C 
ATOM      3  O   UNL     1       5.685   7.702  17.182  0.00  0.00    +0.000 OA
ATOM      4  H   UNL     1       3.162   5.791  16.734  0.00  0.00    +0.000 HD
ENDROOT
BRANCH   1   8
ATOM      5  C   UNL     1       1.340   9.056  19.684  0.00  0.00    +0.000 A 
ATOM      6  C   UNL     1       1.812   7.816  20.120  0.00  0.00    +0.000 A 
ATOM      7  C   UNL     1       2.568   7.011  19.269  0.00  0.00    +0.000 A 
ATOM      8  C   UNL     1       2.868   7.430  17.970  0.00  0.00    +0.000 A 
ATOM      9  C   UNL     1       2.418   8.683  17.539  0.00  0.00    +0.000 A 
ATOM     10  C   UNL     1       1.647   9.490  18.389  0.00  0.00    +0.000 A 
BRANCH   5  11
ATOM     11  C   UNL     1       0.474   9.820  20.619  0.00  0.00    +0.000 C 
ATOM     12  O   UNL     1       0.327  11.031  20.563  0.00  0.00    +0.000 OA
BRANCH  11  13
ATOM     13  O   UNL     1      -0.018   9.001  21.580  0.00  0.00    +0.000 OA
BRANCH  13  15
ATOM     14  C   UNL     1      -1.016  10.370  23.258  0.00  0.00    +0.000 C 
ATOM     15  C   UNL     1       0.161   9.472  22.921  0.00  0.00    +0.000 C 
ENDBRANCH  13  15
ENDBRANCH  11  13
ENDBRANCH   5  11
ENDBRANCH   1   8
BRANCH   2  16
ATOM     16  C   UNL     1       5.472   5.859  15.702  0.00  0.00    +0.000 C 
BRANCH  16  17
ATOM     17  C   UNL     1       6.961   5.590  15.948  0.00  0.00    +0.000 C 
BRANCH  17  18
ATOM     18  C   UNL     1       7.246   4.384  16.849  0.00  0.00    +0.000 C 
BRANCH  18  19
ATOM     19  C   UNL     1       6.258   4.263  17.945  0.00  0.00    +0.000 A 
ATOM     20  N   UNL     1       5.046   3.766  17.939  0.00  0.00    +0.000 NA
ATOM     21  C   UNL     1       4.616   4.001  19.233  0.00  0.00    +0.000 A 
ATOM     22  N   UNL     1       5.540   4.601  20.001  0.00  0.00    +0.000 NA
ATOM     23  O   UNL     1       6.624   4.777  19.153  0.00  0.00    +0.000 OA
BRANCH  21  24
ATOM     24  C   UNL     1       3.305   3.555  19.693  0.00  0.00    +0.000 A 
ATOM     25  C   UNL     1       3.141   3.309  21.070  0.00  0.00    +0.000 A 
ATOM     26  C   UNL     1       1.912   2.897  21.591  0.00  0.00    +0.000 A 
ATOM     27  C   UNL     1       0.826   2.716  20.743  0.00  0.00    +0.000 A 
ATOM     28  C   UNL     1       0.971   2.942  19.374  0.00  0.00    +0.000 A 
ATOM     29  C   UNL     1       2.202   3.356  18.845  0.00  0.00    +0.000 A 
ATOM     30 CL   UNL     1       2.269   3.540  17.125  0.00  0.00    +0.000 Cl
ENDBRANCH  21  24
ENDBRANCH  18  19
ENDBRANCH  17  18
ENDBRANCH  16  17
ENDBRANCH   2  16
TORSDOF 9
ENDMDL
MODEL 8
REMARK VINA RESULT:      -6.9      3.350      7.529
REMARK  Name = 
REMARK  10 active torsions:
REMARK  status: ('A' for Active; 'I' for Inactive)
REMARK    1  A    between atoms: C_1  and  C_2
REMARK    2  A    between atoms: C_2  and  O_3
REMARK    3  A    between atoms: O_3  and  C_4
REMARK    4  A    between atoms: C_4  and  C_6
REMARK    5  A    between atoms: C_9  and  N_10
REMARK    6  A    between atoms: C_11  and  C_13
REMARK    7  A    between atoms: C_13  and  C_14
REMARK    8  A    between atoms: C_14  and  C_15
REMARK    9  A    between atoms: C_15  and  C_16
REMARK   10  A    between atoms: C_18  and  C_19
REMARK                            x       y       z     vdW  Elec       q    Type
REMARK                         _______ _______ _______ _____ _____    ______ ____
ROOT
ATOM      1  N   UNL     1       3.367   5.067  18.512  0.00  0.00    +0.000 N 
ATOM      2  C   UNL     1       2.228   4.308  18.725  0.00  0.00    +0.000 C 
ATOM      3  O   UNL     1       1.823   3.386  18.020  0.00  0.00    +0.000 OA
ATOM      4  H   UNL     1       3.682   5.673  19.260  0.00  0.00    +0.000 HD
ENDROOT
BRANCH   1   8
ATOM      5  C   UNL     1       5.944   4.864  15.166  0.00  0.00    +0.000 A 
ATOM      6  C   UNL     1       5.623   3.698  15.865  0.00  0.00    +0.000 A 
ATOM      7  C   UNL     1       4.768   3.750  16.965  0.00  0.00    +0.000 A 
ATOM      8  C   UNL     1       4.219   4.963  17.386  0.00  0.00    +0.000 A 
ATOM      9  C   UNL     1       4.519   6.130  16.673  0.00  0.00    +0.000 A 
ATOM     10  C   UNL     1       5.388   6.083  15.572  0.00  0.00    +0.000 A 
BRANCH   5  11
ATOM     11  C   UNL     1       6.924   4.742  14.056  0.00  0.00    +0.000 C 
ATOM     12  O   UNL     1       7.749   5.602  13.788  0.00  0.00    +0.000 OA
BRANCH  11  13
ATOM     13  O   UNL     1       6.687   3.615  13.341  0.00  0.00    +0.000 OA
BRANCH  13  15
ATOM     14  C   UNL     1       5.514   2.393  11.662  0.00  0.00    +0.000 C 
ATOM     15  C   UNL     1       5.599   3.710  12.413  0.00  0.00    +0.000 C 
ENDBRANCH  13  15
ENDBRANCH  11  13
ENDBRANCH   5  11
ENDBRANCH   1   8
BRANCH   2  16
ATOM     16  C   UNL     1       1.491   4.646  20.003  0.00  0.00    +0.000 C 
BRANCH  16  17
ATOM     17  C   UNL     1       2.219   5.757  20.769  0.00  0.00    +0.000 C 
BRANCH  17  18
ATOM     18  C   UNL     1       1.311   6.890  21.257  0.00  0.00    +0.000 C 
BRANCH  18  19
ATOM     19  C   UNL     1       1.344   8.059  20.349  0.00  0.00    +0.000 A 
ATOM     20  N   UNL     1       0.730   9.214  20.435  0.00  0.00    +0.000 NA
ATOM     21  C   UNL     1       1.107   9.845  19.264  0.00  0.00    +0.000 A 
ATOM     22  N   UNL     1       1.935   9.109  18.504  0.00  0.00    +0.000 NA
ATOM     23  O   UNL     1       2.091   7.930  19.217  0.00  0.00    +0.000 OA
BRANCH  21  24
ATOM     24  C   UNL     1       0.681  11.208  18.962  0.00  0.00    +0.000 A 
ATOM     25  C   UNL     1       1.630  12.240  19.107  0.00  0.00    +0.000 A 
ATOM     26  C   UNL     1       1.305  13.568  18.822  0.00  0.00    +0.000 A 
ATOM     27  C   UNL     1       0.023  13.890  18.391  0.00  0.00    +0.000 A 
ATOM     28  C   UNL     1      -0.934  12.885  18.253  0.00  0.00    +0.000 A 
ATOM     29  C   UNL     1      -0.614  11.550  18.539  0.00  0.00    +0.000 A 
ATOM     30 CL   UNL     1      -1.906  10.407  18.390  0.00  0.00    +0.000 Cl
ENDBRANCH  21  24
ENDBRANCH  18  19
ENDBRANCH  17  18
ENDBRANCH  16  17
ENDBRANCH   2  16
TORSDOF 9
ENDMDL
MODEL 9
REMARK VINA RESULT:      -6.9      3.737      8.563
REMARK  Name = 
REMARK  10 active torsions:
REMARK  status: ('A' for Active; 'I' for Inactive)
REMARK    1  A    between atoms: C_1  and  C_2
REMARK    2  A    between atoms: C_2  and  O_3
REMARK    3  A    between atoms: O_3  and  C_4
REMARK    4  A    between atoms: C_4  and  C_6
REMARK    5  A    between atoms: C_9  and  N_10
REMARK    6  A    between atoms: C_11  and  C_13
REMARK    7  A    between atoms: C_13  and  C_14
REMARK    8  A    between atoms: C_14  and  C_15
REMARK    9  A    between atoms: C_15  and  C_16
REMARK   10  A    between atoms: C_18  and  C_19
REMARK                            x       y       z     vdW  Elec       q    Type
REMARK                         _______ _______ _______ _____ _____    ______ ____
ROOT
ATOM      1  N   UNL     1       3.792   5.370  19.164  0.00  0.00    +0.000 N 
ATOM      2  C   UNL     1       2.643   4.703  19.554  0.00  0.00    +0.000 C 
ATOM      3  O   UNL     1       2.084   3.792  18.946  0.00  0.00    +0.000 OA
ATOM      4  H   UNL     1       4.245   5.973  19.839  0.00  0.00    +0.000 HD
ENDROOT
BRANCH   1   8
ATOM      5  C   UNL     1       5.877   4.874  15.518  0.00  0.00    +0.000 A 
ATOM      6  C   UNL     1       5.634   3.767  16.333  0.00  0.00    +0.000 A 
ATOM      7  C   UNL     1       4.941   3.915  17.534  0.00  0.00    +0.000 A 
ATOM      8  C   UNL     1       4.478   5.168  17.942  0.00  0.00    +0.000 A 
ATOM      9  C   UNL     1       4.697   6.276  17.115  0.00  0.00    +0.000 A 
ATOM     10  C   UNL     1       5.404   6.132  15.911  0.00  0.00    +0.000 A 
BRANCH   5  11
ATOM     11  C   UNL     1       6.691   4.652  14.295  0.00  0.00    +0.000 C 
ATOM     12  O   UNL     1       7.585   5.402  13.936  0.00  0.00    +0.000 OA
BRANCH  11  13
ATOM     13  O   UNL     1       6.219   3.586  13.604  0.00  0.00    +0.000 OA
BRANCH  13  15
ATOM     14  C   UNL     1       5.781   2.439  11.559  0.00  0.00    +0.000 C 
ATOM     15  C   UNL     1       6.533   3.589  12.206  0.00  0.00    +0.000 C 
ENDBRANCH  13  15
ENDBRANCH  11  13
ENDBRANCH   5  11
ENDBRANCH   1   8
BRANCH   2  16
ATOM     16  C   UNL     1       2.107   5.135  20.903  0.00  0.00    +0.000 C 
BRANCH  16  17
ATOM     17  C   UNL     1       1.093   6.274  20.742  0.00  0.00    +0.000 C 
BRANCH  17  18
ATOM     18  C   UNL     1       1.720   7.653  20.520  0.00  0.00    +0.000 C 
BRANCH  18  19
ATOM     19  C   UNL     1       1.002   8.716  21.261  0.00  0.00    +0.000 A 
ATOM     20  N   UNL     1       0.003   9.479  20.888  0.00  0.00    +0.000 NA
ATOM     21  C   UNL     1      -0.171  10.306  21.983  0.00  0.00    +0.000 A 
ATOM     22  N   UNL     1       0.679  10.043  22.990  0.00  0.00    +0.000 NA
ATOM     23  O   UNL     1       1.454   8.995  22.515  0.00  0.00    +0.000 OA
BRANCH  21  24
ATOM     24  C   UNL     1      -1.235  11.303  22.023  0.00  0.00    +0.000 A 
ATOM     25  C   UNL     1      -1.951  11.452  23.227  0.00  0.00    +0.000 A 
ATOM     26  C   UNL     1      -2.972  12.396  23.351  0.00  0.00    +0.000 A 
ATOM     27  C   UNL     1      -3.301  13.206  22.270  0.00  0.00    +0.000 A 
ATOM     28  C   UNL     1      -2.612  13.066  21.065  0.00  0.00    +0.000 A 
ATOM     29  C   UNL     1      -1.586  12.120  20.935  0.00  0.00    +0.000 A 
ATOM     30 CL   UNL     1      -0.852  12.001  19.371  0.00  0.00    +0.000 Cl
ENDBRANCH  21  24
ENDBRANCH  18  19
ENDBRANCH  17  18
ENDBRANCH  16  17
ENDBRANCH   2  16
TORSDOF 9
ENDMDL
