MODEL 1
REMARK VINA RESULT:      -7.3      0.000      0.000
REMARK  Name = 
REMARK  7 active torsions:
REMARK  status: ('A' for Active; 'I' for Inactive)
REMARK    1  A    between atoms: C_2  and  C_3
REMARK    2  A    between atoms: C_3  and  C_4
REMARK    3  A    between atoms: C_4  and  C_5
REMARK    4  A    between atoms: C_5  and  O_6
REMARK    5  A    between atoms: O_6  and  C_7
REMARK    6  A    between atoms: N_15  and  N_16
REMARK    7  A    between atoms: C_17  and  C_18
REMARK                            x       y       z     vdW  Elec       q    Type
REMARK                         _______ _______ _______ _____ _____    ______ ____
ROOT
ATOM      1  C   UNL     1       7.446   6.837  17.616  0.00  0.00    +0.000 C 
ENDROOT
BRANCH   1   3
ATOM      2  O   UNL     1       5.579   6.733  16.098  0.00  0.00    +0.000 OA
ATOM      3  C   UNL     1       6.750   6.441  16.326  0.00  0.00    +0.000 C 
ATOM      4  N   UNL     1       7.576   5.739  15.462  0.00  0.00    +0.000 N 
ATOM      5  H   UNL     1       8.540   5.537  15.704  0.00  0.00    +0.000 HD
BRANCH   4   6
ATOM      6  N   UNL     1       7.061   5.279  14.285  0.00  0.00    +0.000 NA
ATOM      7  C   UNL     1       6.545   4.092  14.297  0.00  0.00    +0.000 C 
BRANCH   7   8
ATOM      8  C   UNL     1       5.978   3.539  13.101  0.00  0.00    +0.000 A 
ATOM      9  C   UNL     1       6.503   2.721  12.120  0.00  0.00    +0.000 A 
ATOM     10  C   UNL     1       5.473   2.511  11.173  0.00  0.00    +0.000 A 
ATOM     11  C   UNL     1       4.383   3.210  11.636  0.00  0.00    +0.000 A 
ATOM     12  O   UNL     1       4.678   3.836  12.805  0.00  0.00    +0.000 OA
ENDBRANCH   7   8
ENDBRANCH   4   6
ENDBRANCH   1   3
BRANCH   1  13
ATOM     13  C   UNL     1       7.621   5.654  18.569  0.00  0.00    +0.000 C 
BRANCH  13  14
ATOM     14  C   UNL     1       6.354   5.371  19.377  0.00  0.00    +0.000 C 
BRANCH  14  15
ATOM     15  O   UNL     1       5.983   4.008  19.179  0.00  0.00    +0.000 OA
BRANCH  15  16
ATOM     16  C   UNL     1       4.647   3.733  19.036  0.00  0.00    +0.000 A 
ATOM     17  C   UNL     1       3.768   4.471  18.233  0.00  0.00    +0.000 A 
ATOM     18  C   UNL     1       2.425   4.097  18.120  0.00  0.00    +0.000 A 
ATOM     19  C   UNL     1       1.952   2.987  18.815  0.00  0.00    +0.000 A 
ATOM     20 CL   UNL     1       0.304   2.521  18.651  0.00  0.00    +0.000 Cl
ATOM     21  C   UNL     1       2.803   2.253  19.634  0.00  0.00    +0.000 A 
ATOM     22  C   UNL     1       4.144   2.628  19.745  0.00  0.00    +0.000 A 
ATOM     23 CL   UNL     1       5.162   1.682  20.776  0.00  0.00    +0.000 Cl
ENDBRANCH  15  16
ENDBRANCH  14  15
ENDBRANCH  13  14
ENDBRANCH   1  13
TORSDOF 7
ENDMDL
MODEL 2
REMARK VINA RESULT:      -7.0      1.202      1.581
REMARK  Name = 
REMARK  7 active torsions:
REMARK  status: ('A' for Active; 'I' for Inactive)
REMARK    1  A    between atoms: C_2  and  C_3
REMARK    2  A    between atoms: C_3  and  C_4
REMARK    3  A    between atoms: C_4  and  C_5
REMARK    4  A    between atoms: C_5  and  O_6
REMARK    5  A    between atoms: O_6  and  C_7
REMARK    6  A    between atoms: N_15  and  N_16
REMARK    7  A    between atoms: C_17  and  C_18
REMARK                            x       y       z     vdW  Elec       q    Type
REMARK                         _______ _______ _______ _____ _____    ______ ____
ROOT
ATOM      1  C   UNL     1       7.324   6.996  17.628  0.00  0.00    +0.000 C 
ENDROOT
BRANCH   1   3
ATOM      2  O   UNL     1       5.474   6.919  16.087  0.00  0.00    +0.000 OA
ATOM      3  C   UNL     1       6.630   6.591  16.340  0.00  0.00    +0.000 C 
ATOM      4  N   UNL     1       7.441   5.835  15.506  0.00  0.00    +0.000 N 
ATOM      5  H   UNL     1       8.393   5.604  15.767  0.00  0.00    +0.000 HD
BRANCH   4   6
ATOM      6  N   UNL     1       6.924   5.362  14.336  0.00  0.00    +0.000 NA
ATOM      7  C   UNL     1       6.589   4.112  14.306  0.00  0.00    +0.000 C 
BRANCH   7   8
ATOM      8  C   UNL     1       6.033   3.541  13.114  0.00  0.00    +0.000 A 
ATOM      9  C   UNL     1       6.568   2.709  12.150  0.00  0.00    +0.000 A 
ATOM     10  C   UNL     1       5.547   2.483  11.197  0.00  0.00    +0.000 A 
ATOM     11  C   UNL     1       4.452   3.188  11.640  0.00  0.00    +0.000 A 
ATOM     12  O   UNL     1       4.735   3.831  12.802  0.00  0.00    +0.000 OA
ENDBRANCH   7   8
ENDBRANCH   4   6
ENDBRANCH   1   3
BRANCH   1  13
ATOM     13  C   UNL     1       7.695   5.791  18.492  0.00  0.00    +0.000 C 
BRANCH  13  14
ATOM     14  C   UNL     1       6.702   4.640  18.334  0.00  0.00    +0.000 C 
BRANCH  14  15
ATOM     15  O   UNL     1       5.773   4.688  19.416  0.00  0.00    +0.000 OA
BRANCH  15  16
ATOM     16  C   UNL     1       4.575   4.040  19.248  0.00  0.00    +0.000 A 
ATOM     17  C   UNL     1       4.401   2.655  19.367  0.00  0.00    +0.000 A 
ATOM     18  C   UNL     1       3.134   2.084  19.211  0.00  0.00    +0.000 A 
ATOM     19  C   UNL     1       2.037   2.892  18.929  0.00  0.00    +0.000 A 
ATOM     20 CL   UNL     1       0.478   2.183  18.763  0.00  0.00    +0.000 Cl
ATOM     21  C   UNL     1       2.192   4.267  18.787  0.00  0.00    +0.000 A 
ATOM     22  C   UNL     1       3.458   4.836  18.943  0.00  0.00    +0.000 A 
ATOM     23 CL   UNL     1       3.599   6.551  18.757  0.00  0.00    +0.000 Cl
ENDBRANCH  15  16
ENDBRANCH  14  15
ENDBRANCH  13  14
ENDBRANCH   1  13
TORSDOF 7
ENDMDL
MODEL 3
REMARK VINA RESULT:      -6.9      4.046      7.035
REMARK  Name = 
REMARK  7 active torsions:
REMARK  status: ('A' for Active; 'I' for Inactive)
REMARK    1  A    between atoms: C_2  and  C_3
REMARK    2  A    between atoms: C_3  and  C_4
REMARK    3  A    between atoms: C_4  and  C_5
REMARK    4  A    between atoms: C_5  and  O_6
REMARK    5  A    between atoms: O_6  and  C_7
REMARK    6  A    between atoms: N_15  and  N_16
REMARK    7  A    between atoms: C_17  and  C_18
REMARK                            x       y       z     vdW  Elec       q    Type
REMARK                         _______ _______ _______ _____ _____    ______ ____
ROOT
ATOM      1  C   UNL     1       7.100   6.622  16.866  0.00  0.00    +0.000 C 
ENDROOT
BRANCH   1   3
ATOM      2  O   UNL     1       8.265   6.671  18.974  0.00  0.00    +0.000 OA
ATOM      3  C   UNL     1       7.865   7.293  17.994  0.00  0.00    +0.000 C 
ATOM      4  N   UNL     1       8.056   8.650  17.782  0.00  0.00    +0.000 N 
ATOM      5  H   UNL     1       7.709   9.106  16.945  0.00  0.00    +0.000 HD
BRANCH   4   6
ATOM      6  N   UNL     1       8.687   9.385  18.743  0.00  0.00    +0.000 NA
ATOM      7  C   UNL     1       9.260  10.480  18.360  0.00  0.00    +0.000 C 
BRANCH   7   8
ATOM      8  C   UNL     1       9.939  11.311  19.312  0.00  0.00    +0.000 A 
ATOM      9  C   UNL     1      11.258  11.704  19.422  0.00  0.00    +0.000 A 
ATOM     10  C   UNL     1      11.343  12.520  20.575  0.00  0.00    +0.000 A 
ATOM     11  C   UNL     1      10.071  12.577  21.094  0.00  0.00    +0.000 A 
ATOM     12  O   UNL     1       9.211  11.850  20.335  0.00  0.00    +0.000 OA
ENDBRANCH   7   8
ENDBRANCH   4   6
ENDBRANCH   1   3
BRANCH   1  13
ATOM     13  C   UNL     1       7.180   5.097  16.937  0.00  0.00    +0.000 C 
BRANCH  13  14
ATOM     14  C   UNL     1       6.052   4.423  16.156  0.00  0.00    +0.000 C 
BRANCH  14  15
ATOM     15  O   UNL     1       4.860   5.190  16.323  0.00  0.00    +0.000 OA
BRANCH  15  16
ATOM     16  C   UNL     1       3.899   4.687  17.163  0.00  0.00    +0.000 A 
ATOM     17  C   UNL     1       3.612   3.324  17.311  0.00  0.00    +0.000 A 
ATOM     18  C   UNL     1       2.636   2.899  18.218  0.00  0.00    +0.000 A 
ATOM     19  C   UNL     1       1.938   3.834  18.976  0.00  0.00    +0.000 A 
ATOM     20 CL   UNL     1       0.755   3.301  20.106  0.00  0.00    +0.000 Cl
ATOM     21  C   UNL     1       2.192   5.193  18.829  0.00  0.00    +0.000 A 
ATOM     22  C   UNL     1       3.168   5.616  17.923  0.00  0.00    +0.000 A 
ATOM     23 CL   UNL     1       3.449   7.318  17.776  0.00  0.00    +0.000 Cl
ENDBRANCH  15  16
ENDBRANCH  14  15
ENDBRANCH  13  14
ENDBRANCH   1  13
TORSDOF 7
ENDMDL
MODEL 4
REMARK VINA RESULT:      -6.8      1.807      2.305
REMARK  Name = 
REMARK  7 active torsions:
REMARK  status: ('A' for Active; 'I' for Inactive)
REMARK    1  A    between atoms: C_2  and  C_3
REMARK    2  A    between atoms: C_3  and  C_4
REMARK    3  A    between atoms: C_4  and  C_5
REMARK    4  A    between atoms: C_5  and  O_6
REMARK    5  A    between atoms: O_6  and  C_7
REMARK    6  A    between atoms: N_15  and  N_16
REMARK    7  A    between atoms: C_17  and  C_18
REMARK                            x       y       z     vdW  Elec       q    Type
REMARK                         _______ _______ _______ _____ _____    ______ ____
ROOT
ATOM      1  C   UNL     1       7.232   6.639  17.057  0.00  0.00    +0.000 C 
ENDROOT
BRANCH   1   3
ATOM      2  O   UNL     1       7.890   4.389  16.504  0.00  0.00    +0.000 OA
ATOM      3  C   UNL     1       7.156   5.345  16.266  0.00  0.00    +0.000 C 
ATOM      4  N   UNL     1       6.180   5.372  15.281  0.00  0.00    +0.000 N 
ATOM      5  H   UNL     1       5.598   6.190  15.140  0.00  0.00    +0.000 HD
BRANCH   4   6
ATOM      6  N   UNL     1       6.039   4.289  14.463  0.00  0.00    +0.000 NA
ATOM      7  C   UNL     1       6.498   4.402  13.258  0.00  0.00    +0.000 C 
BRANCH   7   8
ATOM      8  C   UNL     1       6.392   3.305  12.340  0.00  0.00    +0.000 A 
ATOM      9  C   UNL     1       5.313   2.560  11.909  0.00  0.00    +0.000 A 
ATOM     10  C   UNL     1       5.820   1.598  11.003  0.00  0.00    +0.000 A 
ATOM     11  C   UNL     1       7.176   1.818  10.935  0.00  0.00    +0.000 A 
ATOM     12  O   UNL     1       7.533   2.852  11.740  0.00  0.00    +0.000 OA
ENDBRANCH   7   8
ENDBRANCH   4   6
ENDBRANCH   1   3
BRANCH   1  13
ATOM     13  C   UNL     1       7.626   6.407  18.515  0.00  0.00    +0.000 C 
BRANCH  13  14
ATOM     14  C   UNL     1       6.707   5.401  19.208  0.00  0.00    +0.000 C 
BRANCH  14  15
ATOM     15  O   UNL     1       5.384   5.935  19.234  0.00  0.00    +0.000 OA
BRANCH  15  16
ATOM     16  C   UNL     1       4.344   5.049  19.105  0.00  0.00    +0.000 A 
ATOM     17  C   UNL     1       4.393   3.707  19.505  0.00  0.00    +0.000 A 
ATOM     18  C   UNL     1       3.271   2.884  19.365  0.00  0.00    +0.000 A 
ATOM     19  C   UNL     1       2.098   3.395  18.818  0.00  0.00    +0.000 A 
ATOM     20 CL   UNL     1       0.715   2.381  18.672  0.00  0.00    +0.000 Cl
ATOM     21  C   UNL     1       2.035   4.718  18.395  0.00  0.00    +0.000 A 
ATOM     22  C   UNL     1       3.156   5.540  18.536  0.00  0.00    +0.000 A 
ATOM     23 CL   UNL     1       3.028   7.178  17.994  0.00  0.00    +0.000 Cl
ENDBRANCH  15  16
ENDBRANCH  14  15
ENDBRANCH  13  14
ENDBRANCH   1  13
TORSDOF 7
ENDMDL
MODEL 5
REMARK VINA RESULT:      -6.7      4.650      7.544
REMARK  Name = 
REMARK  7 active torsions:
REMARK  status: ('A' for Active; 'I' for Inactive)
REMARK    1  A    between atoms: C_2  and  C_3
REMARK    2  A    between atoms: C_3  and  C_4
REMARK    3  A    between atoms: C_4  and  C_5
REMARK    4  A    between atoms: C_5  and  O_6
REMARK    5  A    between atoms: O_6  and  C_7
REMARK    6  A    between atoms: N_15  and  N_16
REMARK    7  A    between atoms: C_17  and  C_18
REMARK                            x       y       z     vdW  Elec       q    Type
REMARK                         _______ _______ _______ _____ _____    ______ ____
ROOT
ATOM      1  C   UNL     1       2.411   3.356  21.474  0.00  0.00    +0.000 C 
ENDROOT
BRANCH   1   3
ATOM      2  O   UNL     1       0.573   4.318  20.250  0.00  0.00    +0.000 OA
ATOM      3  C   UNL     1       1.661   4.487  20.793  0.00  0.00    +0.000 C 
ATOM      4  N   UNL     1       2.332   5.699  20.867  0.00  0.00    +0.000 N 
ATOM      5  H   UNL     1       3.226   5.777  21.339  0.00  0.00    +0.000 HD
BRANCH   4   6
ATOM      6  N   UNL     1       1.792   6.790  20.252  0.00  0.00    +0.000 NA
ATOM      7  C   UNL     1       1.473   7.790  21.008  0.00  0.00    +0.000 C 
BRANCH   7   8
ATOM      8  C   UNL     1       0.905   8.976  20.436  0.00  0.00    +0.000 A 
ATOM      9  C   UNL     1       0.076   9.950  20.958  0.00  0.00    +0.000 A 
ATOM     10  C   UNL     1      -0.165  10.877  19.917  0.00  0.00    +0.000 A 
ATOM     11  C   UNL     1       0.532  10.414  18.825  0.00  0.00    +0.000 A 
ATOM     12  O   UNL     1       1.186   9.263  19.130  0.00  0.00    +0.000 OA
ENDBRANCH   7   8
ENDBRANCH   4   6
ENDBRANCH   1   3
BRANCH   1  13
ATOM     13  C   UNL     1       2.954   2.334  20.475  0.00  0.00    +0.000 C 
BRANCH  13  14
ATOM     14  C   UNL     1       4.382   2.659  20.035  0.00  0.00    +0.000 C 
BRANCH  14  15
ATOM     15  O   UNL     1       4.413   3.996  19.539  0.00  0.00    +0.000 OA
BRANCH  15  16
ATOM     16  C   UNL     1       5.087   4.217  18.364  0.00  0.00    +0.000 A 
ATOM     17  C   UNL     1       6.445   4.547  18.281  0.00  0.00    +0.000 A 
ATOM     18  C   UNL     1       7.057   4.721  17.036  0.00  0.00    +0.000 A 
ATOM     19  C   UNL     1       6.314   4.573  15.868  0.00  0.00    +0.000 A 
ATOM     20 CL   UNL     1       7.082   4.766  14.340  0.00  0.00    +0.000 Cl
ATOM     21  C   UNL     1       4.959   4.266  15.930  0.00  0.00    +0.000 A 
ATOM     22  C   UNL     1       4.349   4.092  17.174  0.00  0.00    +0.000 A 
ATOM     23 CL   UNL     1       2.661   3.710  17.198  0.00  0.00    +0.000 Cl
ENDBRANCH  15  16
ENDBRANCH  14  15
ENDBRANCH  13  14
ENDBRANCH   1  13
TORSDOF 7
ENDMDL
MODEL 6
REMARK VINA RESULT:      -6.7      3.412      6.211
REMARK  Name = 
REMARK  7 active torsions:
REMARK  status: ('A' for Active; 'I' for Inactive)
REMARK    1  A    between atoms: C_2  and  C_3
REMARK    2  A    between atoms: C_3  and  C_4
REMARK    3  A    between atoms: C_4  and  C_5
REMARK    4  A    between atoms: C_5  and  O_6
REMARK    5  A    between atoms: O_6  and  C_7
REMARK    6  A    between atoms: N_15  and  N_16
REMARK    7  A    between atoms: C_17  and  C_18
REMARK                            x       y       z     vdW  Elec       q    Type
REMARK                         _______ _______ _______ _____ _____    ______ ____
ROOT
ATOM      1  C   UNL     1       6.944   4.460  17.477  0.00  0.00    +0.000 C 
ENDROOT
BRANCH   1   3
ATOM      2  O   UNL     1       8.067   5.279  19.445  0.00  0.00    +0.000 OA
ATOM      3  C   UNL     1       7.618   5.522  18.328  0.00  0.00    +0.000 C 
ATOM      4  N   UNL     1       7.671   6.759  17.703  0.00  0.00    +0.000 N 
ATOM      5  H   UNL     1       7.291   6.895  16.773  0.00  0.00    +0.000 HD
BRANCH   4   6
ATOM      6  N   UNL     1       8.208   7.817  18.378  0.00  0.00    +0.000 NA
ATOM      7  C   UNL     1       8.217   8.957  17.767  0.00  0.00    +0.000 C 
BRANCH   7   8
ATOM      8  C   UNL     1       8.759  10.118  18.412  0.00  0.00    +0.000 A 
ATOM      9  C   UNL     1       8.887  11.430  18.001  0.00  0.00    +0.000 A 
ATOM     10  C   UNL     1       9.512  12.128  19.061  0.00  0.00    +0.000 A 
ATOM     11  C   UNL     1       9.725  11.200  20.054  0.00  0.00    +0.000 A 
ATOM     12  O   UNL     1       9.270   9.979  19.671  0.00  0.00    +0.000 OA
ENDBRANCH   7   8
ENDBRANCH   4   6
ENDBRANCH   1   3
BRANCH   1  13
ATOM     13  C   UNL     1       6.091   5.065  16.362  0.00  0.00    +0.000 C 
BRANCH  13  14
ATOM     14  C   UNL     1       4.676   4.488  16.340  0.00  0.00    +0.000 C 
BRANCH  14  15
ATOM     15  O   UNL     1       4.315   4.114  17.669  0.00  0.00    +0.000 OA
BRANCH  15  16
ATOM     16  C   UNL     1       3.610   5.027  18.411  0.00  0.00    +0.000 A 
ATOM     17  C   UNL     1       3.344   6.341  18.006  0.00  0.00    +0.000 A 
ATOM     18  C   UNL     1       2.586   7.194  18.815  0.00  0.00    +0.000 A 
ATOM     19  C   UNL     1       2.095   6.740  20.035  0.00  0.00    +0.000 A 
ATOM     20 CL   UNL     1       1.144   7.788  21.013  0.00  0.00    +0.000 Cl
ATOM     21  C   UNL     1       2.366   5.445  20.466  0.00  0.00    +0.000 A 
ATOM     22  C   UNL     1       3.122   4.594  19.657  0.00  0.00    +0.000 A 
ATOM     23 CL   UNL     1       3.431   2.994  20.237  0.00  0.00    +0.000 Cl
ENDBRANCH  15  16
ENDBRANCH  14  15
ENDBRANCH  13  14
ENDBRANCH   1  13
TORSDOF 7
ENDMDL
MODEL 7
REMARK VINA RESULT:      -6.7      3.888      6.599
REMARK  Name = 
REMARK  7 active torsions:
REMARK  status: ('A' for Active; 'I' for Inactive)
REMARK    1  A    between atoms: C_2  and  C_3
REMARK    2  A    between atoms: C_3  and  C_4
REMARK    3  A    between atoms: C_4  and  C_5
REMARK    4  A    between atoms: C_5  and  O_6
REMARK    5  A    between atoms: O_6  and  C_7
REMARK    6  A    between atoms: N_15  and  N_16
REMARK    7  A    between atoms: C_17  and  C_18
REMARK                            x       y       z     vdW  Elec       q    Type
REMARK                         _______ _______ _______ _____ _____    ______ ____
ROOT
ATOM      1  C   UNL     1       7.470   5.799  18.550  0.00  0.00    +0.000 C 
ENDROOT
BRANCH   1   3
ATOM      2  O   UNL     1       7.197   7.545  16.912  0.00  0.00    +0.000 OA
ATOM      3  C   UNL     1       7.688   7.190  17.981  0.00  0.00    +0.000 C 
ATOM      4  N   UNL     1       8.477   7.988  18.796  0.00  0.00    +0.000 N 
ATOM      5  H   UNL     1       8.846   7.641  19.674  0.00  0.00    +0.000 HD
BRANCH   4   6
ATOM      6  N   UNL     1       8.793   9.248  18.378  0.00  0.00    +0.000 NA
ATOM      7  C   UNL     1       9.205  10.078  19.282  0.00  0.00    +0.000 C 
BRANCH   7   8
ATOM      8  C   UNL     1       9.562  11.420  18.921  0.00  0.00    +0.000 A 
ATOM      9  C   UNL     1       9.526  12.607  19.625  0.00  0.00    +0.000 A 
ATOM     10  C   UNL     1       9.991  13.614  18.746  0.00  0.00    +0.000 A 
ATOM     11  C   UNL     1      10.285  12.978  17.562  0.00  0.00    +0.000 A 
ATOM     12  O   UNL     1      10.031  11.647  17.658  0.00  0.00    +0.000 OA
ENDBRANCH   7   8
ENDBRANCH   4   6
ENDBRANCH   1   3
BRANCH   1  13
ATOM     13  C   UNL     1       7.513   4.717  17.472  0.00  0.00    +0.000 C 
BRANCH  13  14
ATOM     14  C   UNL     1       6.258   4.722  16.599  0.00  0.00    +0.000 C 
BRANCH  14  15
ATOM     15  O   UNL     1       5.219   4.032  17.292  0.00  0.00    +0.000 OA
BRANCH  15  16
ATOM     16  C   UNL     1       4.357   4.786  18.047  0.00  0.00    +0.000 A 
ATOM     17  C   UNL     1       3.869   6.044  17.673  0.00  0.00    +0.000 A 
ATOM     18  C   UNL     1       2.966   6.728  18.494  0.00  0.00    +0.000 A 
ATOM     19  C   UNL     1       2.551   6.160  19.695  0.00  0.00    +0.000 A 
ATOM     20 CL   UNL     1       1.421   6.997  20.686  0.00  0.00    +0.000 Cl
ATOM     21  C   UNL     1       3.039   4.921  20.095  0.00  0.00    +0.000 A 
ATOM     22  C   UNL     1       3.941   4.239  19.274  0.00  0.00    +0.000 A 
ATOM     23 CL   UNL     1       4.519   2.701  19.816  0.00  0.00    +0.000 Cl
ENDBRANCH  15  16
ENDBRANCH  14  15
ENDBRANCH  13  14
ENDBRANCH   1  13
TORSDOF 7
ENDMDL
MODEL 8
REMARK VINA RESULT:      -6.6      3.557      6.361
REMARK  Name = 
REMARK  7 active torsions:
REMARK  status: ('A' for Active; 'I' for Inactive)
REMARK    1  A    between atoms: C_2  and  C_3
REMARK    2  A    between atoms: C_3  and  C_4
REMARK    3  A    between atoms: C_4  and  C_5
REMARK    4  A    between atoms: C_5  and  O_6
REMARK    5  A    between atoms: O_6  and  C_7
REMARK    6  A    between atoms: N_15  and  N_16
REMARK    7  A    between atoms: C_17  and  C_18
REMARK                            x       y       z     vdW  Elec       q    Type
REMARK                         _______ _______ _______ _____ _____    ______ ____
ROOT
ATOM      1  C   UNL     1       6.201   5.764  17.388  0.00  0.00    +0.000 C 
ENDROOT
BRANCH   1   3
ATOM      2  O   UNL     1       8.079   6.059  18.868  0.00  0.00    +0.000 OA
ATOM      3  C   UNL     1       7.361   6.535  17.993  0.00  0.00    +0.000 C 
ATOM      4  N   UNL     1       7.510   7.801  17.444  0.00  0.00    +0.000 N 
ATOM      5  H   UNL     1       6.889   8.134  16.715  0.00  0.00    +0.000 HD
BRANCH   4   6
ATOM      6  N   UNL     1       8.486   8.620  17.933  0.00  0.00    +0.000 NA
ATOM      7  C   UNL     1       8.202   9.880  18.020  0.00  0.00    +0.000 C 
BRANCH   7   8
ATOM      8  C   UNL     1       9.173  10.805  18.529  0.00  0.00    +0.000 A 
ATOM      9  C   UNL     1       9.985  10.774  19.646  0.00  0.00    +0.000 A 
ATOM     10  C   UNL     1      10.732  11.975  19.638  0.00  0.00    +0.000 A 
ATOM     11  C   UNL     1      10.333  12.663  18.517  0.00  0.00    +0.000 A 
ATOM     12  O   UNL     1       9.389  11.962  17.836  0.00  0.00    +0.000 OA
ENDBRANCH   7   8
ENDBRANCH   4   6
ENDBRANCH   1   3
BRANCH   1  13
ATOM     13  C   UNL     1       5.134   6.687  16.800  0.00  0.00    +0.000 C 
BRANCH  13  14
ATOM     14  C   UNL     1       3.811   6.601  17.563  0.00  0.00    +0.000 C 
BRANCH  14  15
ATOM     15  O   UNL     1       3.301   5.274  17.440  0.00  0.00    +0.000 OA
BRANCH  15  16
ATOM     16  C   UNL     1       2.807   4.681  18.574  0.00  0.00    +0.000 A 
ATOM     17  C   UNL     1       2.151   5.367  19.605  0.00  0.00    +0.000 A 
ATOM     18  C   UNL     1       1.650   4.675  20.711  0.00  0.00    +0.000 A 
ATOM     19  C   UNL     1       1.807   3.294  20.797  0.00  0.00    +0.000 A 
ATOM     20 CL   UNL     1       1.166   2.448  22.151  0.00  0.00    +0.000 Cl
ATOM     21  C   UNL     1       2.474   2.597  19.795  0.00  0.00    +0.000 A 
ATOM     22  C   UNL     1       2.973   3.290  18.690  0.00  0.00    +0.000 A 
ATOM     23 CL   UNL     1       3.794   2.378  17.470  0.00  0.00    +0.000 Cl
ENDBRANCH  15  16
ENDBRANCH  14  15
ENDBRANCH  13  14
ENDBRANCH   1  13
TORSDOF 7
ENDMDL
MODEL 9
REMARK VINA RESULT:      -6.6      4.256      5.787
REMARK  Name = 
REMARK  7 active torsions:
REMARK  status: ('A' for Active; 'I' for Inactive)
REMARK    1  A    between atoms: C_2  and  C_3
REMARK    2  A    between atoms: C_3  and  C_4
REMARK    3  A    between atoms: C_4  and  C_5
REMARK    4  A    between atoms: C_5  and  O_6
REMARK    5  A    between atoms: O_6  and  C_7
REMARK    6  A    between atoms: N_15  and  N_16
REMARK    7  A    between atoms: C_17  and  C_18
REMARK                            x       y       z     vdW  Elec       q    Type
REMARK                         _______ _______ _______ _____ _____    ______ ____
ROOT
ATOM      1  C   UNL     1       1.187   2.922  19.966  0.00  0.00    +0.000 C 
ENDROOT
BRANCH   1   3
ATOM      2  O   UNL     1       3.270   1.988  19.197  0.00  0.00    +0.000 OA
ATOM      3  C   UNL     1       2.345   2.770  18.996  0.00  0.00    +0.000 C 
ATOM      4  N   UNL     1       2.227   3.591  17.884  0.00  0.00    +0.000 N 
ATOM      5  H   UNL     1       1.432   4.210  17.770  0.00  0.00    +0.000 HD
BRANCH   4   6
ATOM      6  N   UNL     1       3.226   3.590  16.955  0.00  0.00    +0.000 NA
ATOM      7  C   UNL     1       4.175   4.455  17.116  0.00  0.00    +0.000 C 
BRANCH   7   8
ATOM      8  C   UNL     1       5.264   4.513  16.184  0.00  0.00    +0.000 A 
ATOM      9  C   UNL     1       5.323   4.333  14.817  0.00  0.00    +0.000 A 
ATOM     10  C   UNL     1       6.677   4.503  14.443  0.00  0.00    +0.000 A 
ATOM     11  C   UNL     1       7.360   4.779  15.604  0.00  0.00    +0.000 A 
ATOM     12  O   UNL     1       6.513   4.790  16.666  0.00  0.00    +0.000 OA
ENDBRANCH   7   8
ENDBRANCH   4   6
ENDBRANCH   1   3
BRANCH   1  13
ATOM     13  C   UNL     1       0.956   4.378  20.371  0.00  0.00    +0.000 C 
BRANCH  13  14
ATOM     14  C   UNL     1       2.240   5.055  20.851  0.00  0.00    +0.000 C 
BRANCH  14  15
ATOM     15  O   UNL     1       2.594   6.074  19.917  0.00  0.00    +0.000 OA
BRANCH  15  16
ATOM     16  C   UNL     1       1.931   7.272  20.011  0.00  0.00    +0.000 A 
ATOM     17  C   UNL     1       1.163   7.668  21.113  0.00  0.00    +0.000 A 
ATOM     18  C   UNL     1       0.548   8.924  21.135  0.00  0.00    +0.000 A 
ATOM     19  C   UNL     1       0.692   9.787  20.053  0.00  0.00    +0.000 A 
ATOM     20 CL   UNL     1      -0.048  11.340  20.099  0.00  0.00    +0.000 Cl
ATOM     21  C   UNL     1       1.433   9.405  18.939  0.00  0.00    +0.000 A 
ATOM     22  C   UNL     1       2.047   8.150  18.919  0.00  0.00    +0.000 A 
ATOM     23 CL   UNL     1       2.958   7.722  17.512  0.00  0.00    +0.000 Cl
ENDBRANCH  15  16
ENDBRANCH  14  15
ENDBRANCH  13  14
ENDBRANCH   1  13
TORSDOF 7
ENDMDL
