MODEL 1
REMARK VINA RESULT:      -6.6      0.000      0.000
REMARK  Name = 
REMARK  6 active torsions:
REMARK  status: ('A' for Active; 'I' for Inactive)
REMARK    1  A    between atoms: N_2  and  C_4
REMARK    2  A    between atoms: C_5  and  S_6
REMARK    3  A    between atoms: S_6  and  C_7
REMARK    4  A    between atoms: C_14  and  S_15
REMARK    5  A    between atoms: S_15  and  C_16
REMARK    6  A    between atoms: C_22  and  N_23
REMARK                            x       y       z     vdW  Elec       q    Type
REMARK                         _______ _______ _______ _____ _____    ______ ____
ROOT
ATOM      1  C   UNL     1      -5.370  12.518  21.219  0.00  0.00    +0.000 A 
ATOM      2  C   UNL     1      -4.891  12.594  19.926  0.00  0.00    +0.000 A 
ATOM      3  S   UNL     1      -3.193  12.832  19.920  0.00  0.00    +0.000 S 
ATOM      4  C   UNL     1      -3.104  12.907  21.631  0.00  0.00    +0.000 A 
ATOM      5  C   UNL     1      -4.362  12.797  22.191  0.00  0.00    +0.000 A 
ENDROOT
BRANCH   1   7
ATOM      6  O   UNL     1      -7.056  11.046  21.620  0.00  0.00    +0.000 OA
ATOM      7  N   UNL     1      -6.738  12.237  21.540  0.00  0.00    +0.000 N 
ATOM      8  O   UNL     1      -7.464  13.214  21.729  0.00  0.00    +0.000 OA
ENDBRANCH   1   7
BRANCH   5   9
ATOM      9  N   UNL     1      -4.606  12.910  23.596  0.00  0.00    +0.000 N 
ATOM     10  O   UNL     1      -4.970  14.024  23.993  0.00  0.00    +0.000 OA
ATOM     11  O   UNL     1      -4.425  11.900  24.284  0.00  0.00    +0.000 OA
ENDBRANCH   5   9
BRANCH   2  12
ATOM     12  S   UNL     1      -5.775  12.395  18.412  0.00  0.00    +0.000 S 
BRANCH  12  13
ATOM     13  C   UNL     1      -4.646  11.335  17.516  0.00  0.00    +0.000 A 
ATOM     14  C   UNL     1      -4.235  11.664  16.218  0.00  0.00    +0.000 A 
ATOM     15  C   UNL     1      -3.250  10.909  15.573  0.00  0.00    +0.000 A 
ATOM     16  C   UNL     1      -2.663   9.825  16.222  0.00  0.00    +0.000 A 
ATOM     17  C   UNL     1      -3.068   9.487  17.512  0.00  0.00    +0.000 A 
ATOM     18  C   UNL     1      -4.055  10.239  18.158  0.00  0.00    +0.000 A 
ENDBRANCH  12  13
ENDBRANCH   2  12
BRANCH   4  19
ATOM     19  S   UNL     1      -1.561  13.184  22.440  0.00  0.00    +0.000 S 
BRANCH  19  20
ATOM     20  C   UNL     1      -0.792  11.585  22.212  0.00  0.00    +0.000 A 
ATOM     21  C   UNL     1       0.119  11.376  21.170  0.00  0.00    +0.000 A 
ATOM     22  C   UNL     1       0.820  10.170  21.071  0.00  0.00    +0.000 A 
ATOM     23  C   UNL     1       0.622   9.166  22.015  0.00  0.00    +0.000 A 
ATOM     24  C   UNL     1      -0.287   9.361  23.054  0.00  0.00    +0.000 A 
ATOM     25  C   UNL     1      -0.990  10.568  23.154  0.00  0.00    +0.000 A 
ENDBRANCH  19  20
ENDBRANCH   4  19
TORSDOF 6
ENDMDL
MODEL 2
REMARK VINA RESULT:      -6.6      8.693     10.537
REMARK  Name = 
REMARK  6 active torsions:
REMARK  status: ('A' for Active; 'I' for Inactive)
REMARK    1  A    between atoms: N_2  and  C_4
REMARK    2  A    between atoms: C_5  and  S_6
REMARK    3  A    between atoms: S_6  and  C_7
REMARK    4  A    between atoms: C_14  and  S_15
REMARK    5  A    between atoms: S_15  and  C_16
REMARK    6  A    between atoms: C_22  and  N_23
REMARK                            x       y       z     vdW  Elec       q    Type
REMARK                         _______ _______ _______ _____ _____    ______ ____
ROOT
ATOM      1  C   UNL     1       2.617   4.145  20.199  0.00  0.00    +0.000 A 
ATOM      2  C   UNL     1       2.465   5.511  20.060  0.00  0.00    +0.000 A 
ATOM      3  S   UNL     1       3.383   6.094  18.735  0.00  0.00    +0.000 S 
ATOM      4  C   UNL     1       4.039   4.547  18.390  0.00  0.00    +0.000 A 
ATOM      5  C   UNL     1       3.594   3.612  19.304  0.00  0.00    +0.000 A 
ENDROOT
BRANCH   1   7
ATOM      6  O   UNL     1       2.424   3.250  22.280  0.00  0.00    +0.000 OA
ATOM      7  N   UNL     1       1.904   3.364  21.165  0.00  0.00    +0.000 N 
ATOM      8  O   UNL     1       0.825   2.898  20.799  0.00  0.00    +0.000 OA
ENDBRANCH   1   7
BRANCH   5   9
ATOM      9  N   UNL     1       4.042   2.254  19.316  0.00  0.00    +0.000 N 
ATOM     10  O   UNL     1       4.949   1.991  20.116  0.00  0.00    +0.000 OA
ATOM     11  O   UNL     1       3.498   1.473  18.528  0.00  0.00    +0.000 OA
ENDBRANCH   5   9
BRANCH   2  12
ATOM     12  S   UNL     1       1.432   6.602  20.986  0.00  0.00    +0.000 S 
BRANCH  12  13
ATOM     13  C   UNL     1       1.508   8.066  19.962  0.00  0.00    +0.000 A 
ATOM     14  C   UNL     1       1.870   7.976  18.612  0.00  0.00    +0.000 A 
ATOM     15  C   UNL     1       1.796   9.099  17.780  0.00  0.00    +0.000 A 
ATOM     16  C   UNL     1       1.355  10.318  18.289  0.00  0.00    +0.000 A 
ATOM     17  C   UNL     1       0.996  10.419  19.633  0.00  0.00    +0.000 A 
ATOM     18  C   UNL     1       1.071   9.298  20.466  0.00  0.00    +0.000 A 
ENDBRANCH  12  13
ENDBRANCH   2  12
BRANCH   4  19
ATOM     19  S   UNL     1       5.188   4.332  17.068  0.00  0.00    +0.000 S 
BRANCH  19  20
ATOM     20  C   UNL     1       6.461   5.487  17.563  0.00  0.00    +0.000 A 
ATOM     21  C   UNL     1       6.612   6.708  16.896  0.00  0.00    +0.000 A 
ATOM     22  C   UNL     1       7.516   7.667  17.364  0.00  0.00    +0.000 A 
ATOM     23  C   UNL     1       8.272   7.416  18.507  0.00  0.00    +0.000 A 
ATOM     24  C   UNL     1       8.133   6.201  19.177  0.00  0.00    +0.000 A 
ATOM     25  C   UNL     1       7.229   5.240  18.708  0.00  0.00    +0.000 A 
ENDBRANCH  19  20
ENDBRANCH   4  19
TORSDOF 6
ENDMDL
MODEL 3
REMARK VINA RESULT:      -6.6      0.139      1.157
REMARK  Name = 
REMARK  6 active torsions:
REMARK  status: ('A' for Active; 'I' for Inactive)
REMARK    1  A    between atoms: N_2  and  C_4
REMARK    2  A    between atoms: C_5  and  S_6
REMARK    3  A    between atoms: S_6  and  C_7
REMARK    4  A    between atoms: C_14  and  S_15
REMARK    5  A    between atoms: S_15  and  C_16
REMARK    6  A    between atoms: C_22  and  N_23
REMARK                            x       y       z     vdW  Elec       q    Type
REMARK                         _______ _______ _______ _____ _____    ______ ____
ROOT
ATOM      1  C   UNL     1      -5.424  12.498  21.233  0.00  0.00    +0.000 A 
ATOM      2  C   UNL     1      -4.910  12.528  19.951  0.00  0.00    +0.000 A 
ATOM      3  S   UNL     1      -3.213  12.772  19.982  0.00  0.00    +0.000 S 
ATOM      4  C   UNL     1      -3.172  12.911  21.692  0.00  0.00    +0.000 A 
ATOM      5  C   UNL     1      -4.443  12.817  22.221  0.00  0.00    +0.000 A 
ENDROOT
BRANCH   1   7
ATOM      6  O   UNL     1      -7.113  11.037  21.662  0.00  0.00    +0.000 OA
ATOM      7  N   UNL     1      -6.799  12.224  21.527  0.00  0.00    +0.000 N 
ATOM      8  O   UNL     1      -7.537  13.204  21.641  0.00  0.00    +0.000 OA
ENDBRANCH   1   7
BRANCH   5   9
ATOM      9  N   UNL     1      -4.727  12.981  23.613  0.00  0.00    +0.000 N 
ATOM     10  O   UNL     1      -4.600  11.969  24.314  0.00  0.00    +0.000 OA
ATOM     11  O   UNL     1      -5.080  14.104  23.989  0.00  0.00    +0.000 OA
ENDBRANCH   5   9
BRANCH   2  12
ATOM     12  S   UNL     1      -5.752  12.269  18.423  0.00  0.00    +0.000 S 
BRANCH  12  13
ATOM     13  C   UNL     1      -4.505  11.360  17.517  0.00  0.00    +0.000 A 
ATOM     14  C   UNL     1      -3.893  10.234  18.080  0.00  0.00    +0.000 A 
ATOM     15  C   UNL     1      -3.021   9.446  17.320  0.00  0.00    +0.000 A 
ATOM     16  C   UNL     1      -2.760   9.773  15.992  0.00  0.00    +0.000 A 
ATOM     17  C   UNL     1      -3.362  10.895  15.424  0.00  0.00    +0.000 A 
ATOM     18  C   UNL     1      -4.232  11.685  16.182  0.00  0.00    +0.000 A 
ENDBRANCH  12  13
ENDBRANCH   2  12
BRANCH   4  19
ATOM     19  S   UNL     1      -1.652  13.223  22.531  0.00  0.00    +0.000 S 
BRANCH  19  20
ATOM     20  C   UNL     1      -0.828  11.654  22.292  0.00  0.00    +0.000 A 
ATOM     21  C   UNL     1       0.149  11.508  21.300  0.00  0.00    +0.000 A 
ATOM     22  C   UNL     1       0.888  10.324  21.199  0.00  0.00    +0.000 A 
ATOM     23  C   UNL     1       0.659   9.280  22.091  0.00  0.00    +0.000 A 
ATOM     24  C   UNL     1      -0.316   9.412  23.079  0.00  0.00    +0.000 A 
ATOM     25  C   UNL     1      -1.055  10.596  23.181  0.00  0.00    +0.000 A 
ENDBRANCH  19  20
ENDBRANCH   4  19
TORSDOF 6
ENDMDL
MODEL 4
REMARK VINA RESULT:      -6.6      8.681     10.868
REMARK  Name = 
REMARK  6 active torsions:
REMARK  status: ('A' for Active; 'I' for Inactive)
REMARK    1  A    between atoms: N_2  and  C_4
REMARK    2  A    between atoms: C_5  and  S_6
REMARK    3  A    between atoms: S_6  and  C_7
REMARK    4  A    between atoms: C_14  and  S_15
REMARK    5  A    between atoms: S_15  and  C_16
REMARK    6  A    between atoms: C_22  and  N_23
REMARK                            x       y       z     vdW  Elec       q    Type
REMARK                         _______ _______ _______ _____ _____    ______ ____
ROOT
ATOM      1  C   UNL     1       3.590   3.622  19.307  0.00  0.00    +0.000 A 
ATOM      2  C   UNL     1       4.026   4.561  18.393  0.00  0.00    +0.000 A 
ATOM      3  S   UNL     1       3.370   6.105  18.747  0.00  0.00    +0.000 S 
ATOM      4  C   UNL     1       2.450   5.513  20.068  0.00  0.00    +0.000 A 
ATOM      5  C   UNL     1       2.611   4.148  20.204  0.00  0.00    +0.000 A 
ENDROOT
BRANCH   1   7
ATOM      6  O   UNL     1       4.939   1.980  20.115  0.00  0.00    +0.000 OA
ATOM      7  N   UNL     1       4.039   2.262  19.318  0.00  0.00    +0.000 N 
ATOM      8  O   UNL     1       3.465   1.493  18.545  0.00  0.00    +0.000 OA
ENDBRANCH   1   7
BRANCH   5   9
ATOM      9  N   UNL     1       1.899   3.367  21.168  0.00  0.00    +0.000 N 
ATOM     10  O   UNL     1       2.429   3.271  22.283  0.00  0.00    +0.000 OA
ATOM     11  O   UNL     1       0.836   2.853  20.805  0.00  0.00    +0.000 OA
ENDBRANCH   5   9
BRANCH   2  12
ATOM     12  S   UNL     1       5.170   4.355  17.065  0.00  0.00    +0.000 S 
BRANCH  12  13
ATOM     13  C   UNL     1       6.444   5.511  17.554  0.00  0.00    +0.000 A 
ATOM     14  C   UNL     1       6.590   6.736  16.891  0.00  0.00    +0.000 A 
ATOM     15  C   UNL     1       7.495   7.694  17.361  0.00  0.00    +0.000 A 
ATOM     16  C   UNL     1       8.254   7.439  18.500  0.00  0.00    +0.000 A 
ATOM     17  C   UNL     1       8.119   6.221  19.165  0.00  0.00    +0.000 A 
ATOM     18  C   UNL     1       7.217   5.262  18.695  0.00  0.00    +0.000 A 
ENDBRANCH  12  13
ENDBRANCH   2  12
BRANCH   4  19
ATOM     19  S   UNL     1       1.407   6.594  20.994  0.00  0.00    +0.000 S 
BRANCH  19  20
ATOM     20  C   UNL     1       1.495   8.065  19.980  0.00  0.00    +0.000 A 
ATOM     21  C   UNL     1       1.867   7.979  18.633  0.00  0.00    +0.000 A 
ATOM     22  C   UNL     1       1.807   9.106  17.806  0.00  0.00    +0.000 A 
ATOM     23  C   UNL     1       1.369  10.326  18.318  0.00  0.00    +0.000 A 
ATOM     24  C   UNL     1       1.001  10.423  19.659  0.00  0.00    +0.000 A 
ATOM     25  C   UNL     1       1.062   9.296  20.487  0.00  0.00    +0.000 A 
ENDBRANCH  19  20
ENDBRANCH   4  19
TORSDOF 6
ENDMDL
MODEL 5
REMARK VINA RESULT:      -6.6      8.734     10.513
REMARK  Name = 
REMARK  6 active torsions:
REMARK  status: ('A' for Active; 'I' for Inactive)
REMARK    1  A    between atoms: N_2  and  C_4
REMARK    2  A    between atoms: C_5  and  S_6
REMARK    3  A    between atoms: S_6  and  C_7
REMARK    4  A    between atoms: C_14  and  S_15
REMARK    5  A    between atoms: S_15  and  C_16
REMARK    6  A    between atoms: C_22  and  N_23
REMARK                            x       y       z     vdW  Elec       q    Type
REMARK                         _______ _______ _______ _____ _____    ______ ____
ROOT
ATOM      1  C   UNL     1       2.139   4.031  19.426  0.00  0.00    +0.000 A 
ATOM      2  C   UNL     1       2.452   5.333  19.764  0.00  0.00    +0.000 A 
ATOM      3  S   UNL     1       3.743   5.919  18.800  0.00  0.00    +0.000 S 
ATOM      4  C   UNL     1       3.935   4.422  17.984  0.00  0.00    +0.000 A 
ATOM      5  C   UNL     1       3.053   3.480  18.477  0.00  0.00    +0.000 A 
ENDROOT
BRANCH   1   7
ATOM      6  O   UNL     1       0.106   3.028  19.249  0.00  0.00    +0.000 OA
ATOM      7  N   UNL     1       1.046   3.305  20.001  0.00  0.00    +0.000 N 
ATOM      8  O   UNL     1       1.158   3.005  21.190  0.00  0.00    +0.000 OA
ENDBRANCH   1   7
BRANCH   5   9
ATOM      9  N   UNL     1       3.042   2.116  18.045  0.00  0.00    +0.000 N 
ATOM     10  O   UNL     1       2.305   1.859  17.085  0.00  0.00    +0.000 OA
ATOM     11  O   UNL     1       3.752   1.320  18.669  0.00  0.00    +0.000 OA
ENDBRANCH   5   9
BRANCH   2  12
ATOM     12  S   UNL     1       1.654   6.387  20.933  0.00  0.00    +0.000 S 
BRANCH  12  13
ATOM     13  C   UNL     1       1.586   7.911  19.999  0.00  0.00    +0.000 A 
ATOM     14  C   UNL     1       1.961   7.940  18.650  0.00  0.00    +0.000 A 
ATOM     15  C   UNL     1       1.777   9.098  17.886  0.00  0.00    +0.000 A 
ATOM     16  C   UNL     1       1.210  10.233  18.462  0.00  0.00    +0.000 A 
ATOM     17  C   UNL     1       0.837  10.215  19.806  0.00  0.00    +0.000 A 
ATOM     18  C   UNL     1       1.023   9.059  20.571  0.00  0.00    +0.000 A 
ENDBRANCH  12  13
ENDBRANCH   2  12
BRANCH   4  19
ATOM     19  S   UNL     1       5.190   4.219  16.762  0.00  0.00    +0.000 S 
BRANCH  19  20
ATOM     20  C   UNL     1       6.435   5.337  17.395  0.00  0.00    +0.000 A 
ATOM     21  C   UNL     1       6.614   6.601  16.821  0.00  0.00    +0.000 A 
ATOM     22  C   UNL     1       7.491   7.525  17.397  0.00  0.00    +0.000 A 
ATOM     23  C   UNL     1       8.192   7.196  18.555  0.00  0.00    +0.000 A 
ATOM     24  C   UNL     1       8.026   5.938  19.132  0.00  0.00    +0.000 A 
ATOM     25  C   UNL     1       7.148   5.012  18.555  0.00  0.00    +0.000 A 
ENDBRANCH  19  20
ENDBRANCH   4  19
TORSDOF 6
ENDMDL
MODEL 6
REMARK VINA RESULT:      -6.5      0.202      1.513
REMARK  Name = 
REMARK  6 active torsions:
REMARK  status: ('A' for Active; 'I' for Inactive)
REMARK    1  A    between atoms: N_2  and  C_4
REMARK    2  A    between atoms: C_5  and  S_6
REMARK    3  A    between atoms: S_6  and  C_7
REMARK    4  A    between atoms: C_14  and  S_15
REMARK    5  A    between atoms: S_15  and  C_16
REMARK    6  A    between atoms: C_22  and  N_23
REMARK                            x       y       z     vdW  Elec       q    Type
REMARK                         _______ _______ _______ _____ _____    ______ ____
ROOT
ATOM      1  C   UNL     1      -5.224  12.571  21.279  0.00  0.00    +0.000 A 
ATOM      2  C   UNL     1      -4.733  12.616  19.989  0.00  0.00    +0.000 A 
ATOM      3  S   UNL     1      -3.033  12.832  19.992  0.00  0.00    +0.000 S 
ATOM      4  C   UNL     1      -2.957  12.938  21.703  0.00  0.00    +0.000 A 
ATOM      5  C   UNL     1      -4.220  12.855  22.255  0.00  0.00    +0.000 A 
ENDROOT
BRANCH   1   7
ATOM      6  O   UNL     1      -7.317  13.299  21.789  0.00  0.00    +0.000 OA
ATOM      7  N   UNL     1      -6.598  12.314  21.595  0.00  0.00    +0.000 N 
ATOM      8  O   UNL     1      -6.938  11.130  21.619  0.00  0.00    +0.000 OA
ENDBRANCH   1   7
BRANCH   5   9
ATOM      9  N   UNL     1      -4.474  12.997  23.655  0.00  0.00    +0.000 N 
ATOM     10  O   UNL     1      -4.666  14.153  24.054  0.00  0.00    +0.000 OA
ATOM     11  O   UNL     1      -4.470  11.968  24.338  0.00  0.00    +0.000 OA
ENDBRANCH   5   9
BRANCH   2  12
ATOM     12  S   UNL     1      -5.608  12.400  18.472  0.00  0.00    +0.000 S 
BRANCH  12  13
ATOM     13  C   UNL     1      -4.425  11.423  17.553  0.00  0.00    +0.000 A 
ATOM     14  C   UNL     1      -3.855  10.275  18.117  0.00  0.00    +0.000 A 
ATOM     15  C   UNL     1      -3.037   9.438  17.349  0.00  0.00    +0.000 A 
ATOM     16  C   UNL     1      -2.788   9.739  16.013  0.00  0.00    +0.000 A 
ATOM     17  C   UNL     1      -3.347  10.882  15.443  0.00  0.00    +0.000 A 
ATOM     18  C   UNL     1      -4.163  11.721  16.210  0.00  0.00    +0.000 A 
ENDBRANCH  12  13
ENDBRANCH   2  12
BRANCH   4  19
ATOM     19  S   UNL     1      -1.417  13.209  22.519  0.00  0.00    +0.000 S 
BRANCH  19  20
ATOM     20  C   UNL     1      -0.641  11.617  22.271  0.00  0.00    +0.000 A 
ATOM     21  C   UNL     1      -0.967  10.531  23.093  0.00  0.00    +0.000 A 
ATOM     22  C   UNL     1      -0.464   9.255  22.817  0.00  0.00    +0.000 A 
ATOM     23  C   UNL     1       0.365   9.054  21.717  0.00  0.00    +0.000 A 
ATOM     24  C   UNL     1       0.701  10.129  20.896  0.00  0.00    +0.000 A 
ATOM     25  C   UNL     1       0.198  11.406  21.170  0.00  0.00    +0.000 A 
ENDBRANCH  19  20
ENDBRANCH   4  19
TORSDOF 6
ENDMDL
MODEL 7
REMARK VINA RESULT:      -6.5      6.457      8.797
REMARK  Name = 
REMARK  6 active torsions:
REMARK  status: ('A' for Active; 'I' for Inactive)
REMARK    1  A    between atoms: N_2  and  C_4
REMARK    2  A    between atoms: C_5  and  S_6
REMARK    3  A    between atoms: S_6  and  C_7
REMARK    4  A    between atoms: C_14  and  S_15
REMARK    5  A    between atoms: S_15  and  C_16
REMARK    6  A    between atoms: C_22  and  N_23
REMARK                            x       y       z     vdW  Elec       q    Type
REMARK                         _______ _______ _______ _____ _____    ______ ____
ROOT
ATOM      1  C   UNL     1       1.959   6.698  19.790  0.00  0.00    +0.000 A 
ATOM      2  C   UNL     1       2.540   6.671  18.537  0.00  0.00    +0.000 A 
ATOM      3  S   UNL     1       2.604   8.246  17.862  0.00  0.00    +0.000 S 
ATOM      4  C   UNL     1       1.795   8.952  19.200  0.00  0.00    +0.000 A 
ATOM      5  C   UNL     1       1.444   7.988  20.124  0.00  0.00    +0.000 A 
ENDROOT
BRANCH   1   7
ATOM      6  O   UNL     1       0.796   4.901  20.557  0.00  0.00    +0.000 OA
ATOM      7  N   UNL     1       1.846   5.546  20.634  0.00  0.00    +0.000 N 
ATOM      8  O   UNL     1       2.822   5.294  21.343  0.00  0.00    +0.000 OA
ENDBRANCH   1   7
BRANCH   5   9
ATOM      9  N   UNL     1       0.683   8.270  21.302  0.00  0.00    +0.000 N 
ATOM     10  O   UNL     1       1.321   8.724  22.261  0.00  0.00    +0.000 OA
ATOM     11  O   UNL     1      -0.528   8.030  21.264  0.00  0.00    +0.000 OA
ENDBRANCH   5   9
BRANCH   2  12
ATOM     12  S   UNL     1       3.244   5.299  17.681  0.00  0.00    +0.000 S 
BRANCH  12  13
ATOM     13  C   UNL     1       4.985   5.617  17.938  0.00  0.00    +0.000 A 
ATOM     14  C   UNL     1       5.705   6.421  17.046  0.00  0.00    +0.000 A 
ATOM     15  C   UNL     1       7.029   6.780  17.322  0.00  0.00    +0.000 A 
ATOM     16  C   UNL     1       7.641   6.344  18.494  0.00  0.00    +0.000 A 
ATOM     17  C   UNL     1       6.935   5.539  19.387  0.00  0.00    +0.000 A 
ATOM     18  C   UNL     1       5.613   5.178  19.111  0.00  0.00    +0.000 A 
ENDBRANCH  12  13
ENDBRANCH   2  12
BRANCH   4  19
ATOM     19  S   UNL     1       1.439  10.680  19.226  0.00  0.00    +0.000 S 
BRANCH  19  20
ATOM     20  C   UNL     1      -0.291  10.655  18.773  0.00  0.00    +0.000 A 
ATOM     21  C   UNL     1      -1.195  11.541  19.371  0.00  0.00    +0.000 A 
ATOM     22  C   UNL     1      -2.519  11.615  18.923  0.00  0.00    +0.000 A 
ATOM     23  C   UNL     1      -2.946  10.809  17.870  0.00  0.00    +0.000 A 
ATOM     24  C   UNL     1      -2.055   9.921  17.271  0.00  0.00    +0.000 A 
ATOM     25  C   UNL     1      -0.731   9.845  17.719  0.00  0.00    +0.000 A 
ENDBRANCH  19  20
ENDBRANCH   4  19
TORSDOF 6
ENDMDL
MODEL 8
REMARK VINA RESULT:      -6.5      6.344      8.775
REMARK  Name = 
REMARK  6 active torsions:
REMARK  status: ('A' for Active; 'I' for Inactive)
REMARK    1  A    between atoms: N_2  and  C_4
REMARK    2  A    between atoms: C_5  and  S_6
REMARK    3  A    between atoms: S_6  and  C_7
REMARK    4  A    between atoms: C_14  and  S_15
REMARK    5  A    between atoms: S_15  and  C_16
REMARK    6  A    between atoms: C_22  and  N_23
REMARK                            x       y       z     vdW  Elec       q    Type
REMARK                         _______ _______ _______ _____ _____    ______ ____
ROOT
ATOM      1  C   UNL     1       1.856   6.821  19.855  0.00  0.00    +0.000 A 
ATOM      2  C   UNL     1       2.449   6.864  18.608  0.00  0.00    +0.000 A 
ATOM      3  S   UNL     1       2.435   8.460  17.982  0.00  0.00    +0.000 S 
ATOM      4  C   UNL     1       1.580   9.081  19.333  0.00  0.00    +0.000 A 
ATOM      5  C   UNL     1       1.272   8.071  20.224  0.00  0.00    +0.000 A 
ENDROOT
BRANCH   1   7
ATOM      6  O   UNL     1       2.739   5.449  21.439  0.00  0.00    +0.000 OA
ATOM      7  N   UNL     1       1.797   5.639  20.662  0.00  0.00    +0.000 N 
ATOM      8  O   UNL     1       0.798   4.933  20.521  0.00  0.00    +0.000 OA
ENDBRANCH   1   7
BRANCH   5   9
ATOM      9  N   UNL     1       0.489   8.277  21.402  0.00  0.00    +0.000 N 
ATOM     10  O   UNL     1      -0.697   7.930  21.331  0.00  0.00    +0.000 OA
ATOM     11  O   UNL     1       1.054   8.789  22.375  0.00  0.00    +0.000 OA
ENDBRANCH   5   9
BRANCH   2  12
ATOM     12  S   UNL     1       3.231   5.557  17.717  0.00  0.00    +0.000 S 
BRANCH  12  13
ATOM     13  C   UNL     1       4.948   5.908  18.070  0.00  0.00    +0.000 A 
ATOM     14  C   UNL     1       5.588   5.315  19.165  0.00  0.00    +0.000 A 
ATOM     15  C   UNL     1       6.964   5.482  19.360  0.00  0.00    +0.000 A 
ATOM     16  C   UNL     1       7.711   6.237  18.458  0.00  0.00    +0.000 A 
ATOM     17  C   UNL     1       7.082   6.834  17.367  0.00  0.00    +0.000 A 
ATOM     18  C   UNL     1       5.707   6.670  17.172  0.00  0.00    +0.000 A 
ENDBRANCH  12  13
ENDBRANCH   2  12
BRANCH   4  19
ATOM     19  S   UNL     1       1.135  10.786  19.409  0.00  0.00    +0.000 S 
BRANCH  19  20
ATOM     20  C   UNL     1      -0.543  10.705  18.792  0.00  0.00    +0.000 A 
ATOM     21  C   UNL     1      -1.533  11.546  19.312  0.00  0.00    +0.000 A 
ATOM     22  C   UNL     1      -2.810  11.578  18.741  0.00  0.00    +0.000 A 
ATOM     23  C   UNL     1      -3.104  10.774  17.643  0.00  0.00    +0.000 A 
ATOM     24  C   UNL     1      -2.127   9.928  17.121  0.00  0.00    +0.000 A 
ATOM     25  C   UNL     1      -0.849   9.895  17.692  0.00  0.00    +0.000 A 
ENDBRANCH  19  20
ENDBRANCH   4  19
TORSDOF 6
ENDMDL
MODEL 9
REMARK VINA RESULT:      -6.5      6.464      8.022
REMARK  Name = 
REMARK  6 active torsions:
REMARK  status: ('A' for Active; 'I' for Inactive)
REMARK    1  A    between atoms: N_2  and  C_4
REMARK    2  A    between atoms: C_5  and  S_6
REMARK    3  A    between atoms: S_6  and  C_7
REMARK    4  A    between atoms: C_14  and  S_15
REMARK    5  A    between atoms: S_15  and  C_16
REMARK    6  A    between atoms: C_22  and  N_23
REMARK                            x       y       z     vdW  Elec       q    Type
REMARK                         _______ _______ _______ _____ _____    ______ ____
ROOT
ATOM      1  C   UNL     1       1.440   7.960  20.146  0.00  0.00    +0.000 A 
ATOM      2  C   UNL     1       1.791   8.912  19.209  0.00  0.00    +0.000 A 
ATOM      3  S   UNL     1       2.572   8.186  17.866  0.00  0.00    +0.000 S 
ATOM      4  C   UNL     1       2.509   6.619  18.560  0.00  0.00    +0.000 A 
ATOM      5  C   UNL     1       1.940   6.663  19.818  0.00  0.00    +0.000 A 
ENDROOT
BRANCH   1   7
ATOM      6  O   UNL     1       1.329   8.741  22.278  0.00  0.00    +0.000 OA
ATOM      7  N   UNL     1       0.697   8.256  21.334  0.00  0.00    +0.000 N 
ATOM      8  O   UNL     1      -0.511   8.019  21.294  0.00  0.00    +0.000 OA
ENDBRANCH   1   7
BRANCH   5   9
ATOM      9  N   UNL     1       1.833   5.519  20.670  0.00  0.00    +0.000 N 
ATOM     10  O   UNL     1       2.776   5.337  21.451  0.00  0.00    +0.000 OA
ATOM     11  O   UNL     1       0.826   4.815  20.547  0.00  0.00    +0.000 OA
ENDBRANCH   5   9
BRANCH   2  12
ATOM     12  S   UNL     1       1.458  10.645  19.224  0.00  0.00    +0.000 S 
BRANCH  12  13
ATOM     13  C   UNL     1      -0.273  10.645  18.772  0.00  0.00    +0.000 A 
ATOM     14  C   UNL     1      -1.172  11.526  19.384  0.00  0.00    +0.000 A 
ATOM     15  C   UNL     1      -2.493  11.620  18.934  0.00  0.00    +0.000 A 
ATOM     16  C   UNL     1      -2.924  10.839  17.864  0.00  0.00    +0.000 A 
ATOM     17  C   UNL     1      -2.038   9.955  17.250  0.00  0.00    +0.000 A 
ATOM     18  C   UNL     1      -0.717   9.859  17.701  0.00  0.00    +0.000 A 
ENDBRANCH  12  13
ENDBRANCH   2  12
BRANCH   4  19
ATOM     19  S   UNL     1       3.198   5.233  17.714  0.00  0.00    +0.000 S 
BRANCH  19  20
ATOM     20  C   UNL     1       4.943   5.554  17.944  0.00  0.00    +0.000 A 
ATOM     21  C   UNL     1       5.658   6.302  17.002  0.00  0.00    +0.000 A 
ATOM     22  C   UNL     1       6.987   6.668  17.245  0.00  0.00    +0.000 A 
ATOM     23  C   UNL     1       7.608   6.293  18.434  0.00  0.00    +0.000 A 
ATOM     24  C   UNL     1       6.906   5.543  19.376  0.00  0.00    +0.000 A 
ATOM     25  C   UNL     1       5.577   5.177  19.134  0.00  0.00    +0.000 A 
ENDBRANCH  19  20
ENDBRANCH   4  19
TORSDOF 6
ENDMDL
