MODEL 1
REMARK VINA RESULT:      -7.0      0.000      0.000
REMARK  Name = 
REMARK  6 active torsions:
REMARK  status: ('A' for Active; 'I' for Inactive)
REMARK    1  A    between atoms: C_1  and  O_2
REMARK    2  A    between atoms: O_2  and  C_3
REMARK    3  A    between atoms: C_3  and  C_5
REMARK    4  A    between atoms: C_10  and  C_11
REMARK    5  A    between atoms: C_14  and  O_15
REMARK    6  A    between atoms: O_15  and  C_16
REMARK                            x       y       z     vdW  Elec       q    Type
REMARK                         _______ _______ _______ _____ _____    ______ ____
ROOT
ATOM      1  C   UNL     1       6.700   4.957  14.712  0.00  0.00    +0.000 A 
ATOM      2  C   UNL     1       5.486   4.433  14.933  0.00  0.00    +0.000 A 
ATOM      3  C   UNL     1       4.941   4.431  16.306  0.00  0.00    +0.000 A 
ATOM      4  O   UNL     1       3.821   3.963  16.486  0.00  0.00    +0.000 OA
ATOM      5  N   UNL     1       5.778   4.970  17.260  0.00  0.00    +0.000 N 
ATOM      6  C   UNL     1       5.537   5.069  18.624  0.00  0.00    +0.000 A 
ATOM      7  C   UNL     1       6.527   5.661  19.311  0.00  0.00    +0.000 A 
ATOM      8  S   UNL     1       7.839   6.135  18.277  0.00  0.00    +0.000 S 
ATOM      9  C   UNL     1       6.997   5.493  16.879  0.00  0.00    +0.000 A 
ATOM     10  N   UNL     1       7.488   5.517  15.689  0.00  0.00    +0.000 NA
ENDROOT
BRANCH   6  11
ATOM     11  C   UNL     1       4.337   4.567  19.291  0.00  0.00    +0.000 A 
ATOM     12  C   UNL     1       4.226   3.215  19.630  0.00  0.00    +0.000 A 
ATOM     13  C   UNL     1       3.063   2.739  20.240  0.00  0.00    +0.000 A 
ATOM     14  C   UNL     1       2.008   3.605  20.532  0.00  0.00    +0.000 A 
ATOM     15  C   UNL     1       2.103   4.948  20.171  0.00  0.00    +0.000 A 
ATOM     16  C   UNL     1       3.263   5.429  19.551  0.00  0.00    +0.000 A 
BRANCH  14  17
ATOM     17  O   UNL     1       0.921   3.026  21.126  0.00  0.00    +0.000 OA
ATOM     18  C   UNL     1       1.205   2.223  22.267  0.00  0.00    +0.000 C 
ENDBRANCH  14  17
ENDBRANCH   6  11
BRANCH   1  19
ATOM     19  C   UNL     1       7.195   4.893  13.292  0.00  0.00    +0.000 C 
ATOM     20  O   UNL     1       8.127   5.553  12.852  0.00  0.00    +0.000 OA
BRANCH  19  22
ATOM     21  C   UNL     1       7.201   3.096  11.786  0.00  0.00    +0.000 C 
ATOM     22  O   UNL     1       6.448   4.007  12.583  0.00  0.00    +0.000 OA
ENDBRANCH  19  22
ENDBRANCH   1  19
TORSDOF 4
ENDMDL
MODEL 2
REMARK VINA RESULT:      -6.9      0.091      1.032
REMARK  Name = 
REMARK  6 active torsions:
REMARK  status: ('A' for Active; 'I' for Inactive)
REMARK    1  A    between atoms: C_1  and  O_2
REMARK    2  A    between atoms: O_2  and  C_3
REMARK    3  A    between atoms: C_3  and  C_5
REMARK    4  A    between atoms: C_10  and  C_11
REMARK    5  A    between atoms: C_14  and  O_15
REMARK    6  A    between atoms: O_15  and  C_16
REMARK                            x       y       z     vdW  Elec       q    Type
REMARK                         _______ _______ _______ _____ _____    ______ ____
ROOT
ATOM      1  C   UNL     1       6.707   4.959  14.679  0.00  0.00    +0.000 A 
ATOM      2  C   UNL     1       5.511   4.398  14.903  0.00  0.00    +0.000 A 
ATOM      3  C   UNL     1       4.968   4.383  16.277  0.00  0.00    +0.000 A 
ATOM      4  O   UNL     1       3.864   3.880  16.459  0.00  0.00    +0.000 OA
ATOM      5  N   UNL     1       5.789   4.949  17.228  0.00  0.00    +0.000 N 
ATOM      6  C   UNL     1       5.546   5.045  18.593  0.00  0.00    +0.000 A 
ATOM      7  C   UNL     1       6.518   5.669  19.277  0.00  0.00    +0.000 A 
ATOM      8  S   UNL     1       7.813   6.182  18.239  0.00  0.00    +0.000 S 
ATOM      9  C   UNL     1       6.991   5.510  16.844  0.00  0.00    +0.000 A 
ATOM     10  N   UNL     1       7.478   5.547  15.653  0.00  0.00    +0.000 NA
ENDROOT
BRANCH   6  11
ATOM     11  C   UNL     1       4.364   4.507  19.262  0.00  0.00    +0.000 A 
ATOM     12  C   UNL     1       3.280   5.338  19.566  0.00  0.00    +0.000 A 
ATOM     13  C   UNL     1       2.167   4.820  20.234  0.00  0.00    +0.000 A 
ATOM     14  C   UNL     1       2.115   3.472  20.590  0.00  0.00    +0.000 A 
ATOM     15  C   UNL     1       3.205   2.647  20.315  0.00  0.00    +0.000 A 
ATOM     16  C   UNL     1       4.327   3.162  19.654  0.00  0.00    +0.000 A 
BRANCH  14  17
ATOM     17  O   UNL     1       0.978   3.080  21.242  0.00  0.00    +0.000 OA
ATOM     18  C   UNL     1       1.180   2.218  22.356  0.00  0.00    +0.000 C 
ENDBRANCH  14  17
ENDBRANCH   6  11
BRANCH   1  19
ATOM     19  C   UNL     1       7.203   4.907  13.258  0.00  0.00    +0.000 C 
ATOM     20  O   UNL     1       8.139   5.567  12.826  0.00  0.00    +0.000 OA
BRANCH  19  22
ATOM     21  C   UNL     1       7.200   3.101  11.764  0.00  0.00    +0.000 C 
ATOM     22  O   UNL     1       6.451   4.034  12.540  0.00  0.00    +0.000 OA
ENDBRANCH  19  22
ENDBRANCH   1  19
TORSDOF 4
ENDMDL
MODEL 3
REMARK VINA RESULT:      -6.8      3.572      7.677
REMARK  Name = 
REMARK  6 active torsions:
REMARK  status: ('A' for Active; 'I' for Inactive)
REMARK    1  A    between atoms: C_1  and  O_2
REMARK    2  A    between atoms: O_2  and  C_3
REMARK    3  A    between atoms: C_3  and  C_5
REMARK    4  A    between atoms: C_10  and  C_11
REMARK    5  A    between atoms: C_14  and  O_15
REMARK    6  A    between atoms: O_15  and  C_16
REMARK                            x       y       z     vdW  Elec       q    Type
REMARK                         _______ _______ _______ _____ _____    ______ ____
ROOT
ATOM      1  C   UNL     1       1.299   7.735  20.545  0.00  0.00    +0.000 A 
ATOM      2  C   UNL     1       2.073   8.076  19.504  0.00  0.00    +0.000 A 
ATOM      3  C   UNL     1       2.954   7.058  18.897  0.00  0.00    +0.000 A 
ATOM      4  O   UNL     1       3.641   7.385  17.935  0.00  0.00    +0.000 OA
ATOM      5  N   UNL     1       2.905   5.819  19.500  0.00  0.00    +0.000 N 
ATOM      6  C   UNL     1       3.644   4.693  19.158  0.00  0.00    +0.000 A 
ATOM      7  C   UNL     1       3.372   3.615  19.910  0.00  0.00    +0.000 A 
ATOM      8  S   UNL     1       2.160   3.949  21.106  0.00  0.00    +0.000 S 
ATOM      9  C   UNL     1       2.041   5.609  20.555  0.00  0.00    +0.000 A 
ATOM     10  N   UNL     1       1.255   6.475  21.093  0.00  0.00    +0.000 NA
ENDROOT
BRANCH   6  11
ATOM     11  C   UNL     1       4.649   4.654  18.098  0.00  0.00    +0.000 A 
ATOM     12  C   UNL     1       4.294   4.287  16.795  0.00  0.00    +0.000 A 
ATOM     13  C   UNL     1       5.269   4.223  15.796  0.00  0.00    +0.000 A 
ATOM     14  C   UNL     1       6.599   4.537  16.079  0.00  0.00    +0.000 A 
ATOM     15  C   UNL     1       6.962   4.875  17.382  0.00  0.00    +0.000 A 
ATOM     16  C   UNL     1       5.991   4.932  18.389  0.00  0.00    +0.000 A 
BRANCH  14  17
ATOM     17  O   UNL     1       7.463   4.436  15.023  0.00  0.00    +0.000 OA
ATOM     18  C   UNL     1       6.875   4.598  13.737  0.00  0.00    +0.000 C 
ENDBRANCH  14  17
ENDBRANCH   6  11
BRANCH   1  19
ATOM     19  C   UNL     1       0.453   8.837  21.125  0.00  0.00    +0.000 C 
ATOM     20  O   UNL     1      -0.418   9.438  20.513  0.00  0.00    +0.000 OA
BRANCH  19  22
ATOM     21  C   UNL     1      -0.228   9.571  23.245  0.00  0.00    +0.000 C 
ATOM     22  O   UNL     1       0.815   9.063  22.415  0.00  0.00    +0.000 OA
ENDBRANCH  19  22
ENDBRANCH   1  19
TORSDOF 4
ENDMDL
MODEL 4
REMARK VINA RESULT:      -6.7      3.255      7.587
REMARK  Name = 
REMARK  6 active torsions:
REMARK  status: ('A' for Active; 'I' for Inactive)
REMARK    1  A    between atoms: C_1  and  O_2
REMARK    2  A    between atoms: O_2  and  C_3
REMARK    3  A    between atoms: C_3  and  C_5
REMARK    4  A    between atoms: C_10  and  C_11
REMARK    5  A    between atoms: C_14  and  O_15
REMARK    6  A    between atoms: O_15  and  C_16
REMARK                            x       y       z     vdW  Elec       q    Type
REMARK                         _______ _______ _______ _____ _____    ______ ____
ROOT
ATOM      1  C   UNL     1       1.485   7.202  20.550  0.00  0.00    +0.000 A 
ATOM      2  C   UNL     1       2.175   7.716  19.523  0.00  0.00    +0.000 A 
ATOM      3  C   UNL     1       3.105   6.848  18.772  0.00  0.00    +0.000 A 
ATOM      4  O   UNL     1       3.715   7.331  17.824  0.00  0.00    +0.000 OA
ATOM      5  N   UNL     1       3.188   5.553  19.239  0.00  0.00    +0.000 N 
ATOM      6  C   UNL     1       3.998   4.537  18.747  0.00  0.00    +0.000 A 
ATOM      7  C   UNL     1       3.853   3.366  19.387  0.00  0.00    +0.000 A 
ATOM      8  S   UNL     1       2.678   3.467  20.662  0.00  0.00    +0.000 S 
ATOM      9  C   UNL     1       2.397   5.159  20.299  0.00  0.00    +0.000 A 
ATOM     10  N   UNL     1       1.571   5.893  20.959  0.00  0.00    +0.000 NA
ENDROOT
BRANCH   6  11
ATOM     11  C   UNL     1       4.949   4.696  17.649  0.00  0.00    +0.000 A 
ATOM     12  C   UNL     1       6.274   5.063  17.905  0.00  0.00    +0.000 A 
ATOM     13  C   UNL     1       7.169   5.241  16.846  0.00  0.00    +0.000 A 
ATOM     14  C   UNL     1       6.757   5.043  15.527  0.00  0.00    +0.000 A 
ATOM     15  C   UNL     1       5.430   4.705  15.266  0.00  0.00    +0.000 A 
ATOM     16  C   UNL     1       4.528   4.533  16.322  0.00  0.00    +0.000 A 
BRANCH  14  17
ATOM     17  O   UNL     1       7.718   5.250  14.576  0.00  0.00    +0.000 OA
ATOM     18  C   UNL     1       7.384   4.805  13.265  0.00  0.00    +0.000 C 
ENDBRANCH  14  17
ENDBRANCH   6  11
BRANCH   1  19
ATOM     19  C   UNL     1       0.582   8.160  21.281  0.00  0.00    +0.000 C 
ATOM     20  O   UNL     1      -0.561   7.903  21.635  0.00  0.00    +0.000 OA
BRANCH  19  22
ATOM     21  C   UNL     1       0.416  10.498  21.253  0.00  0.00    +0.000 C 
ATOM     22  O   UNL     1       1.223   9.342  21.472  0.00  0.00    +0.000 OA
ENDBRANCH  19  22
ENDBRANCH   1  19
TORSDOF 4
ENDMDL
MODEL 5
REMARK VINA RESULT:      -6.6      4.834      8.219
REMARK  Name = 
REMARK  6 active torsions:
REMARK  status: ('A' for Active; 'I' for Inactive)
REMARK    1  A    between atoms: C_1  and  O_2
REMARK    2  A    between atoms: O_2  and  C_3
REMARK    3  A    between atoms: C_3  and  C_5
REMARK    4  A    between atoms: C_10  and  C_11
REMARK    5  A    between atoms: C_14  and  O_15
REMARK    6  A    between atoms: O_15  and  C_16
REMARK                            x       y       z     vdW  Elec       q    Type
REMARK                         _______ _______ _______ _____ _____    ______ ____
ROOT
ATOM      1  C   UNL     1       0.483   9.463  21.599  0.00  0.00    +0.000 A 
ATOM      2  C   UNL     1       0.800   8.175  21.795  0.00  0.00    +0.000 A 
ATOM      3  C   UNL     1       1.493   7.432  20.722  0.00  0.00    +0.000 A 
ATOM      4  O   UNL     1       1.791   6.260  20.927  0.00  0.00    +0.000 OA
ATOM      5  N   UNL     1       1.732   8.161  19.577  0.00  0.00    +0.000 N 
ATOM      6  C   UNL     1       2.335   7.711  18.409  0.00  0.00    +0.000 A 
ATOM      7  C   UNL     1       2.454   8.652  17.460  0.00  0.00    +0.000 A 
ATOM      8  S   UNL     1       1.810  10.179  17.977  0.00  0.00    +0.000 S 
ATOM      9  C   UNL     1       1.364   9.491  19.527  0.00  0.00    +0.000 A 
ATOM     10  N   UNL     1       0.773  10.163  20.452  0.00  0.00    +0.000 NA
ENDROOT
BRANCH   6  11
ATOM     11  C   UNL     1       2.790   6.340  18.189  0.00  0.00    +0.000 A 
ATOM     12  C   UNL     1       1.875   5.330  17.872  0.00  0.00    +0.000 A 
ATOM     13  C   UNL     1       2.317   4.016  17.694  0.00  0.00    +0.000 A 
ATOM     14  C   UNL     1       3.671   3.699  17.813  0.00  0.00    +0.000 A 
ATOM     15  C   UNL     1       4.582   4.697  18.156  0.00  0.00    +0.000 A 
ATOM     16  C   UNL     1       4.144   6.013  18.345  0.00  0.00    +0.000 A 
BRANCH  14  17
ATOM     17  O   UNL     1       3.984   2.382  17.619  0.00  0.00    +0.000 OA
ATOM     18  C   UNL     1       3.408   1.475  18.554  0.00  0.00    +0.000 C 
ENDBRANCH  14  17
ENDBRANCH   6  11
BRANCH   1  19
ATOM     19  C   UNL     1      -0.248  10.140  22.728  0.00  0.00    +0.000 C 
ATOM     20  O   UNL     1      -0.049   9.918  23.915  0.00  0.00    +0.000 OA
BRANCH  19  22
ATOM     21  C   UNL     1      -1.229  12.260  22.918  0.00  0.00    +0.000 C 
ATOM     22  O   UNL     1      -1.158  11.014  22.227  0.00  0.00    +0.000 OA
ENDBRANCH  19  22
ENDBRANCH   1  19
TORSDOF 4
ENDMDL
MODEL 6
REMARK VINA RESULT:      -6.5      3.398      4.289
REMARK  Name = 
REMARK  6 active torsions:
REMARK  status: ('A' for Active; 'I' for Inactive)
REMARK    1  A    between atoms: C_1  and  O_2
REMARK    2  A    between atoms: O_2  and  C_3
REMARK    3  A    between atoms: C_3  and  C_5
REMARK    4  A    between atoms: C_10  and  C_11
REMARK    5  A    between atoms: C_14  and  O_15
REMARK    6  A    between atoms: O_15  and  C_16
REMARK                            x       y       z     vdW  Elec       q    Type
REMARK                         _______ _______ _______ _____ _____    ______ ____
ROOT
ATOM      1  C   UNL     1       5.676   4.954  15.713  0.00  0.00    +0.000 A 
ATOM      2  C   UNL     1       5.601   6.233  16.109  0.00  0.00    +0.000 A 
ATOM      3  C   UNL     1       4.534   6.635  17.048  0.00  0.00    +0.000 A 
ATOM      4  O   UNL     1       4.491   7.805  17.412  0.00  0.00    +0.000 OA
ATOM      5  N   UNL     1       3.677   5.619  17.417  0.00  0.00    +0.000 N 
ATOM      6  C   UNL     1       2.576   5.718  18.258  0.00  0.00    +0.000 A 
ATOM      7  C   UNL     1       1.936   4.555  18.456  0.00  0.00    +0.000 A 
ATOM      8  S   UNL     1       2.684   3.249  17.592  0.00  0.00    +0.000 S 
ATOM      9  C   UNL     1       3.892   4.341  16.943  0.00  0.00    +0.000 A 
ATOM     10  N   UNL     1       4.822   3.964  16.136  0.00  0.00    +0.000 NA
ENDROOT
BRANCH   6  11
ATOM     11  C   UNL     1       2.112   6.961  18.871  0.00  0.00    +0.000 A 
ATOM     12  C   UNL     1       2.004   7.071  20.261  0.00  0.00    +0.000 A 
ATOM     13  C   UNL     1       1.530   8.253  20.836  0.00  0.00    +0.000 A 
ATOM     14  C   UNL     1       1.176   9.340  20.035  0.00  0.00    +0.000 A 
ATOM     15  C   UNL     1       1.256   9.226  18.648  0.00  0.00    +0.000 A 
ATOM     16  C   UNL     1       1.721   8.040  18.067  0.00  0.00    +0.000 A 
BRANCH  14  17
ATOM     17  O   UNL     1       0.724  10.442  20.708  0.00  0.00    +0.000 OA
ATOM     18  C   UNL     1      -0.286  11.191  20.042  0.00  0.00    +0.000 C 
ENDBRANCH  14  17
ENDBRANCH   6  11
BRANCH   1  19
ATOM     19  C   UNL     1       6.773   4.632  14.733  0.00  0.00    +0.000 C 
ATOM     20  O   UNL     1       7.797   5.288  14.597  0.00  0.00    +0.000 OA
BRANCH  19  22
ATOM     21  C   UNL     1       6.436   3.699  12.609  0.00  0.00    +0.000 C 
ATOM     22  O   UNL     1       6.444   3.521  14.024  0.00  0.00    +0.000 OA
ENDBRANCH  19  22
ENDBRANCH   1  19
TORSDOF 4
ENDMDL
MODEL 7
REMARK VINA RESULT:      -6.4      0.605      1.469
REMARK  Name = 
REMARK  6 active torsions:
REMARK  status: ('A' for Active; 'I' for Inactive)
REMARK    1  A    between atoms: C_1  and  O_2
REMARK    2  A    between atoms: O_2  and  C_3
REMARK    3  A    between atoms: C_3  and  C_5
REMARK    4  A    between atoms: C_10  and  C_11
REMARK    5  A    between atoms: C_14  and  O_15
REMARK    6  A    between atoms: O_15  and  C_16
REMARK                            x       y       z     vdW  Elec       q    Type
REMARK                         _______ _______ _______ _____ _____    ______ ____
ROOT
ATOM      1  C   UNL     1       6.789   4.917  14.541  0.00  0.00    +0.000 A 
ATOM      2  C   UNL     1       5.629   4.277  14.748  0.00  0.00    +0.000 A 
ATOM      3  C   UNL     1       5.045   4.265  16.104  0.00  0.00    +0.000 A 
ATOM      4  O   UNL     1       3.974   3.690  16.271  0.00  0.00    +0.000 OA
ATOM      5  N   UNL     1       5.793   4.919  17.061  0.00  0.00    +0.000 N 
ATOM      6  C   UNL     1       5.500   5.039  18.413  0.00  0.00    +0.000 A 
ATOM      7  C   UNL     1       6.403   5.753  19.104  0.00  0.00    +0.000 A 
ATOM      8  S   UNL     1       7.689   6.326  18.090  0.00  0.00    +0.000 S 
ATOM      9  C   UNL     1       6.963   5.553  16.694  0.00  0.00    +0.000 A 
ATOM     10  N   UNL     1       7.484   5.589  15.517  0.00  0.00    +0.000 NA
ENDROOT
BRANCH   6  11
ATOM     11  C   UNL     1       4.338   4.438  19.065  0.00  0.00    +0.000 A 
ATOM     12  C   UNL     1       3.234   5.223  19.413  0.00  0.00    +0.000 A 
ATOM     13  C   UNL     1       2.141   4.644  20.063  0.00  0.00    +0.000 A 
ATOM     14  C   UNL     1       2.130   3.280  20.358  0.00  0.00    +0.000 A 
ATOM     15  C   UNL     1       3.240   2.500  20.039  0.00  0.00    +0.000 A 
ATOM     16  C   UNL     1       4.342   3.076  19.396  0.00  0.00    +0.000 A 
BRANCH  14  17
ATOM     17  O   UNL     1       1.009   2.827  20.998  0.00  0.00    +0.000 OA
ATOM     18  C   UNL     1       1.198   2.434  22.353  0.00  0.00    +0.000 C 
ENDBRANCH  14  17
ENDBRANCH   6  11
BRANCH   1  19
ATOM     19  C   UNL     1       7.333   4.857  13.138  0.00  0.00    +0.000 C 
ATOM     20  O   UNL     1       7.008   4.023  12.303  0.00  0.00    +0.000 OA
BRANCH  19  22
ATOM     21  C   UNL     1       8.226   6.431  11.648  0.00  0.00    +0.000 C 
ATOM     22  O   UNL     1       8.237   5.853  12.952  0.00  0.00    +0.000 OA
ENDBRANCH  19  22
ENDBRANCH   1  19
TORSDOF 4
ENDMDL
MODEL 8
REMARK VINA RESULT:      -6.4      3.826      7.643
REMARK  Name = 
REMARK  6 active torsions:
REMARK  status: ('A' for Active; 'I' for Inactive)
REMARK    1  A    between atoms: C_1  and  O_2
REMARK    2  A    between atoms: O_2  and  C_3
REMARK    3  A    between atoms: C_3  and  C_5
REMARK    4  A    between atoms: C_10  and  C_11
REMARK    5  A    between atoms: C_14  and  O_15
REMARK    6  A    between atoms: O_15  and  C_16
REMARK                            x       y       z     vdW  Elec       q    Type
REMARK                         _______ _______ _______ _____ _____    ______ ____
ROOT
ATOM      1  C   UNL     1       1.149   8.288  20.198  0.00  0.00    +0.000 A 
ATOM      2  C   UNL     1       1.888   8.624  19.132  0.00  0.00    +0.000 A 
ATOM      3  C   UNL     1       2.843   7.642  18.578  0.00  0.00    +0.000 A 
ATOM      4  O   UNL     1       3.499   7.962  17.592  0.00  0.00    +0.000 OA
ATOM      5  N   UNL     1       2.894   6.442  19.255  0.00  0.00    +0.000 N 
ATOM      6  C   UNL     1       3.716   5.358  18.974  0.00  0.00    +0.000 A 
ATOM      7  C   UNL     1       3.532   4.309  19.792  0.00  0.00    +0.000 A 
ATOM      8  S   UNL     1       2.303   4.620  20.978  0.00  0.00    +0.000 S 
ATOM      9  C   UNL     1       2.053   6.230  20.329  0.00  0.00    +0.000 A 
ATOM     10  N   UNL     1       1.205   7.064  20.821  0.00  0.00    +0.000 NA
ENDROOT
BRANCH   6  11
ATOM     11  C   UNL     1       4.716   5.332  17.909  0.00  0.00    +0.000 A 
ATOM     12  C   UNL     1       4.420   4.756  16.670  0.00  0.00    +0.000 A 
ATOM     13  C   UNL     1       5.393   4.709  15.668  0.00  0.00    +0.000 A 
ATOM     14  C   UNL     1       6.663   5.247  15.885  0.00  0.00    +0.000 A 
ATOM     15  C   UNL     1       6.971   5.797  17.129  0.00  0.00    +0.000 A 
ATOM     16  C   UNL     1       6.003   5.838  18.139  0.00  0.00    +0.000 A 
BRANCH  14  17
ATOM     17  O   UNL     1       7.532   5.141  14.835  0.00  0.00    +0.000 OA
ATOM     18  C   UNL     1       6.976   4.616  13.634  0.00  0.00    +0.000 C 
ENDBRANCH  14  17
ENDBRANCH   6  11
BRANCH   1  19
ATOM     19  C   UNL     1       0.222   9.354  20.719  0.00  0.00    +0.000 C 
ATOM     20  O   UNL     1       0.051   9.605  21.904  0.00  0.00    +0.000 OA
BRANCH  19  22
ATOM     21  C   UNL     1      -0.831  11.305  19.958  0.00  0.00    +0.000 C 
ATOM     22  O   UNL     1      -0.394   9.976  19.681  0.00  0.00    +0.000 OA
ENDBRANCH  19  22
ENDBRANCH   1  19
TORSDOF 4
ENDMDL
MODEL 9
REMARK VINA RESULT:      -6.4      4.848      8.192
REMARK  Name = 
REMARK  6 active torsions:
REMARK  status: ('A' for Active; 'I' for Inactive)
REMARK    1  A    between atoms: C_1  and  O_2
REMARK    2  A    between atoms: O_2  and  C_3
REMARK    3  A    between atoms: C_3  and  C_5
REMARK    4  A    between atoms: C_10  and  C_11
REMARK    5  A    between atoms: C_14  and  O_15
REMARK    6  A    between atoms: O_15  and  C_16
REMARK                            x       y       z     vdW  Elec       q    Type
REMARK                         _______ _______ _______ _____ _____    ______ ____
ROOT
ATOM      1  C   UNL     1       0.620   9.532  21.621  0.00  0.00    +0.000 A 
ATOM      2  C   UNL     1       0.883   8.236  21.841  0.00  0.00    +0.000 A 
ATOM      3  C   UNL     1       1.506   7.434  20.768  0.00  0.00    +0.000 A 
ATOM      4  O   UNL     1       1.756   6.255  20.994  0.00  0.00    +0.000 OA
ATOM      5  N   UNL     1       1.741   8.122  19.597  0.00  0.00    +0.000 N 
ATOM      6  C   UNL     1       2.286   7.615  18.424  0.00  0.00    +0.000 A 
ATOM      7  C   UNL     1       2.418   8.525  17.446  0.00  0.00    +0.000 A 
ATOM      8  S   UNL     1       1.863  10.094  17.943  0.00  0.00    +0.000 S 
ATOM      9  C   UNL     1       1.435   9.466  19.523  0.00  0.00    +0.000 A 
ATOM     10  N   UNL     1       0.905  10.188  20.448  0.00  0.00    +0.000 NA
ENDROOT
BRANCH   6  11
ATOM     11  C   UNL     1       2.669   6.219  18.226  0.00  0.00    +0.000 A 
ATOM     12  C   UNL     1       4.002   5.821  18.371  0.00  0.00    +0.000 A 
ATOM     13  C   UNL     1       4.364   4.489  18.150  0.00  0.00    +0.000 A 
ATOM     14  C   UNL     1       3.402   3.541  17.799  0.00  0.00    +0.000 A 
ATOM     15  C   UNL     1       2.077   3.938  17.626  0.00  0.00    +0.000 A 
ATOM     16  C   UNL     1       1.711   5.273  17.837  0.00  0.00    +0.000 A 
BRANCH  14  17
ATOM     17  O   UNL     1       3.873   2.271  17.606  0.00  0.00    +0.000 OA
ATOM     18  C   UNL     1       3.626   1.361  18.671  0.00  0.00    +0.000 C 
ENDBRANCH  14  17
ENDBRANCH   6  11
BRANCH   1  19
ATOM     19  C   UNL     1      -0.042  10.271  22.754  0.00  0.00    +0.000 C 
ATOM     20  O   UNL     1      -0.339   9.769  23.829  0.00  0.00    +0.000 OA
BRANCH  19  22
ATOM     21  C   UNL     1      -1.499  12.104  22.862  0.00  0.00    +0.000 C 
ATOM     22  O   UNL     1      -0.266  11.560  22.392  0.00  0.00    +0.000 OA
ENDBRANCH  19  22
ENDBRANCH   1  19
TORSDOF 4
ENDMDL
