MODEL 1
REMARK VINA RESULT:      -8.2      0.000      0.000
REMARK  Name = 
REMARK  4 active torsions:
REMARK  status: ('A' for Active; 'I' for Inactive)
REMARK    1  A    between atoms: C_1  and  C_2
REMARK    2  A    between atoms: C_4  and  C_5
REMARK    3  A    between atoms: C_11  and  C_12
REMARK    4  A    between atoms: N_16  and  C_17
REMARK                            x       y       z     vdW  Elec       q    Type
REMARK                         _______ _______ _______ _____ _____    ______ ____
ROOT
ATOM      1  C   UNL     1       1.933   8.531  19.297  0.00  0.00    +0.000 A 
ATOM      2  C   UNL     1       2.377   9.196  18.151  0.00  0.00    +0.000 A 
ATOM      3  C   UNL     1       3.228   8.555  17.256  0.00  0.00    +0.000 A 
ATOM      4  C   UNL     1       3.585   7.215  17.460  0.00  0.00    +0.000 A 
ATOM      5  C   UNL     1       4.488   6.585  16.476  0.00  0.00    +0.000 A 
ATOM      6  O   UNL     1       4.981   7.246  15.565  0.00  0.00    +0.000 OA
ATOM      7  C   UNL     1       4.762   5.145  16.627  0.00  0.00    +0.000 A 
ATOM      8  C   UNL     1       4.201   4.524  17.676  0.00  0.00    +0.000 A 
ATOM      9  N   UNL     1       3.398   5.072  18.688  0.00  0.00    +0.000 N 
ATOM     10  C   UNL     1       3.112   6.485  18.570  0.00  0.00    +0.000 A 
ATOM     11  C   UNL     1       2.370   7.210  19.522  0.00  0.00    +0.000 A 
ENDROOT
BRANCH   9  12
ATOM     12  C   UNL     1       2.811   4.165  19.656  0.00  0.00    +0.000 A 
ATOM     13  C   UNL     1       1.408   4.054  19.800  0.00  0.00    +0.000 A 
ATOM     14  C   UNL     1       0.827   3.216  20.760  0.00  0.00    +0.000 A 
ATOM     15  C   UNL     1       1.639   2.432  21.564  0.00  0.00    +0.000 A 
ATOM     16  F   UNL     1       1.087   1.613  22.467  0.00  0.00    +0.000 F 
ATOM     17  C   UNL     1       3.017   2.501  21.450  0.00  0.00    +0.000 A 
ATOM     18  C   UNL     1       3.594   3.388  20.533  0.00  0.00    +0.000 A 
ENDBRANCH   9  12
BRANCH   1  22
ATOM     19  C   UNL     1      -0.961  10.404  23.043  0.00  0.00    +0.000 C 
ATOM     20  C   UNL     1      -0.293  10.059  21.770  0.00  0.00    +0.000 A 
ATOM     21  C   UNL     1       0.770   9.154  21.558  0.00  0.00    +0.000 A 
ATOM     22  C   UNL     1       0.989   9.181  20.199  0.00  0.00    +0.000 A 
ATOM     23  O   UNL     1       0.118  10.072  19.641  0.00  0.00    +0.000 OA
ATOM     24  N   UNL     1      -0.687  10.621  20.622  0.00  0.00    +0.000 NA
ENDBRANCH   1  22
BRANCH   7  25
ATOM     25  C   UNL     1       5.578   4.342  15.682  0.00  0.00    +0.000 C 
ATOM     26  N   UNL     1       6.722   3.798  16.185  0.00  0.00    +0.000 N 
ATOM     27  O   UNL     1       5.265   4.159  14.514  0.00  0.00    +0.000 OA
ATOM     28  H   UNL     1       6.987   3.923  17.160  0.00  0.00    +0.000 HD
ATOM     29  H   UNL     1       7.303   3.234  15.582  0.00  0.00    +0.000 HD
ENDBRANCH   7  25
TORSDOF 3
ENDMDL
MODEL 2
REMARK VINA RESULT:      -8.1      0.445      1.025
REMARK  Name = 
REMARK  4 active torsions:
REMARK  status: ('A' for Active; 'I' for Inactive)
REMARK    1  A    between atoms: C_1  and  C_2
REMARK    2  A    between atoms: C_4  and  C_5
REMARK    3  A    between atoms: C_11  and  C_12
REMARK    4  A    between atoms: N_16  and  C_17
REMARK                            x       y       z     vdW  Elec       q    Type
REMARK                         _______ _______ _______ _____ _____    ______ ____
ROOT
ATOM      1  C   UNL     1       2.014   8.482  19.137  0.00  0.00    +0.000 A 
ATOM      2  C   UNL     1       2.516   9.102  17.990  0.00  0.00    +0.000 A 
ATOM      3  C   UNL     1       3.425   8.436  17.175  0.00  0.00    +0.000 A 
ATOM      4  C   UNL     1       3.786   7.112  17.459  0.00  0.00    +0.000 A 
ATOM      5  C   UNL     1       4.753   6.453  16.557  0.00  0.00    +0.000 A 
ATOM      6  O   UNL     1       5.289   7.081  15.648  0.00  0.00    +0.000 OA
ATOM      7  C   UNL     1       5.035   5.025  16.789  0.00  0.00    +0.000 A 
ATOM      8  C   UNL     1       4.422   4.443  17.830  0.00  0.00    +0.000 A 
ATOM      9  N   UNL     1       3.555   5.022  18.769  0.00  0.00    +0.000 N 
ATOM     10  C   UNL     1       3.259   6.424  18.571  0.00  0.00    +0.000 A 
ATOM     11  C   UNL     1       2.454   7.178  19.446  0.00  0.00    +0.000 A 
ENDROOT
BRANCH   9  12
ATOM     12  C   UNL     1       2.925   4.149  19.741  0.00  0.00    +0.000 A 
ATOM     13  C   UNL     1       3.692   3.265  20.536  0.00  0.00    +0.000 A 
ATOM     14  C   UNL     1       3.096   2.385  21.448  0.00  0.00    +0.000 A 
ATOM     15  C   UNL     1       1.721   2.406  21.620  0.00  0.00    +0.000 A 
ATOM     16  F   UNL     1       1.149   1.583  22.507  0.00  0.00    +0.000 F 
ATOM     17  C   UNL     1       0.933   3.263  20.870  0.00  0.00    +0.000 A 
ATOM     18  C   UNL     1       1.528   4.095  19.914  0.00  0.00    +0.000 A 
ENDBRANCH   9  12
BRANCH   1  22
ATOM     19  C   UNL     1      -1.029  10.600  22.627  0.00  0.00    +0.000 C 
ATOM     20  C   UNL     1      -0.344  10.126  21.405  0.00  0.00    +0.000 A 
ATOM     21  C   UNL     1       0.821   9.334  21.306  0.00  0.00    +0.000 A 
ATOM     22  C   UNL     1       1.011   9.157  19.954  0.00  0.00    +0.000 A 
ATOM     23  O   UNL     1       0.026   9.828  19.289  0.00  0.00    +0.000 OA
ATOM     24  N   UNL     1      -0.825  10.434  20.195  0.00  0.00    +0.000 NA
ENDBRANCH   1  22
BRANCH   7  25
ATOM     25  C   UNL     1       5.915   4.194  15.929  0.00  0.00    +0.000 C 
ATOM     26  N   UNL     1       7.153   4.700  15.663  0.00  0.00    +0.000 N 
ATOM     27  O   UNL     1       5.577   3.109  15.473  0.00  0.00    +0.000 OA
ATOM     28  H   UNL     1       7.457   5.591  16.051  0.00  0.00    +0.000 HD
ATOM     29  H   UNL     1       7.789   4.164  15.093  0.00  0.00    +0.000 HD
ENDBRANCH   7  25
TORSDOF 3
ENDMDL
MODEL 3
REMARK VINA RESULT:      -8.0      3.603      5.074
REMARK  Name = 
REMARK  4 active torsions:
REMARK  status: ('A' for Active; 'I' for Inactive)
REMARK    1  A    between atoms: C_1  and  C_2
REMARK    2  A    between atoms: C_4  and  C_5
REMARK    3  A    between atoms: C_11  and  C_12
REMARK    4  A    between atoms: N_16  and  C_17
REMARK                            x       y       z     vdW  Elec       q    Type
REMARK                         _______ _______ _______ _____ _____    ______ ____
ROOT
ATOM      1  C   UNL     1       1.719   7.181  20.220  0.00  0.00    +0.000 A 
ATOM      2  C   UNL     1       0.934   6.225  20.870  0.00  0.00    +0.000 A 
ATOM      3  C   UNL     1       1.286   4.880  20.823  0.00  0.00    +0.000 A 
ATOM      4  C   UNL     1       2.470   4.485  20.187  0.00  0.00    +0.000 A 
ATOM      5  C   UNL     1       2.796   3.044  20.170  0.00  0.00    +0.000 A 
ATOM      6  O   UNL     1       2.004   2.218  20.617  0.00  0.00    +0.000 OA
ATOM      7  C   UNL     1       4.099   2.647  19.608  0.00  0.00    +0.000 A 
ATOM      8  C   UNL     1       4.874   3.624  19.114  0.00  0.00    +0.000 A 
ATOM      9  N   UNL     1       4.599   4.997  19.028  0.00  0.00    +0.000 N 
ATOM     10  C   UNL     1       3.326   5.420  19.569  0.00  0.00    +0.000 A 
ATOM     11  C   UNL     1       2.863   6.749  19.519  0.00  0.00    +0.000 A 
ENDROOT
BRANCH   9  12
ATOM     12  C   UNL     1       5.654   5.873  18.556  0.00  0.00    +0.000 A 
ATOM     13  C   UNL     1       5.434   6.773  17.486  0.00  0.00    +0.000 A 
ATOM     14  C   UNL     1       6.455   7.593  16.989  0.00  0.00    +0.000 A 
ATOM     15  C   UNL     1       7.706   7.567  17.585  0.00  0.00    +0.000 A 
ATOM     16  F   UNL     1       8.677   8.366  17.128  0.00  0.00    +0.000 F 
ATOM     17  C   UNL     1       7.962   6.709  18.642  0.00  0.00    +0.000 A 
ATOM     18  C   UNL     1       6.957   5.844  19.092  0.00  0.00    +0.000 A 
ENDBRANCH   9  12
BRANCH   1  22
ATOM     19  C   UNL     1       0.429  12.086  19.781  0.00  0.00    +0.000 C 
ATOM     20  C   UNL     1       0.809  10.727  20.223  0.00  0.00    +0.000 A 
ATOM     21  C   UNL     1       1.025   9.578  19.431  0.00  0.00    +0.000 A 
ATOM     22  C   UNL     1       1.384   8.597  20.327  0.00  0.00    +0.000 A 
ATOM     23  O   UNL     1       1.359   9.130  21.583  0.00  0.00    +0.000 OA
ATOM     24  N   UNL     1       1.001  10.465  21.520  0.00  0.00    +0.000 NA
ENDBRANCH   1  22
BRANCH   7  25
ATOM     25  C   UNL     1       4.615   1.255  19.589  0.00  0.00    +0.000 C 
ATOM     26  N   UNL     1       4.209   0.475  18.548  0.00  0.00    +0.000 N 
ATOM     27  O   UNL     1       5.368   0.807  20.444  0.00  0.00    +0.000 OA
ATOM     28  H   UNL     1       3.600   0.837  17.817  0.00  0.00    +0.000 HD
ATOM     29  H   UNL     1       4.545  -0.475  18.487  0.00  0.00    +0.000 HD
ENDBRANCH   7  25
TORSDOF 3
ENDMDL
MODEL 4
REMARK VINA RESULT:      -7.9      3.689      5.399
REMARK  Name = 
REMARK  4 active torsions:
REMARK  status: ('A' for Active; 'I' for Inactive)
REMARK    1  A    between atoms: C_1  and  C_2
REMARK    2  A    between atoms: C_4  and  C_5
REMARK    3  A    between atoms: C_11  and  C_12
REMARK    4  A    between atoms: N_16  and  C_17
REMARK                            x       y       z     vdW  Elec       q    Type
REMARK                         _______ _______ _______ _____ _____    ______ ____
ROOT
ATOM      1  C   UNL     1       2.208   6.783  19.416  0.00  0.00    +0.000 A 
ATOM      2  C   UNL     1       1.771   6.322  20.661  0.00  0.00    +0.000 A 
ATOM      3  C   UNL     1       2.175   5.074  21.126  0.00  0.00    +0.000 A 
ATOM      4  C   UNL     1       3.080   4.305  20.382  0.00  0.00    +0.000 A 
ATOM      5  C   UNL     1       3.476   2.990  20.926  0.00  0.00    +0.000 A 
ATOM      6  O   UNL     1       2.953   2.551  21.947  0.00  0.00    +0.000 OA
ATOM      7  C   UNL     1       4.519   2.241  20.203  0.00  0.00    +0.000 A 
ATOM      8  C   UNL     1       5.000   2.794  19.079  0.00  0.00    +0.000 A 
ATOM      9  N   UNL     1       4.620   3.997  18.466  0.00  0.00    +0.000 N 
ATOM     10  C   UNL     1       3.595   4.756  19.149  0.00  0.00    +0.000 A 
ATOM     11  C   UNL     1       3.055   5.956  18.650  0.00  0.00    +0.000 A 
ENDROOT
BRANCH   9  12
ATOM     12  C   UNL     1       5.376   4.440  17.310  0.00  0.00    +0.000 A 
ATOM     13  C   UNL     1       4.967   4.108  15.997  0.00  0.00    +0.000 A 
ATOM     14  C   UNL     1       5.711   4.489  14.873  0.00  0.00    +0.000 A 
ATOM     15  C   UNL     1       6.853   5.256  15.036  0.00  0.00    +0.000 A 
ATOM     16  F   UNL     1       7.554   5.642  13.963  0.00  0.00    +0.000 F 
ATOM     17  C   UNL     1       7.284   5.612  16.303  0.00  0.00    +0.000 A 
ATOM     18  C   UNL     1       6.574   5.173  17.426  0.00  0.00    +0.000 A 
ENDBRANCH   9  12
BRANCH   1  22
ATOM     19  C   UNL     1       0.560  11.523  18.561  0.00  0.00    +0.000 C 
ATOM     20  C   UNL     1       1.181  10.182  18.524  0.00  0.00    +0.000 A 
ATOM     21  C   UNL     1       1.124   9.164  19.501  0.00  0.00    +0.000 A 
ATOM     22  C   UNL     1       1.837   8.118  18.960  0.00  0.00    +0.000 A 
ATOM     23  O   UNL     1       2.309   8.505  17.740  0.00  0.00    +0.000 OA
ATOM     24  N   UNL     1       1.898   9.796  17.463  0.00  0.00    +0.000 NA
ENDBRANCH   1  22
BRANCH   7  25
ATOM     25  C   UNL     1       5.089   0.947  20.656  0.00  0.00    +0.000 C 
ATOM     26  N   UNL     1       5.141  -0.049  19.726  0.00  0.00    +0.000 N 
ATOM     27  O   UNL     1       5.502   0.757  21.792  0.00  0.00    +0.000 OA
ATOM     28  H   UNL     1       4.821   0.098  18.771  0.00  0.00    +0.000 HD
ATOM     29  H   UNL     1       5.532  -0.942  19.986  0.00  0.00    +0.000 HD
ENDBRANCH   7  25
TORSDOF 3
ENDMDL
MODEL 5
REMARK VINA RESULT:      -7.6      3.522      5.083
REMARK  Name = 
REMARK  4 active torsions:
REMARK  status: ('A' for Active; 'I' for Inactive)
REMARK    1  A    between atoms: C_1  and  C_2
REMARK    2  A    between atoms: C_4  and  C_5
REMARK    3  A    between atoms: C_11  and  C_12
REMARK    4  A    between atoms: N_16  and  C_17
REMARK                            x       y       z     vdW  Elec       q    Type
REMARK                         _______ _______ _______ _____ _____    ______ ____
ROOT
ATOM      1  C   UNL     1       1.707   7.262  20.216  0.00  0.00    +0.000 A 
ATOM      2  C   UNL     1       0.912   6.308  20.857  0.00  0.00    +0.000 A 
ATOM      3  C   UNL     1       1.234   4.958  20.772  0.00  0.00    +0.000 A 
ATOM      4  C   UNL     1       2.399   4.552  20.107  0.00  0.00    +0.000 A 
ATOM      5  C   UNL     1       2.692   3.105  20.050  0.00  0.00    +0.000 A 
ATOM      6  O   UNL     1       1.890   2.286  20.492  0.00  0.00    +0.000 OA
ATOM      7  C   UNL     1       3.977   2.694  19.457  0.00  0.00    +0.000 A 
ATOM      8  C   UNL     1       4.765   3.666  18.974  0.00  0.00    +0.000 A 
ATOM      9  N   UNL     1       4.520   5.046  18.925  0.00  0.00    +0.000 N 
ATOM     10  C   UNL     1       3.264   5.484  19.497  0.00  0.00    +0.000 A 
ATOM     11  C   UNL     1       2.830   6.823  19.485  0.00  0.00    +0.000 A 
ENDROOT
BRANCH   9  12
ATOM     12  C   UNL     1       5.586   5.910  18.456  0.00  0.00    +0.000 A 
ATOM     13  C   UNL     1       6.879   5.853  19.027  0.00  0.00    +0.000 A 
ATOM     14  C   UNL     1       7.907   6.711  18.615  0.00  0.00    +0.000 A 
ATOM     15  C   UNL     1       7.676   7.611  17.587  0.00  0.00    +0.000 A 
ATOM     16  F   UNL     1       8.663   8.417  17.175  0.00  0.00    +0.000 F 
ATOM     17  C   UNL     1       6.428   7.694  16.993  0.00  0.00    +0.000 A 
ATOM     18  C   UNL     1       5.386   6.879  17.452  0.00  0.00    +0.000 A 
ENDBRANCH   9  12
BRANCH   1  22
ATOM     19  C   UNL     1       0.540  12.208  19.910  0.00  0.00    +0.000 C 
ATOM     20  C   UNL     1       0.883  10.828  20.315  0.00  0.00    +0.000 A 
ATOM     21  C   UNL     1       1.080   9.698  19.492  0.00  0.00    +0.000 A 
ATOM     22  C   UNL     1       1.406   8.682  20.361  0.00  0.00    +0.000 A 
ATOM     23  O   UNL     1       1.380   9.179  21.632  0.00  0.00    +0.000 OA
ATOM     24  N   UNL     1       1.055  10.523  21.606  0.00  0.00    +0.000 NA
ENDBRANCH   1  22
BRANCH   7  25
ATOM     25  C   UNL     1       4.463   1.292  19.397  0.00  0.00    +0.000 C 
ATOM     26  N   UNL     1       5.355   0.921  20.358  0.00  0.00    +0.000 N 
ATOM     27  O   UNL     1       4.097   0.491  18.547  0.00  0.00    +0.000 OA
ATOM     28  H   UNL     1       5.655   1.568  21.085  0.00  0.00    +0.000 HD
ATOM     29  H   UNL     1       5.704  -0.026  20.364  0.00  0.00    +0.000 HD
ENDBRANCH   7  25
TORSDOF 3
ENDMDL
MODEL 6
REMARK VINA RESULT:      -7.5      4.336      9.286
REMARK  Name = 
REMARK  4 active torsions:
REMARK  status: ('A' for Active; 'I' for Inactive)
REMARK    1  A    between atoms: C_1  and  C_2
REMARK    2  A    between atoms: C_4  and  C_5
REMARK    3  A    between atoms: C_11  and  C_12
REMARK    4  A    between atoms: N_16  and  C_17
REMARK                            x       y       z     vdW  Elec       q    Type
REMARK                         _______ _______ _______ _____ _____    ______ ____
ROOT
ATOM      1  C   UNL     1       0.975   9.143  20.258  0.00  0.00    +0.000 A 
ATOM      2  C   UNL     1       1.143   9.420  21.617  0.00  0.00    +0.000 A 
ATOM      3  C   UNL     1       0.381  10.411  22.229  0.00  0.00    +0.000 A 
ATOM      4  C   UNL     1      -0.610  11.085  21.503  0.00  0.00    +0.000 A 
ATOM      5  C   UNL     1      -1.390  12.125  22.204  0.00  0.00    +0.000 A 
ATOM      6  O   UNL     1      -1.110  12.448  23.356  0.00  0.00    +0.000 OA
ATOM      7  C   UNL     1      -2.510  12.745  21.473  0.00  0.00    +0.000 A 
ATOM      8  C   UNL     1      -2.709  12.344  20.208  0.00  0.00    +0.000 A 
ATOM      9  N   UNL     1      -1.966  11.422  19.457  0.00  0.00    +0.000 N 
ATOM     10  C   UNL     1      -0.857  10.797  20.145  0.00  0.00    +0.000 A 
ATOM     11  C   UNL     1       0.027   9.890  19.529  0.00  0.00    +0.000 A 
ENDROOT
BRANCH   9  12
ATOM     12  C   UNL     1      -2.455  11.069  18.138  0.00  0.00    +0.000 A 
ATOM     13  C   UNL     1      -3.653  11.623  17.628  0.00  0.00    +0.000 A 
ATOM     14  C   UNL     1      -4.161  11.259  16.375  0.00  0.00    +0.000 A 
ATOM     15  C   UNL     1      -3.454  10.369  15.583  0.00  0.00    +0.000 A 
ATOM     16  F   UNL     1      -3.926  10.036  14.375  0.00  0.00    +0.000 F 
ATOM     17  C   UNL     1      -2.272   9.810  16.037  0.00  0.00    +0.000 A 
ATOM     18  C   UNL     1      -1.802  10.128  17.317  0.00  0.00    +0.000 A 
ENDBRANCH   9  12
BRANCH   1  22
ATOM     19  C   UNL     1       3.724   5.891  17.468  0.00  0.00    +0.000 C 
ATOM     20  C   UNL     1       2.934   6.600  18.497  0.00  0.00    +0.000 A 
ATOM     21  C   UNL     1       2.393   7.903  18.440  0.00  0.00    +0.000 A 
ATOM     22  C   UNL     1       1.727   8.059  19.634  0.00  0.00    +0.000 A 
ATOM     23  O   UNL     1       1.886   6.919  20.368  0.00  0.00    +0.000 OA
ATOM     24  N   UNL     1       2.639   6.003  19.657  0.00  0.00    +0.000 NA
ENDBRANCH   1  22
BRANCH   7  25
ATOM     25  C   UNL     1      -3.442  13.743  22.056  0.00  0.00    +0.000 C 
ATOM     26  N   UNL     1      -2.870  14.825  22.654  0.00  0.00    +0.000 N 
ATOM     27  O   UNL     1      -4.660  13.628  22.012  0.00  0.00    +0.000 OA
ATOM     28  H   UNL     1      -1.860  14.946  22.681  0.00  0.00    +0.000 HD
ATOM     29  H   UNL     1      -3.465  15.536  23.053  0.00  0.00    +0.000 HD
ENDBRANCH   7  25
TORSDOF 3
ENDMDL
MODEL 7
REMARK VINA RESULT:      -7.2      4.387      9.359
REMARK  Name = 
REMARK  4 active torsions:
REMARK  status: ('A' for Active; 'I' for Inactive)
REMARK    1  A    between atoms: C_1  and  C_2
REMARK    2  A    between atoms: C_4  and  C_5
REMARK    3  A    between atoms: C_11  and  C_12
REMARK    4  A    between atoms: N_16  and  C_17
REMARK                            x       y       z     vdW  Elec       q    Type
REMARK                         _______ _______ _______ _____ _____    ______ ____
ROOT
ATOM      1  C   UNL     1       0.984   9.345  20.108  0.00  0.00    +0.000 A 
ATOM      2  C   UNL     1       1.182   9.610  21.466  0.00  0.00    +0.000 A 
ATOM      3  C   UNL     1       0.386  10.545  22.119  0.00  0.00    +0.000 A 
ATOM      4  C   UNL     1      -0.667  11.172  21.438  0.00  0.00    +0.000 A 
ATOM      5  C   UNL     1      -1.481  12.155  22.183  0.00  0.00    +0.000 A 
ATOM      6  O   UNL     1      -1.181  12.476  23.330  0.00  0.00    +0.000 OA
ATOM      7  C   UNL     1      -2.659  12.719  21.500  0.00  0.00    +0.000 A 
ATOM      8  C   UNL     1      -2.877  12.328  20.236  0.00  0.00    +0.000 A 
ATOM      9  N   UNL     1      -2.108  11.461  19.444  0.00  0.00    +0.000 N 
ATOM     10  C   UNL     1      -0.942  10.891  20.084  0.00  0.00    +0.000 A 
ATOM     11  C   UNL     1      -0.029  10.047  19.424  0.00  0.00    +0.000 A 
ENDROOT
BRANCH   9  12
ATOM     12  C   UNL     1      -2.621  11.101  18.136  0.00  0.00    +0.000 A 
ATOM     13  C   UNL     1      -1.898  10.237  17.279  0.00  0.00    +0.000 A 
ATOM     14  C   UNL     1      -2.358   9.915  15.996  0.00  0.00    +0.000 A 
ATOM     15  C   UNL     1      -3.577  10.411  15.562  0.00  0.00    +0.000 A 
ATOM     16  F   UNL     1      -4.030  10.087  14.344  0.00  0.00    +0.000 F 
ATOM     17  C   UNL     1      -4.322  11.252  16.371  0.00  0.00    +0.000 A 
ATOM     18  C   UNL     1      -3.827  11.623  17.628  0.00  0.00    +0.000 A 
ENDBRANCH   9  12
BRANCH   1  22
ATOM     19  C   UNL     1       3.581   5.296  18.440  0.00  0.00    +0.000 C 
ATOM     20  C   UNL     1       2.898   6.593  18.636  0.00  0.00    +0.000 A 
ATOM     21  C   UNL     1       2.172   7.038  19.761  0.00  0.00    +0.000 A 
ATOM     22  C   UNL     1       1.776   8.317  19.441  0.00  0.00    +0.000 A 
ATOM     23  O   UNL     1       2.224   8.604  18.184  0.00  0.00    +0.000 OA
ATOM     24  N   UNL     1       2.929   7.527  17.679  0.00  0.00    +0.000 NA
ENDBRANCH   1  22
BRANCH   7  25
ATOM     25  C   UNL     1      -3.626  13.652  22.131  0.00  0.00    +0.000 C 
ATOM     26  N   UNL     1      -4.245  13.207  23.260  0.00  0.00    +0.000 N 
ATOM     27  O   UNL     1      -3.871  14.766  21.686  0.00  0.00    +0.000 OA
ATOM     28  H   UNL     1      -4.038  12.292  23.655  0.00  0.00    +0.000 HD
ATOM     29  H   UNL     1      -4.902  13.812  23.730  0.00  0.00    +0.000 HD
ENDBRANCH   7  25
TORSDOF 3
ENDMDL
MODEL 8
REMARK VINA RESULT:      -7.1      4.677      9.741
REMARK  Name = 
REMARK  4 active torsions:
REMARK  status: ('A' for Active; 'I' for Inactive)
REMARK    1  A    between atoms: C_1  and  C_2
REMARK    2  A    between atoms: C_4  and  C_5
REMARK    3  A    between atoms: C_11  and  C_12
REMARK    4  A    between atoms: N_16  and  C_17
REMARK                            x       y       z     vdW  Elec       q    Type
REMARK                         _______ _______ _______ _____ _____    ______ ____
ROOT
ATOM      1  C   UNL     1       0.307   9.767  20.818  0.00  0.00    +0.000 A 
ATOM      2  C   UNL     1       0.341  10.107  22.173  0.00  0.00    +0.000 A 
ATOM      3  C   UNL     1      -0.491  11.107  22.665  0.00  0.00    +0.000 A 
ATOM      4  C   UNL     1      -1.421  11.727  21.820  0.00  0.00    +0.000 A 
ATOM      5  C   UNL     1      -2.282  12.781  22.397  0.00  0.00    +0.000 A 
ATOM      6  O   UNL     1      -2.117  13.160  23.554  0.00  0.00    +0.000 OA
ATOM      7  C   UNL     1      -3.339  13.343  21.537  0.00  0.00    +0.000 A 
ATOM      8  C   UNL     1      -3.411  12.883  20.279  0.00  0.00    +0.000 A 
ATOM      9  N   UNL     1      -2.585  11.944  19.643  0.00  0.00    +0.000 N 
ATOM     10  C   UNL     1      -1.534  11.374  20.459  0.00  0.00    +0.000 A 
ATOM     11  C   UNL     1      -0.581  10.461  19.971  0.00  0.00    +0.000 A 
ENDROOT
BRANCH   9  12
ATOM     12  C   UNL     1      -2.941  11.523  18.302  0.00  0.00    +0.000 A 
ATOM     13  C   UNL     1      -4.265  11.657  17.820  0.00  0.00    +0.000 A 
ATOM     14  C   UNL     1      -4.635  11.215  16.544  0.00  0.00    +0.000 A 
ATOM     15  C   UNL     1      -3.676  10.674  15.703  0.00  0.00    +0.000 A 
ATOM     16  F   UNL     1      -4.021  10.271  14.474  0.00  0.00    +0.000 F 
ATOM     17  C   UNL     1      -2.366  10.533  16.130  0.00  0.00    +0.000 A 
ATOM     18  C   UNL     1      -2.016  10.917  17.429  0.00  0.00    +0.000 A 
ENDBRANCH   9  12
BRANCH   1  22
ATOM     19  C   UNL     1       3.003   5.576  19.777  0.00  0.00    +0.000 C 
ATOM     20  C   UNL     1       2.302   6.877  19.781  0.00  0.00    +0.000 A 
ATOM     21  C   UNL     1       1.528   7.452  20.813  0.00  0.00    +0.000 A 
ATOM     22  C   UNL     1       1.133   8.673  20.318  0.00  0.00    +0.000 A 
ATOM     23  O   UNL     1       1.627   8.805  19.052  0.00  0.00    +0.000 OA
ATOM     24  N   UNL     1       2.361   7.683  18.714  0.00  0.00    +0.000 NA
ENDBRANCH   1  22
BRANCH   7  25
ATOM     25  C   UNL     1      -4.339  14.345  21.984  0.00  0.00    +0.000 C 
ATOM     26  N   UNL     1      -3.874  15.344  22.787  0.00  0.00    +0.000 N 
ATOM     27  O   UNL     1      -5.519  14.305  21.662  0.00  0.00    +0.000 OA
ATOM     28  H   UNL     1      -2.892  15.404  23.048  0.00  0.00    +0.000 HD
ATOM     29  H   UNL     1      -4.516  16.054  23.106  0.00  0.00    +0.000 HD
ENDBRANCH   7  25
TORSDOF 3
ENDMDL
MODEL 9
REMARK VINA RESULT:      -7.0      7.723     10.496
REMARK  Name = 
REMARK  4 active torsions:
REMARK  status: ('A' for Active; 'I' for Inactive)
REMARK    1  A    between atoms: C_1  and  C_2
REMARK    2  A    between atoms: C_4  and  C_5
REMARK    3  A    between atoms: C_11  and  C_12
REMARK    4  A    between atoms: N_16  and  C_17
REMARK                            x       y       z     vdW  Elec       q    Type
REMARK                         _______ _______ _______ _____ _____    ______ ____
ROOT
ATOM      1  C   UNL     1      -0.588  13.823  20.988  0.00  0.00    +0.000 A 
ATOM      2  C   UNL     1      -1.035  14.203  22.256  0.00  0.00    +0.000 A 
ATOM      3  C   UNL     1      -2.373  14.047  22.603  0.00  0.00    +0.000 A 
ATOM      4  C   UNL     1      -3.265  13.440  21.709  0.00  0.00    +0.000 A 
ATOM      5  C   UNL     1      -4.674  13.298  22.131  0.00  0.00    +0.000 A 
ATOM      6  O   UNL     1      -5.062  13.783  23.191  0.00  0.00    +0.000 OA
ATOM      7  C   UNL     1      -5.580  12.551  21.240  0.00  0.00    +0.000 A 
ATOM      8  C   UNL     1      -5.063  12.093  20.090  0.00  0.00    +0.000 A 
ATOM      9  N   UNL     1      -3.762  12.254  19.591  0.00  0.00    +0.000 N 
ATOM     10  C   UNL     1      -2.847  12.985  20.441  0.00  0.00    +0.000 A 
ATOM     11  C   UNL     1      -1.522  13.288  20.077  0.00  0.00    +0.000 A 
ENDROOT
BRANCH   9  12
ATOM     12  C   UNL     1      -3.412  11.559  18.367  0.00  0.00    +0.000 A 
ATOM     13  C   UNL     1      -4.208  11.680  17.203  0.00  0.00    +0.000 A 
ATOM     14  C   UNL     1      -3.909  10.981  16.027  0.00  0.00    +0.000 A 
ATOM     15  C   UNL     1      -2.777  10.184  15.975  0.00  0.00    +0.000 A 
ATOM     16  F   UNL     1      -2.475   9.532  14.845  0.00  0.00    +0.000 F 
ATOM     17  C   UNL     1      -1.964  10.044  17.087  0.00  0.00    +0.000 A 
ATOM     18  C   UNL     1      -2.303  10.694  18.280  0.00  0.00    +0.000 A 
ENDBRANCH   9  12
BRANCH   1  22
ATOM     19  C   UNL     1       4.097  14.617  19.162  0.00  0.00    +0.000 C 
ATOM     20  C   UNL     1       2.893  14.250  19.937  0.00  0.00    +0.000 A 
ATOM     21  C   UNL     1       1.539  14.495  19.619  0.00  0.00    +0.000 A 
ATOM     22  C   UNL     1       0.828  13.926  20.650  0.00  0.00    +0.000 A 
ATOM     23  O   UNL     1       1.713  13.393  21.542  0.00  0.00    +0.000 OA
ATOM     24  N   UNL     1       3.007  13.593  21.097  0.00  0.00    +0.000 NA
ENDBRANCH   1  22
BRANCH   7  25
ATOM     25  C   UNL     1      -6.999  12.247  21.551  0.00  0.00    +0.000 C 
ATOM     26  N   UNL     1      -7.247  11.719  22.783  0.00  0.00    +0.000 N 
ATOM     27  O   UNL     1      -7.916  12.452  20.766  0.00  0.00    +0.000 OA
ATOM     28  H   UNL     1      -6.499  11.562  23.455  0.00  0.00    +0.000 HD
ATOM     29  H   UNL     1      -8.199  11.507  23.042  0.00  0.00    +0.000 HD
ENDBRANCH   7  25
TORSDOF 3
ENDMDL
