MODEL 1
REMARK VINA RESULT:      -8.2      0.000      0.000
REMARK  Name = 
REMARK  6 active torsions:
REMARK  status: ('A' for Active; 'I' for Inactive)
REMARK    1  A    between atoms: C_1  and  C_2
REMARK    2  A    between atoms: C_7  and  N_8
REMARK    3  A    between atoms: C_9  and  C_10
REMARK    4  A    between atoms: C_13  and  C_14
REMARK    5  A    between atoms: C_21  and  C_22
REMARK    6  A    between atoms: C_21  and  C_23
REMARK                            x       y       z     vdW  Elec       q    Type
REMARK                         _______ _______ _______ _____ _____    ______ ____
ROOT
ATOM      1  C   UNL     1       3.153   6.825  17.704  0.00  0.00    +0.000 C 
ATOM      2  C   UNL     1       4.416   6.409  17.456  0.00  0.00    +0.000 C 
ATOM      3  C   UNL     1       4.693   5.813  16.121  0.00  0.00    +0.000 C 
ATOM      4  C   UNL     1       5.871   5.194  15.957  0.00  0.00    +0.000 C 
ATOM      5  O   UNL     1       6.680   5.082  17.043  0.00  0.00    +0.000 OA
ATOM      6  C   UNL     1       6.763   6.114  17.954  0.00  0.00    +0.000 C 
ATOM      7  C   UNL     1       7.564   7.229  17.244  0.00  0.00    +0.000 C 
ATOM      8  C   UNL     1       7.542   5.650  19.185  0.00  0.00    +0.000 C 
ATOM      9  O   UNL     1       5.469   6.524  18.327  0.00  0.00    +0.000 OA
ENDROOT
BRANCH   4  10
ATOM     10  C   UNL     1       6.382   4.732  14.644  0.00  0.00    +0.000 A 
ATOM     11  C   UNL     1       7.493   5.407  14.109  0.00  0.00    +0.000 A 
ATOM     12  C   UNL     1       7.939   5.140  12.820  0.00  0.00    +0.000 A 
ATOM     13  C   UNL     1       7.294   4.175  12.046  0.00  0.00    +0.000 A 
ATOM     14  C   UNL     1       6.206   3.473  12.571  0.00  0.00    +0.000 A 
ATOM     15  C   UNL     1       5.744   3.750  13.862  0.00  0.00    +0.000 A 
ENDBRANCH   4  10
BRANCH   1  17
ATOM     16  N   UNL     1       1.632   8.362  18.915  0.00  0.00    +0.000 NA
ATOM     17  C   UNL     1       2.536   7.439  18.910  0.00  0.00    +0.000 C 
BRANCH  16  24
ATOM     18  C   UNL     1      -0.247  10.552  18.661  0.00  0.00    +0.000 C 
ATOM     19  C   UNL     1       0.161  10.026  20.005  0.00  0.00    +0.000 A 
ATOM     20  C   UNL     1      -0.380  10.619  21.164  0.00  0.00    +0.000 A 
ATOM     21  C   UNL     1      -0.015  10.172  22.433  0.00  0.00    +0.000 A 
ATOM     22  C   UNL     1       0.893   9.127  22.561  0.00  0.00    +0.000 A 
ATOM     23  C   UNL     1       1.438   8.522  21.423  0.00  0.00    +0.000 A 
ATOM     24  C   UNL     1       1.085   8.957  20.116  0.00  0.00    +0.000 A 
ENDBRANCH  16  24
ENDBRANCH   1  17
TORSDOF 3
ENDMDL
MODEL 2
REMARK VINA RESULT:      -7.9      4.699      7.176
REMARK  Name = 
REMARK  6 active torsions:
REMARK  status: ('A' for Active; 'I' for Inactive)
REMARK    1  A    between atoms: C_1  and  C_2
REMARK    2  A    between atoms: C_7  and  N_8
REMARK    3  A    between atoms: C_9  and  C_10
REMARK    4  A    between atoms: C_13  and  C_14
REMARK    5  A    between atoms: C_21  and  C_22
REMARK    6  A    between atoms: C_21  and  C_23
REMARK                            x       y       z     vdW  Elec       q    Type
REMARK                         _______ _______ _______ _____ _____    ______ ____
ROOT
ATOM      1  C   UNL     1       7.651   7.761  18.411  0.00  0.00    +0.000 C 
ATOM      2  C   UNL     1       7.121   6.755  17.677  0.00  0.00    +0.000 C 
ATOM      3  C   UNL     1       6.213   5.802  18.372  0.00  0.00    +0.000 C 
ATOM      4  C   UNL     1       5.877   4.684  17.714  0.00  0.00    +0.000 C 
ATOM      5  O   UNL     1       6.458   4.466  16.505  0.00  0.00    +0.000 OA
ATOM      6  C   UNL     1       6.686   5.520  15.646  0.00  0.00    +0.000 C 
ATOM      7  C   UNL     1       5.294   5.924  15.108  0.00  0.00    +0.000 C 
ATOM      8  C   UNL     1       7.552   5.050  14.476  0.00  0.00    +0.000 C 
ATOM      9  O   UNL     1       7.330   6.564  16.336  0.00  0.00    +0.000 OA
ENDROOT
BRANCH   4  10
ATOM     10  C   UNL     1       4.830   3.741  18.176  0.00  0.00    +0.000 A 
ATOM     11  C   UNL     1       3.857   3.347  17.241  0.00  0.00    +0.000 A 
ATOM     12  C   UNL     1       2.758   2.590  17.630  0.00  0.00    +0.000 A 
ATOM     13  C   UNL     1       2.621   2.193  18.960  0.00  0.00    +0.000 A 
ATOM     14  C   UNL     1       3.593   2.550  19.898  0.00  0.00    +0.000 A 
ATOM     15  C   UNL     1       4.692   3.325  19.515  0.00  0.00    +0.000 A 
ENDBRANCH   4  10
BRANCH   1  17
ATOM     16  N   UNL     1       8.754   9.961  18.702  0.00  0.00    +0.000 NA
ATOM     17  C   UNL     1       8.587   8.858  18.050  0.00  0.00    +0.000 C 
BRANCH  16  24
ATOM     18  C   UNL     1       7.659  12.293  17.376  0.00  0.00    +0.000 C 
ATOM     19  C   UNL     1       9.129  12.167  17.647  0.00  0.00    +0.000 A 
ATOM     20  C   UNL     1       9.990  13.207  17.238  0.00  0.00    +0.000 A 
ATOM     21  C   UNL     1      11.365  13.123  17.454  0.00  0.00    +0.000 A 
ATOM     22  C   UNL     1      11.896  12.002  18.082  0.00  0.00    +0.000 A 
ATOM     23  C   UNL     1      11.059  10.963  18.499  0.00  0.00    +0.000 A 
ATOM     24  C   UNL     1       9.653  11.019  18.292  0.00  0.00    +0.000 A 
ENDBRANCH  16  24
ENDBRANCH   1  17
TORSDOF 3
ENDMDL
MODEL 3
REMARK VINA RESULT:      -7.9      1.239      1.377
REMARK  Name = 
REMARK  6 active torsions:
REMARK  status: ('A' for Active; 'I' for Inactive)
REMARK    1  A    between atoms: C_1  and  C_2
REMARK    2  A    between atoms: C_7  and  N_8
REMARK    3  A    between atoms: C_9  and  C_10
REMARK    4  A    between atoms: C_13  and  C_14
REMARK    5  A    between atoms: C_21  and  C_22
REMARK    6  A    between atoms: C_21  and  C_23
REMARK                            x       y       z     vdW  Elec       q    Type
REMARK                         _______ _______ _______ _____ _____    ______ ____
ROOT
ATOM      1  C   UNL     1       3.049   7.406  17.914  0.00  0.00    +0.000 C 
ATOM      2  C   UNL     1       3.825   6.311  17.741  0.00  0.00    +0.000 C 
ATOM      3  C   UNL     1       4.397   6.083  16.386  0.00  0.00    +0.000 C 
ATOM      4  C   UNL     1       4.966   4.892  16.152  0.00  0.00    +0.000 C 
ATOM      5  O   UNL     1       4.898   3.958  17.137  0.00  0.00    +0.000 OA
ATOM      6  C   UNL     1       5.016   4.334  18.458  0.00  0.00    +0.000 C 
ATOM      7  C   UNL     1       6.505   4.697  18.654  0.00  0.00    +0.000 C 
ATOM      8  C   UNL     1       4.671   3.150  19.362  0.00  0.00    +0.000 C 
ATOM      9  O   UNL     1       4.151   5.413  18.724  0.00  0.00    +0.000 OA
ENDROOT
BRANCH   4  10
ATOM     10  C   UNL     1       5.755   4.581  14.937  0.00  0.00    +0.000 A 
ATOM     11  C   UNL     1       6.986   5.242  14.779  0.00  0.00    +0.000 A 
ATOM     12  C   UNL     1       7.714   5.126  13.601  0.00  0.00    +0.000 A 
ATOM     13  C   UNL     1       7.236   4.327  12.562  0.00  0.00    +0.000 A 
ATOM     14  C   UNL     1       6.028   3.639  12.711  0.00  0.00    +0.000 A 
ATOM     15  C   UNL     1       5.284   3.766  13.889  0.00  0.00    +0.000 A 
ENDBRANCH   4  10
BRANCH   1  17
ATOM     16  N   UNL     1       1.499   8.918  19.122  0.00  0.00    +0.000 NA
ATOM     17  C   UNL     1       2.320   7.920  19.105  0.00  0.00    +0.000 C 
BRANCH  16  24
ATOM     18  C   UNL     1      -0.311  11.168  18.896  0.00  0.00    +0.000 C 
ATOM     19  C   UNL     1      -0.051  10.504  20.216  0.00  0.00    +0.000 A 
ATOM     20  C   UNL     1      -0.701  10.995  21.367  0.00  0.00    +0.000 A 
ATOM     21  C   UNL     1      -0.476  10.419  22.616  0.00  0.00    +0.000 A 
ATOM     22  C   UNL     1       0.398   9.344  22.731  0.00  0.00    +0.000 A 
ATOM     23  C   UNL     1       1.049   8.839  21.601  0.00  0.00    +0.000 A 
ATOM     24  C   UNL     1       0.840   9.407  20.314  0.00  0.00    +0.000 A 
ENDBRANCH  16  24
ENDBRANCH   1  17
TORSDOF 3
ENDMDL
MODEL 4
REMARK VINA RESULT:      -7.8      4.315      7.296
REMARK  Name = 
REMARK  6 active torsions:
REMARK  status: ('A' for Active; 'I' for Inactive)
REMARK    1  A    between atoms: C_1  and  C_2
REMARK    2  A    between atoms: C_7  and  N_8
REMARK    3  A    between atoms: C_9  and  C_10
REMARK    4  A    between atoms: C_13  and  C_14
REMARK    5  A    between atoms: C_21  and  C_22
REMARK    6  A    between atoms: C_21  and  C_23
REMARK                            x       y       z     vdW  Elec       q    Type
REMARK                         _______ _______ _______ _____ _____    ______ ____
ROOT
ATOM      1  C   UNL     1       7.390   8.893  17.474  0.00  0.00    +0.000 C 
ATOM      2  C   UNL     1       7.124   7.641  17.910  0.00  0.00    +0.000 C 
ATOM      3  C   UNL     1       5.789   7.070  17.584  0.00  0.00    +0.000 C 
ATOM      4  C   UNL     1       5.438   5.935  18.206  0.00  0.00    +0.000 C 
ATOM      5  O   UNL     1       6.287   5.445  19.147  0.00  0.00    +0.000 OA
ATOM      6  C   UNL     1       7.650   5.529  18.961  0.00  0.00    +0.000 C 
ATOM      7  C   UNL     1       7.982   4.497  17.859  0.00  0.00    +0.000 C 
ATOM      8  C   UNL     1       8.369   5.129  20.250  0.00  0.00    +0.000 C 
ATOM      9  O   UNL     1       8.000   6.844  18.601  0.00  0.00    +0.000 OA
ENDROOT
BRANCH   4  10
ATOM     10  C   UNL     1       4.243   5.135  17.846  0.00  0.00    +0.000 A 
ATOM     11  C   UNL     1       2.983   5.718  18.070  0.00  0.00    +0.000 A 
ATOM     12  C   UNL     1       1.816   4.982  17.905  0.00  0.00    +0.000 A 
ATOM     13  C   UNL     1       1.884   3.651  17.489  0.00  0.00    +0.000 A 
ATOM     14  C   UNL     1       3.126   3.064  17.234  0.00  0.00    +0.000 A 
ATOM     15  C   UNL     1       4.304   3.795  17.415  0.00  0.00    +0.000 A 
ENDBRANCH   4  10
BRANCH   1  17
ATOM     16  N   UNL     1       8.897  10.453  18.676  0.00  0.00    +0.000 NA
ATOM     17  C   UNL     1       8.591   9.758  17.630  0.00  0.00    +0.000 C 
BRANCH  16  24
ATOM     18  C   UNL     1       9.625  11.546  21.258  0.00  0.00    +0.000 C 
ATOM     19  C   UNL     1      10.429  11.848  20.027  0.00  0.00    +0.000 A 
ATOM     20  C   UNL     1      11.557  12.687  20.137  0.00  0.00    +0.000 A 
ATOM     21  C   UNL     1      12.321  13.007  19.016  0.00  0.00    +0.000 A 
ATOM     22  C   UNL     1      11.972  12.491  17.773  0.00  0.00    +0.000 A 
ATOM     23  C   UNL     1      10.859  11.653  17.645  0.00  0.00    +0.000 A 
ATOM     24  C   UNL     1      10.059  11.310  18.769  0.00  0.00    +0.000 A 
ENDBRANCH  16  24
ENDBRANCH   1  17
TORSDOF 3
ENDMDL
MODEL 5
REMARK VINA RESULT:      -7.8      0.228      1.011
REMARK  Name = 
REMARK  6 active torsions:
REMARK  status: ('A' for Active; 'I' for Inactive)
REMARK    1  A    between atoms: C_1  and  C_2
REMARK    2  A    between atoms: C_7  and  N_8
REMARK    3  A    between atoms: C_9  and  C_10
REMARK    4  A    between atoms: C_13  and  C_14
REMARK    5  A    between atoms: C_21  and  C_22
REMARK    6  A    between atoms: C_21  and  C_23
REMARK                            x       y       z     vdW  Elec       q    Type
REMARK                         _______ _______ _______ _____ _____    ______ ____
ROOT
ATOM      1  C   UNL     1       3.021   6.993  17.732  0.00  0.00    +0.000 C 
ATOM      2  C   UNL     1       4.275   6.557  17.476  0.00  0.00    +0.000 C 
ATOM      3  C   UNL     1       4.558   6.044  16.108  0.00  0.00    +0.000 C 
ATOM      4  C   UNL     1       5.720   5.401  15.921  0.00  0.00    +0.000 C 
ATOM      5  O   UNL     1       6.505   5.192  17.010  0.00  0.00    +0.000 OA
ATOM      6  C   UNL     1       6.603   6.157  17.990  0.00  0.00    +0.000 C 
ATOM      7  C   UNL     1       7.449   7.292  17.370  0.00  0.00    +0.000 C 
ATOM      8  C   UNL     1       7.346   5.587  19.199  0.00  0.00    +0.000 C 
ATOM      9  O   UNL     1       5.315   6.580  18.369  0.00  0.00    +0.000 OA
ENDROOT
BRANCH   4  10
ATOM     10  C   UNL     1       6.240   5.013  14.588  0.00  0.00    +0.000 A 
ATOM     11  C   UNL     1       5.542   4.014  13.887  0.00  0.00    +0.000 A 
ATOM     12  C   UNL     1       6.047   3.485  12.705  0.00  0.00    +0.000 A 
ATOM     13  C   UNL     1       7.252   3.961  12.188  0.00  0.00    +0.000 A 
ATOM     14  C   UNL     1       7.946   4.974  12.855  0.00  0.00    +0.000 A 
ATOM     15  C   UNL     1       7.450   5.498  14.053  0.00  0.00    +0.000 A 
ENDBRANCH   4  10
BRANCH   1  17
ATOM     16  N   UNL     1       1.574   8.536  19.026  0.00  0.00    +0.000 NA
ATOM     17  C   UNL     1       2.400   7.544  18.966  0.00  0.00    +0.000 C 
BRANCH  16  24
ATOM     18  C   UNL     1      -0.510  10.542  18.880  0.00  0.00    +0.000 C 
ATOM     19  C   UNL     1      -0.000  10.039  20.199  0.00  0.00    +0.000 A 
ATOM     20  C   UNL     1      -0.548  10.565  21.388  0.00  0.00    +0.000 A 
ATOM     21  C   UNL     1      -0.092  10.138  22.634  0.00  0.00    +0.000 A 
ATOM     22  C   UNL     1       0.914   9.182  22.709  0.00  0.00    +0.000 A 
ATOM     23  C   UNL     1       1.467   8.645  21.542  0.00  0.00    +0.000 A 
ATOM     24  C   UNL     1       1.023   9.061  20.256  0.00  0.00    +0.000 A 
ENDBRANCH  16  24
ENDBRANCH   1  17
TORSDOF 3
ENDMDL
MODEL 6
REMARK VINA RESULT:      -7.7      1.979      3.641
REMARK  Name = 
REMARK  6 active torsions:
REMARK  status: ('A' for Active; 'I' for Inactive)
REMARK    1  A    between atoms: C_1  and  C_2
REMARK    2  A    between atoms: C_7  and  N_8
REMARK    3  A    between atoms: C_9  and  C_10
REMARK    4  A    between atoms: C_13  and  C_14
REMARK    5  A    between atoms: C_21  and  C_22
REMARK    6  A    between atoms: C_21  and  C_23
REMARK                            x       y       z     vdW  Elec       q    Type
REMARK                         _______ _______ _______ _____ _____    ______ ____
ROOT
ATOM      1  C   UNL     1       1.884   8.895  18.589  0.00  0.00    +0.000 C 
ATOM      2  C   UNL     1       2.267   7.597  18.607  0.00  0.00    +0.000 C 
ATOM      3  C   UNL     1       3.393   7.201  17.719  0.00  0.00    +0.000 C 
ATOM      4  C   UNL     1       3.618   5.889  17.561  0.00  0.00    +0.000 C 
ATOM      5  O   UNL     1       2.749   5.026  18.152  0.00  0.00    +0.000 OA
ATOM      6  C   UNL     1       2.225   5.312  19.394  0.00  0.00    +0.000 C 
ATOM      7  C   UNL     1       3.389   5.111  20.391  0.00  0.00    +0.000 C 
ATOM      8  C   UNL     1       1.112   4.317  19.722  0.00  0.00    +0.000 C 
ATOM      9  O   UNL     1       1.718   6.626  19.404  0.00  0.00    +0.000 OA
ENDROOT
BRANCH   4  10
ATOM     10  C   UNL     1       4.814   5.335  16.882  0.00  0.00    +0.000 A 
ATOM     11  C   UNL     1       5.986   6.110  16.904  0.00  0.00    +0.000 A 
ATOM     12  C   UNL     1       7.103   5.738  16.165  0.00  0.00    +0.000 A 
ATOM     13  C   UNL     1       7.077   4.568  15.404  0.00  0.00    +0.000 A 
ATOM     14  C   UNL     1       5.930   3.770  15.393  0.00  0.00    +0.000 A 
ATOM     15  C   UNL     1       4.799   4.149  16.122  0.00  0.00    +0.000 A 
ENDBRANCH   4  10
BRANCH   1  17
ATOM     16  N   UNL     1       0.935  10.215  20.460  0.00  0.00    +0.000 NA
ATOM     17  C   UNL     1       0.810   9.617  19.322  0.00  0.00    +0.000 C 
BRANCH  16  24
ATOM     18  C   UNL     1       0.307   9.404  23.170  0.00  0.00    +0.000 C 
ATOM     19  C   UNL     1      -0.464  10.491  22.481  0.00  0.00    +0.000 A 
ATOM     20  C   UNL     1      -1.520  11.122  23.172  0.00  0.00    +0.000 A 
ATOM     21  C   UNL     1      -2.273  12.125  22.564  0.00  0.00    +0.000 A 
ATOM     22  C   UNL     1      -1.981  12.513  21.261  0.00  0.00    +0.000 A 
ATOM     23  C   UNL     1      -0.936  11.902  20.561  0.00  0.00    +0.000 A 
ATOM     24  C   UNL     1      -0.150  10.876  21.154  0.00  0.00    +0.000 A 
ENDBRANCH  16  24
ENDBRANCH   1  17
TORSDOF 3
ENDMDL
MODEL 7
REMARK VINA RESULT:      -7.7      1.317      1.801
REMARK  Name = 
REMARK  6 active torsions:
REMARK  status: ('A' for Active; 'I' for Inactive)
REMARK    1  A    between atoms: C_1  and  C_2
REMARK    2  A    between atoms: C_7  and  N_8
REMARK    3  A    between atoms: C_9  and  C_10
REMARK    4  A    between atoms: C_13  and  C_14
REMARK    5  A    between atoms: C_21  and  C_22
REMARK    6  A    between atoms: C_21  and  C_23
REMARK                            x       y       z     vdW  Elec       q    Type
REMARK                         _______ _______ _______ _____ _____    ______ ____
ROOT
ATOM      1  C   UNL     1       2.805   7.650  18.192  0.00  0.00    +0.000 C 
ATOM      2  C   UNL     1       3.619   6.587  17.996  0.00  0.00    +0.000 C 
ATOM      3  C   UNL     1       4.206   6.412  16.639  0.00  0.00    +0.000 C 
ATOM      4  C   UNL     1       4.816   5.247  16.380  0.00  0.00    +0.000 C 
ATOM      5  O   UNL     1       4.775   4.287  17.341  0.00  0.00    +0.000 OA
ATOM      6  C   UNL     1       4.873   4.634  18.671  0.00  0.00    +0.000 C 
ATOM      7  C   UNL     1       6.348   5.042  18.885  0.00  0.00    +0.000 C 
ATOM      8  C   UNL     1       4.563   3.416  19.543  0.00  0.00    +0.000 C 
ATOM      9  O   UNL     1       3.970   5.676  18.958  0.00  0.00    +0.000 OA
ENDROOT
BRANCH   4  10
ATOM     10  C   UNL     1       5.623   4.994  15.162  0.00  0.00    +0.000 A 
ATOM     11  C   UNL     1       5.087   4.118  14.202  0.00  0.00    +0.000 A 
ATOM     12  C   UNL     1       5.840   3.708  13.108  0.00  0.00    +0.000 A 
ATOM     13  C   UNL     1       7.141   4.185  12.941  0.00  0.00    +0.000 A 
ATOM     14  C   UNL     1       7.681   5.079  13.869  0.00  0.00    +0.000 A 
ATOM     15  C   UNL     1       6.932   5.481  14.979  0.00  0.00    +0.000 A 
ENDBRANCH   4  10
BRANCH   1  17
ATOM     16  N   UNL     1       1.278   9.140  19.452  0.00  0.00    +0.000 NA
ATOM     17  C   UNL     1       2.053   8.109  19.390  0.00  0.00    +0.000 C 
BRANCH  16  24
ATOM     18  C   UNL     1      -0.410  11.492  19.333  0.00  0.00    +0.000 C 
ATOM     19  C   UNL     1      -0.238  10.717  20.607  0.00  0.00    +0.000 A 
ATOM     20  C   UNL     1      -0.912  11.153  21.767  0.00  0.00    +0.000 A 
ATOM     21  C   UNL     1      -0.767  10.472  22.975  0.00  0.00    +0.000 A 
ATOM     22  C   UNL     1       0.048   9.348  23.039  0.00  0.00    +0.000 A 
ATOM     23  C   UNL     1       0.720   8.897  21.898  0.00  0.00    +0.000 A 
ATOM     24  C   UNL     1       0.593   9.571  20.653  0.00  0.00    +0.000 A 
ENDBRANCH  16  24
ENDBRANCH   1  17
TORSDOF 3
ENDMDL
MODEL 8
REMARK VINA RESULT:      -7.7      3.412      9.360
REMARK  Name = 
REMARK  6 active torsions:
REMARK  status: ('A' for Active; 'I' for Inactive)
REMARK    1  A    between atoms: C_1  and  C_2
REMARK    2  A    between atoms: C_7  and  N_8
REMARK    3  A    between atoms: C_9  and  C_10
REMARK    4  A    between atoms: C_13  and  C_14
REMARK    5  A    between atoms: C_21  and  C_22
REMARK    6  A    between atoms: C_21  and  C_23
REMARK                            x       y       z     vdW  Elec       q    Type
REMARK                         _______ _______ _______ _____ _____    ______ ____
ROOT
ATOM      1  C   UNL     1       1.587   8.616  17.714  0.00  0.00    +0.000 C 
ATOM      2  C   UNL     1       0.892   9.621  18.295  0.00  0.00    +0.000 C 
ATOM      3  C   UNL     1      -0.515   9.827  17.855  0.00  0.00    +0.000 C 
ATOM      4  C   UNL     1      -1.124  10.953  18.253  0.00  0.00    +0.000 C 
ATOM      5  O   UNL     1      -0.385  11.856  18.948  0.00  0.00    +0.000 OA
ATOM      6  C   UNL     1       0.551  11.427  19.865  0.00  0.00    +0.000 C 
ATOM      7  C   UNL     1      -0.261  10.892  21.066  0.00  0.00    +0.000 C 
ATOM      8  C   UNL     1       1.399  12.613  20.326  0.00  0.00    +0.000 C 
ATOM      9  O   UNL     1       1.373  10.445  19.280  0.00  0.00    +0.000 OA
ENDROOT
BRANCH   4  10
ATOM     10  C   UNL     1      -2.573  11.211  18.076  0.00  0.00    +0.000 A 
ATOM     11  C   UNL     1      -3.128  10.943  16.812  0.00  0.00    +0.000 A 
ATOM     12  C   UNL     1      -4.438  11.299  16.517  0.00  0.00    +0.000 A 
ATOM     13  C   UNL     1      -5.229  11.913  17.489  0.00  0.00    +0.000 A 
ATOM     14  C   UNL     1      -4.704  12.161  18.760  0.00  0.00    +0.000 A 
ATOM     15  C   UNL     1      -3.381  11.819  19.056  0.00  0.00    +0.000 A 
ENDBRANCH   4  10
BRANCH   1  17
ATOM     16  N   UNL     1       3.449   6.984  17.584  0.00  0.00    +0.000 NA
ATOM     17  C   UNL     1       2.987   8.149  17.899  0.00  0.00    +0.000 C 
BRANCH  16  24
ATOM     18  C   UNL     1       3.962   4.949  19.581  0.00  0.00    +0.000 C 
ATOM     19  C   UNL     1       5.077   5.563  18.787  0.00  0.00    +0.000 A 
ATOM     20  C   UNL     1       6.401   5.140  19.028  0.00  0.00    +0.000 A 
ATOM     21  C   UNL     1       7.468   5.696  18.325  0.00  0.00    +0.000 A 
ATOM     22  C   UNL     1       7.228   6.679  17.371  0.00  0.00    +0.000 A 
ATOM     23  C   UNL     1       5.922   7.109  17.114  0.00  0.00    +0.000 A 
ATOM     24  C   UNL     1       4.813   6.561  17.816  0.00  0.00    +0.000 A 
ENDBRANCH  16  24
ENDBRANCH   1  17
TORSDOF 3
ENDMDL
MODEL 9
REMARK VINA RESULT:      -7.6      2.004      3.761
REMARK  Name = 
REMARK  6 active torsions:
REMARK  status: ('A' for Active; 'I' for Inactive)
REMARK    1  A    between atoms: C_1  and  C_2
REMARK    2  A    between atoms: C_7  and  N_8
REMARK    3  A    between atoms: C_9  and  C_10
REMARK    4  A    between atoms: C_13  and  C_14
REMARK    5  A    between atoms: C_21  and  C_22
REMARK    6  A    between atoms: C_21  and  C_23
REMARK                            x       y       z     vdW  Elec       q    Type
REMARK                         _______ _______ _______ _____ _____    ______ ____
ROOT
ATOM      1  C   UNL     1       1.850   8.937  18.689  0.00  0.00    +0.000 C 
ATOM      2  C   UNL     1       2.270   7.653  18.621  0.00  0.00    +0.000 C 
ATOM      3  C   UNL     1       3.401   7.348  17.703  0.00  0.00    +0.000 C 
ATOM      4  C   UNL     1       3.663   6.056  17.460  0.00  0.00    +0.000 C 
ATOM      5  O   UNL     1       2.825   5.132  17.999  0.00  0.00    +0.000 OA
ATOM      6  C   UNL     1       2.302   5.322  19.260  0.00  0.00    +0.000 C 
ATOM      7  C   UNL     1       3.479   5.092  20.235  0.00  0.00    +0.000 C 
ATOM      8  C   UNL     1       1.222   4.275  19.530  0.00  0.00    +0.000 C 
ATOM      9  O   UNL     1       1.757   6.617  19.357  0.00  0.00    +0.000 OA
ENDROOT
BRANCH   4  10
ATOM     10  C   UNL     1       4.870   5.583  16.740  0.00  0.00    +0.000 A 
ATOM     11  C   UNL     1       4.783   4.346  16.078  0.00  0.00    +0.000 A 
ATOM     12  C   UNL     1       5.908   3.759  15.510  0.00  0.00    +0.000 A 
ATOM     13  C   UNL     1       7.141   4.410  15.575  0.00  0.00    +0.000 A 
ATOM     14  C   UNL     1       7.240   5.653  16.204  0.00  0.00    +0.000 A 
ATOM     15  C   UNL     1       6.115   6.240  16.790  0.00  0.00    +0.000 A 
ENDBRANCH   4  10
BRANCH   1  17
ATOM     16  N   UNL     1       0.910  10.472  20.393  0.00  0.00    +0.000 NA
ATOM     17  C   UNL     1       0.760   9.579  19.472  0.00  0.00    +0.000 C 
BRANCH  16  24
ATOM     18  C   UNL     1       0.362   9.434  23.042  0.00  0.00    +0.000 C 
ATOM     19  C   UNL     1      -0.455  10.547  22.455  0.00  0.00    +0.000 A 
ATOM     20  C   UNL     1      -1.514  11.090  23.212  0.00  0.00    +0.000 A 
ATOM     21  C   UNL     1      -2.309  12.113  22.698  0.00  0.00    +0.000 A 
ATOM     22  C   UNL     1      -2.055  12.609  21.425  0.00  0.00    +0.000 A 
ATOM     23  C   UNL     1      -1.007  12.088  20.660  0.00  0.00    +0.000 A 
ATOM     24  C   UNL     1      -0.179  11.043  21.156  0.00  0.00    +0.000 A 
ENDBRANCH  16  24
ENDBRANCH   1  17
TORSDOF 3
ENDMDL
