MODEL 1
REMARK VINA RESULT:      -7.5      0.000      0.000
REMARK  Name = 
REMARK  7 active torsions:
REMARK  status: ('A' for Active; 'I' for Inactive)
REMARK    1  A    between atoms: C_1  and  C_2
REMARK    2  A    between atoms: C_5  and  S_6
REMARK    3  A    between atoms: S_6  and  N_9
REMARK    4  A    between atoms: N_9  and  C_10
REMARK    5  A    between atoms: C_10  and  C_11
REMARK    6  A    between atoms: C_11  and  N_12
REMARK    7  A    between atoms: C_13  and  C_14
REMARK                            x       y       z     vdW  Elec       q    Type
REMARK                         _______ _______ _______ _____ _____    ______ ____
ROOT
ATOM      1  N   UNL     1       5.425   5.767  17.885  0.00  0.00    +0.000 NA
ATOM      2  H   UNL     1       5.636   5.265  18.751  0.00  0.00    +0.000 HD
ENDROOT
BRANCH   1   3
ATOM      3  S   UNL     1       6.855   5.936  16.984  0.00  0.00    +0.000 S 
ATOM      4  O   UNL     1       7.847   5.135  17.661  0.00  0.00    +0.000 OA
ATOM      5  O   UNL     1       7.059   7.352  16.750  0.00  0.00    +0.000 OA
BRANCH   3  10
ATOM      6  C   UNL     1       5.749   2.932  11.821  0.00  0.00    +0.000 C 
ATOM      7  C   UNL     1       6.003   3.721  13.074  0.00  0.00    +0.000 A 
ATOM      8  C   UNL     1       7.174   4.476  13.219  0.00  0.00    +0.000 A 
ATOM      9  C   UNL     1       7.418   5.186  14.397  0.00  0.00    +0.000 A 
ATOM     10  C   UNL     1       6.485   5.145  15.438  0.00  0.00    +0.000 A 
ATOM     11  C   UNL     1       5.316   4.394  15.309  0.00  0.00    +0.000 A 
ATOM     12  C   UNL     1       5.076   3.687  14.126  0.00  0.00    +0.000 A 
ENDBRANCH   3  10
ENDBRANCH   1   3
BRANCH   1  13
ATOM     13  C   UNL     1       4.573   6.973  17.974  0.00  0.00    +0.000 C 
BRANCH  13  14
ATOM     14  C   UNL     1       3.105   6.680  17.661  0.00  0.00    +0.000 C 
BRANCH  14  15
ATOM     15  N   UNL     1       2.495   5.909  18.743  0.00  0.00    +0.000 N 
ATOM     16  C   UNL     1       1.972   6.406  19.921  0.00  0.00    +0.000 A 
ATOM     17  C   UNL     1       1.973   7.828  20.356  0.00  0.00    +0.000 C 
ATOM     18  C   UNL     1       1.438   5.337  20.614  0.00  0.00    +0.000 A 
ATOM     19  C   UNL     1       1.628   4.163  19.850  0.00  0.00    +0.000 A 
ATOM     20  C   UNL     1       1.281   2.813  20.049  0.00  0.00    +0.000 A 
ATOM     21  C   UNL     1       1.605   1.868  19.075  0.00  0.00    +0.000 A 
ATOM     22  C   UNL     1       2.260   2.256  17.909  0.00  0.00    +0.000 A 
ATOM     23  C   UNL     1       2.612   3.593  17.689  0.00  0.00    +0.000 A 
ATOM     24  C   UNL     1       2.289   4.537  18.678  0.00  0.00    +0.000 A 
ENDBRANCH  14  15
ENDBRANCH  13  14
ENDBRANCH   1  13
TORSDOF 5
ENDMDL
MODEL 2
REMARK VINA RESULT:      -7.5      0.569      1.143
REMARK  Name = 
REMARK  7 active torsions:
REMARK  status: ('A' for Active; 'I' for Inactive)
REMARK    1  A    between atoms: C_1  and  C_2
REMARK    2  A    between atoms: C_5  and  S_6
REMARK    3  A    between atoms: S_6  and  N_9
REMARK    4  A    between atoms: N_9  and  C_10
REMARK    5  A    between atoms: C_10  and  C_11
REMARK    6  A    between atoms: C_11  and  N_12
REMARK    7  A    between atoms: C_13  and  C_14
REMARK                            x       y       z     vdW  Elec       q    Type
REMARK                         _______ _______ _______ _____ _____    ______ ____
ROOT
ATOM      1  N   UNL     1       5.317   5.776  18.391  0.00  0.00    +0.000 NA
ATOM      2  H   UNL     1       5.330   5.668  19.408  0.00  0.00    +0.000 HD
ENDROOT
BRANCH   1   3
ATOM      3  S   UNL     1       6.892   5.561  17.794  0.00  0.00    +0.000 S 
ATOM      4  O   UNL     1       7.502   4.559  18.636  0.00  0.00    +0.000 OA
ATOM      5  O   UNL     1       7.483   6.876  17.636  0.00  0.00    +0.000 OA
BRANCH   3  10
ATOM      6  C   UNL     1       5.836   3.373  12.227  0.00  0.00    +0.000 C 
ATOM      7  C   UNL     1       6.128   3.869  13.614  0.00  0.00    +0.000 A 
ATOM      8  C   UNL     1       5.361   3.436  14.704  0.00  0.00    +0.000 A 
ATOM      9  C   UNL     1       5.618   3.922  15.988  0.00  0.00    +0.000 A 
ATOM     10  C   UNL     1       6.650   4.844  16.189  0.00  0.00    +0.000 A 
ATOM     11  C   UNL     1       7.420   5.286  15.111  0.00  0.00    +0.000 A 
ATOM     12  C   UNL     1       7.159   4.795  13.828  0.00  0.00    +0.000 A 
ENDBRANCH   3  10
ENDBRANCH   1   3
BRANCH   1  13
ATOM     13  C   UNL     1       4.563   6.916  17.825  0.00  0.00    +0.000 C 
BRANCH  13  14
ATOM     14  C   UNL     1       3.101   6.572  17.541  0.00  0.00    +0.000 C 
BRANCH  14  15
ATOM     15  N   UNL     1       2.514   5.857  18.673  0.00  0.00    +0.000 N 
ATOM     16  C   UNL     1       2.026   6.412  19.841  0.00  0.00    +0.000 A 
ATOM     17  C   UNL     1       2.049   7.852  20.208  0.00  0.00    +0.000 C 
ATOM     18  C   UNL     1       1.503   5.380  20.596  0.00  0.00    +0.000 A 
ATOM     19  C   UNL     1       1.664   4.171  19.882  0.00  0.00    +0.000 A 
ATOM     20  C   UNL     1       1.313   2.834  20.153  0.00  0.00    +0.000 A 
ATOM     21  C   UNL     1       1.605   1.843  19.215  0.00  0.00    +0.000 A 
ATOM     22  C   UNL     1       2.231   2.171  18.016  0.00  0.00    +0.000 A 
ATOM     23  C   UNL     1       2.587   3.493  17.725  0.00  0.00    +0.000 A 
ATOM     24  C   UNL     1       2.297   4.484  18.677  0.00  0.00    +0.000 A 
ENDBRANCH  14  15
ENDBRANCH  13  14
ENDBRANCH   1  13
TORSDOF 5
ENDMDL
MODEL 3
REMARK VINA RESULT:      -7.1      3.229      5.490
REMARK  Name = 
REMARK  7 active torsions:
REMARK  status: ('A' for Active; 'I' for Inactive)
REMARK    1  A    between atoms: C_1  and  C_2
REMARK    2  A    between atoms: C_5  and  S_6
REMARK    3  A    between atoms: S_6  and  N_9
REMARK    4  A    between atoms: N_9  and  C_10
REMARK    5  A    between atoms: C_10  and  C_11
REMARK    6  A    between atoms: C_11  and  N_12
REMARK    7  A    between atoms: C_13  and  C_14
REMARK                            x       y       z     vdW  Elec       q    Type
REMARK                         _______ _______ _______ _____ _____    ______ ____
ROOT
ATOM      1  N   UNL     1       1.963   3.981  20.244  0.00  0.00    +0.000 NA
ATOM      2  H   UNL     1       2.851   3.887  20.742  0.00  0.00    +0.000 HD
ENDROOT
BRANCH   1   3
ATOM      3  S   UNL     1       2.066   3.144  18.771  0.00  0.00    +0.000 S 
ATOM      4  O   UNL     1       1.060   3.725  17.913  0.00  0.00    +0.000 OA
ATOM      5  O   UNL     1       2.073   1.726  19.073  0.00  0.00    +0.000 OA
BRANCH   3  10
ATOM      6  C   UNL     1       7.391   5.054  16.558  0.00  0.00    +0.000 C 
ATOM      7  C   UNL     1       6.092   4.529  17.099  0.00  0.00    +0.000 A 
ATOM      8  C   UNL     1       5.067   4.125  16.233  0.00  0.00    +0.000 A 
ATOM      9  C   UNL     1       3.851   3.663  16.742  0.00  0.00    +0.000 A 
ATOM     10  C   UNL     1       3.655   3.602  18.125  0.00  0.00    +0.000 A 
ATOM     11  C   UNL     1       4.665   4.006  19.000  0.00  0.00    +0.000 A 
ATOM     12  C   UNL     1       5.882   4.464  18.484  0.00  0.00    +0.000 A 
ENDBRANCH   3  10
ENDBRANCH   1   3
BRANCH   1  13
ATOM     13  C   UNL     1       1.345   5.324  20.181  0.00  0.00    +0.000 C 
BRANCH  13  14
ATOM     14  C   UNL     1       2.328   6.441  20.533  0.00  0.00    +0.000 C 
BRANCH  14  15
ATOM     15  N   UNL     1       1.983   7.670  19.818  0.00  0.00    +0.000 N 
ATOM     16  C   UNL     1       2.360   8.015  18.535  0.00  0.00    +0.000 A 
ATOM     17  C   UNL     1       3.243   7.228  17.634  0.00  0.00    +0.000 C 
ATOM     18  C   UNL     1       1.753   9.221  18.242  0.00  0.00    +0.000 A 
ATOM     19  C   UNL     1       0.985   9.624  19.358  0.00  0.00    +0.000 A 
ATOM     20  C   UNL     1       0.162  10.737  19.614  0.00  0.00    +0.000 A 
ATOM     21  C   UNL     1      -0.489  10.843  20.844  0.00  0.00    +0.000 A 
ATOM     22  C   UNL     1      -0.334   9.853  21.810  0.00  0.00    +0.000 A 
ATOM     23  C   UNL     1       0.478   8.737  21.575  0.00  0.00    +0.000 A 
ATOM     24  C   UNL     1       1.136   8.641  20.338  0.00  0.00    +0.000 A 
ENDBRANCH  14  15
ENDBRANCH  13  14
ENDBRANCH   1  13
TORSDOF 5
ENDMDL
MODEL 4
REMARK VINA RESULT:      -7.1      1.435      3.262
REMARK  Name = 
REMARK  7 active torsions:
REMARK  status: ('A' for Active; 'I' for Inactive)
REMARK    1  A    between atoms: C_1  and  C_2
REMARK    2  A    between atoms: C_5  and  S_6
REMARK    3  A    between atoms: S_6  and  N_9
REMARK    4  A    between atoms: N_9  and  C_10
REMARK    5  A    between atoms: C_10  and  C_11
REMARK    6  A    between atoms: C_11  and  N_12
REMARK    7  A    between atoms: C_13  and  C_14
REMARK                            x       y       z     vdW  Elec       q    Type
REMARK                         _______ _______ _______ _____ _____    ______ ____
ROOT
ATOM      1  N   UNL     1       5.936   5.309  18.047  0.00  0.00    +0.000 NA
ATOM      2  H   UNL     1       6.208   5.120  19.015  0.00  0.00    +0.000 HD
ENDROOT
BRANCH   1   3
ATOM      3  S   UNL     1       7.323   5.271  17.068  0.00  0.00    +0.000 S 
ATOM      4  O   UNL     1       8.161   4.227  17.607  0.00  0.00    +0.000 OA
ATOM      5  O   UNL     1       7.802   6.633  16.936  0.00  0.00    +0.000 OA
BRANCH   3  10
ATOM      6  C   UNL     1       5.468   3.091  11.710  0.00  0.00    +0.000 C 
ATOM      7  C   UNL     1       5.899   3.676  13.024  0.00  0.00    +0.000 A 
ATOM      8  C   UNL     1       7.007   4.530  13.098  0.00  0.00    +0.000 A 
ATOM      9  C   UNL     1       7.420   5.050  14.326  0.00  0.00    +0.000 A 
ATOM     10  C   UNL     1       6.721   4.720  15.491  0.00  0.00    +0.000 A 
ATOM     11  C   UNL     1       5.617   3.868  15.433  0.00  0.00    +0.000 A 
ATOM     12  C   UNL     1       5.206   3.352  14.200  0.00  0.00    +0.000 A 
ENDBRANCH   3  10
ENDBRANCH   1   3
BRANCH   1  13
ATOM     13  C   UNL     1       5.001   6.428  17.798  0.00  0.00    +0.000 C 
BRANCH  13  14
ATOM     14  C   UNL     1       3.549   5.965  17.675  0.00  0.00    +0.000 C 
BRANCH  14  15
ATOM     15  N   UNL     1       2.745   6.504  18.771  0.00  0.00    +0.000 N 
ATOM     16  C   UNL     1       2.460   5.883  19.972  0.00  0.00    +0.000 A 
ATOM     17  C   UNL     1       2.869   4.512  20.374  0.00  0.00    +0.000 C 
ATOM     18  C   UNL     1       1.735   6.780  20.732  0.00  0.00    +0.000 A 
ATOM     19  C   UNL     1       1.575   7.974  19.993  0.00  0.00    +0.000 A 
ATOM     20  C   UNL     1       0.949   9.205  20.269  0.00  0.00    +0.000 A 
ATOM     21  C   UNL     1       0.976  10.220  19.311  0.00  0.00    +0.000 A 
ATOM     22  C   UNL     1       1.623  10.023  18.095  0.00  0.00    +0.000 A 
ATOM     23  C   UNL     1       2.254   8.808  17.801  0.00  0.00    +0.000 A 
ATOM     24  C   UNL     1       2.215   7.788  18.766  0.00  0.00    +0.000 A 
ENDBRANCH  14  15
ENDBRANCH  13  14
ENDBRANCH   1  13
TORSDOF 5
ENDMDL
MODEL 5
REMARK VINA RESULT:      -7.1      4.336      7.402
REMARK  Name = 
REMARK  7 active torsions:
REMARK  status: ('A' for Active; 'I' for Inactive)
REMARK    1  A    between atoms: C_1  and  C_2
REMARK    2  A    between atoms: C_5  and  S_6
REMARK    3  A    between atoms: S_6  and  N_9
REMARK    4  A    between atoms: N_9  and  C_10
REMARK    5  A    between atoms: C_10  and  C_11
REMARK    6  A    between atoms: C_11  and  N_12
REMARK    7  A    between atoms: C_13  and  C_14
REMARK                            x       y       z     vdW  Elec       q    Type
REMARK                         _______ _______ _______ _____ _____    ______ ____
ROOT
ATOM      1  N   UNL     1       1.317   8.598  17.867  0.00  0.00    +0.000 NA
ATOM      2  H   UNL     1       0.824   8.702  16.977  0.00  0.00    +0.000 HD
ENDROOT
BRANCH   1   3
ATOM      3  S   UNL     1       0.965   9.936  18.851  0.00  0.00    +0.000 S 
ATOM      4  O   UNL     1       1.817  11.005  18.386  0.00  0.00    +0.000 OA
ATOM      5  O   UNL     1       1.002   9.487  20.229  0.00  0.00    +0.000 OA
BRANCH   3  10
ATOM      6  C   UNL     1      -4.626  11.615  17.173  0.00  0.00    +0.000 C 
ATOM      7  C   UNL     1      -3.266  11.167  17.626  0.00  0.00    +0.000 A 
ATOM      8  C   UNL     1      -2.645  11.769  18.729  0.00  0.00    +0.000 A 
ATOM      9  C   UNL     1      -1.369  11.367  19.129  0.00  0.00    +0.000 A 
ATOM     10  C   UNL     1      -0.707  10.355  18.427  0.00  0.00    +0.000 A 
ATOM     11  C   UNL     1      -1.312   9.749  17.324  0.00  0.00    +0.000 A 
ATOM     12  C   UNL     1      -2.591  10.154  16.929  0.00  0.00    +0.000 A 
ENDBRANCH   3  10
ENDBRANCH   1   3
BRANCH   1  13
ATOM     13  C   UNL     1       2.736   8.181  17.828  0.00  0.00    +0.000 C 
BRANCH  13  14
ATOM     14  C   UNL     1       3.057   7.088  18.847  0.00  0.00    +0.000 C 
BRANCH  14  15
ATOM     15  N   UNL     1       3.224   5.798  18.179  0.00  0.00    +0.000 N 
ATOM     16  C   UNL     1       4.160   5.481  17.213  0.00  0.00    +0.000 A 
ATOM     17  C   UNL     1       5.157   6.407  16.614  0.00  0.00    +0.000 C 
ATOM     18  C   UNL     1       4.003   4.141  16.918  0.00  0.00    +0.000 A 
ATOM     19  C   UNL     1       2.960   3.621  17.717  0.00  0.00    +0.000 A 
ATOM     20  C   UNL     1       2.388   2.340  17.848  0.00  0.00    +0.000 A 
ATOM     21  C   UNL     1       1.352   2.139  18.760  0.00  0.00    +0.000 A 
ATOM     22  C   UNL     1       0.889   3.193  19.543  0.00  0.00    +0.000 A 
ATOM     23  C   UNL     1       1.445   4.473  19.431  0.00  0.00    +0.000 A 
ATOM     24  C   UNL     1       2.482   4.670  18.505  0.00  0.00    +0.000 A 
ENDBRANCH  14  15
ENDBRANCH  13  14
ENDBRANCH   1  13
TORSDOF 5
ENDMDL
MODEL 6
REMARK VINA RESULT:      -7.1      1.195      2.962
REMARK  Name = 
REMARK  7 active torsions:
REMARK  status: ('A' for Active; 'I' for Inactive)
REMARK    1  A    between atoms: C_1  and  C_2
REMARK    2  A    between atoms: C_5  and  S_6
REMARK    3  A    between atoms: S_6  and  N_9
REMARK    4  A    between atoms: N_9  and  C_10
REMARK    5  A    between atoms: C_10  and  C_11
REMARK    6  A    between atoms: C_11  and  N_12
REMARK    7  A    between atoms: C_13  and  C_14
REMARK                            x       y       z     vdW  Elec       q    Type
REMARK                         _______ _______ _______ _____ _____    ______ ____
ROOT
ATOM      1  N   UNL     1       5.765   5.557  17.489  0.00  0.00    +0.000 NA
ATOM      2  H   UNL     1       5.064   6.012  16.900  0.00  0.00    +0.000 HD
ENDROOT
BRANCH   1   3
ATOM      3  S   UNL     1       7.198   5.373  16.597  0.00  0.00    +0.000 S 
ATOM      4  O   UNL     1       7.982   4.389  17.305  0.00  0.00    +0.000 OA
ATOM      5  O   UNL     1       7.717   6.699  16.325  0.00  0.00    +0.000 OA
BRANCH   3  10
ATOM      6  C   UNL     1       5.227   3.183  11.284  0.00  0.00    +0.000 C 
ATOM      7  C   UNL     1       5.731   3.674  12.612  0.00  0.00    +0.000 A 
ATOM      8  C   UNL     1       4.937   3.569  13.761  0.00  0.00    +0.000 A 
ATOM      9  C   UNL     1       5.399   4.051  14.988  0.00  0.00    +0.000 A 
ATOM     10  C   UNL     1       6.664   4.641  15.070  0.00  0.00    +0.000 A 
ATOM     11  C   UNL     1       7.465   4.755  13.933  0.00  0.00    +0.000 A 
ATOM     12  C   UNL     1       6.998   4.268  12.708  0.00  0.00    +0.000 A 
ENDBRANCH   3  10
ENDBRANCH   1   3
BRANCH   1  13
ATOM     13  C   UNL     1       5.344   4.382  18.283  0.00  0.00    +0.000 C 
BRANCH  13  14
ATOM     14  C   UNL     1       3.863   4.049  18.101  0.00  0.00    +0.000 C 
BRANCH  14  15
ATOM     15  N   UNL     1       3.068   4.646  19.174  0.00  0.00    +0.000 N 
ATOM     16  C   UNL     1       2.700   4.047  20.363  0.00  0.00    +0.000 A 
ATOM     17  C   UNL     1       2.991   2.647  20.773  0.00  0.00    +0.000 C 
ATOM     18  C   UNL     1       2.022   4.995  21.105  0.00  0.00    +0.000 A 
ATOM     19  C   UNL     1       1.976   6.199  20.366  0.00  0.00    +0.000 A 
ATOM     20  C   UNL     1       1.438   7.474  20.627  0.00  0.00    +0.000 A 
ATOM     21  C   UNL     1       1.572   8.486  19.675  0.00  0.00    +0.000 A 
ATOM     22  C   UNL     1       2.239   8.242  18.478  0.00  0.00    +0.000 A 
ATOM     23  C   UNL     1       2.784   6.983  18.199  0.00  0.00    +0.000 A 
ATOM     24  C   UNL     1       2.639   5.967  19.159  0.00  0.00    +0.000 A 
ENDBRANCH  14  15
ENDBRANCH  13  14
ENDBRANCH   1  13
TORSDOF 5
ENDMDL
MODEL 7
REMARK VINA RESULT:      -7.0      3.434      5.875
REMARK  Name = 
REMARK  7 active torsions:
REMARK  status: ('A' for Active; 'I' for Inactive)
REMARK    1  A    between atoms: C_1  and  C_2
REMARK    2  A    between atoms: C_5  and  S_6
REMARK    3  A    between atoms: S_6  and  N_9
REMARK    4  A    between atoms: N_9  and  C_10
REMARK    5  A    between atoms: C_10  and  C_11
REMARK    6  A    between atoms: C_11  and  N_12
REMARK    7  A    between atoms: C_13  and  C_14
REMARK                            x       y       z     vdW  Elec       q    Type
REMARK                         _______ _______ _______ _____ _____    ______ ____
ROOT
ATOM      1  N   UNL     1       2.204   4.882  21.421  0.00  0.00    +0.000 NA
ATOM      2  H   UNL     1       3.105   5.105  21.850  0.00  0.00    +0.000 HD
ENDROOT
BRANCH   1   3
ATOM      3  S   UNL     1       2.269   3.309  20.784  0.00  0.00    +0.000 S 
ATOM      4  O   UNL     1       0.912   2.970  20.426  0.00  0.00    +0.000 OA
ATOM      5  O   UNL     1       3.032   2.495  21.710  0.00  0.00    +0.000 OA
BRANCH   3  10
ATOM      6  C   UNL     1       5.337   4.277  15.632  0.00  0.00    +0.000 C 
ATOM      7  C   UNL     1       4.591   3.984  16.901  0.00  0.00    +0.000 A 
ATOM      8  C   UNL     1       3.263   3.538  16.864  0.00  0.00    +0.000 A 
ATOM      9  C   UNL     1       2.565   3.293  18.049  0.00  0.00    +0.000 A 
ATOM     10  C   UNL     1       3.195   3.491  19.281  0.00  0.00    +0.000 A 
ATOM     11  C   UNL     1       4.516   3.939  19.333  0.00  0.00    +0.000 A 
ATOM     12  C   UNL     1       5.211   4.180  18.144  0.00  0.00    +0.000 A 
ENDBRANCH   3  10
ENDBRANCH   1   3
BRANCH   1  13
ATOM     13  C   UNL     1       1.581   5.904  20.551  0.00  0.00    +0.000 C 
BRANCH  13  14
ATOM     14  C   UNL     1       2.483   7.119  20.330  0.00  0.00    +0.000 C 
BRANCH  14  15
ATOM     15  N   UNL     1       1.680   8.312  20.067  0.00  0.00    +0.000 N 
ATOM     16  C   UNL     1       1.467   8.912  18.841  0.00  0.00    +0.000 A 
ATOM     17  C   UNL     1       2.057   8.497  17.541  0.00  0.00    +0.000 C 
ATOM     18  C   UNL     1       0.592   9.962  19.048  0.00  0.00    +0.000 A 
ATOM     19  C   UNL     1       0.257  10.007  20.420  0.00  0.00    +0.000 A 
ATOM     20  C   UNL     1      -0.586  10.840  21.182  0.00  0.00    +0.000 A 
ATOM     21  C   UNL     1      -0.720  10.613  22.553  0.00  0.00    +0.000 A 
ATOM     22  C   UNL     1      -0.033   9.567  23.163  0.00  0.00    +0.000 A 
ATOM     23  C   UNL     1       0.807   8.726  22.424  0.00  0.00    +0.000 A 
ATOM     24  C   UNL     1       0.943   8.965  21.047  0.00  0.00    +0.000 A 
ENDBRANCH  14  15
ENDBRANCH  13  14
ENDBRANCH   1  13
TORSDOF 5
ENDMDL
MODEL 8
REMARK VINA RESULT:      -7.0      1.459      3.443
REMARK  Name = 
REMARK  7 active torsions:
REMARK  status: ('A' for Active; 'I' for Inactive)
REMARK    1  A    between atoms: C_1  and  C_2
REMARK    2  A    between atoms: C_5  and  S_6
REMARK    3  A    between atoms: S_6  and  N_9
REMARK    4  A    between atoms: N_9  and  C_10
REMARK    5  A    between atoms: C_10  and  C_11
REMARK    6  A    between atoms: C_11  and  N_12
REMARK    7  A    between atoms: C_13  and  C_14
REMARK                            x       y       z     vdW  Elec       q    Type
REMARK                         _______ _______ _______ _____ _____    ______ ____
ROOT
ATOM      1  N   UNL     1       5.740   5.851  18.369  0.00  0.00    +0.000 NA
ATOM      2  H   UNL     1       5.864   6.166  19.333  0.00  0.00    +0.000 HD
ENDROOT
BRANCH   1   3
ATOM      3  S   UNL     1       7.266   5.563  17.682  0.00  0.00    +0.000 S 
ATOM      4  O   UNL     1       7.881   4.543  18.496  0.00  0.00    +0.000 OA
ATOM      5  O   UNL     1       7.901   6.850  17.475  0.00  0.00    +0.000 OA
BRANCH   3  10
ATOM      6  C   UNL     1       5.745   3.345  12.235  0.00  0.00    +0.000 C 
ATOM      7  C   UNL     1       6.156   3.852  13.588  0.00  0.00    +0.000 A 
ATOM      8  C   UNL     1       5.579   3.330  14.753  0.00  0.00    +0.000 A 
ATOM      9  C   UNL     1       5.946   3.824  16.007  0.00  0.00    +0.000 A 
ATOM     10  C   UNL     1       6.897   4.844  16.101  0.00  0.00    +0.000 A 
ATOM     11  C   UNL     1       7.478   5.376  14.948  0.00  0.00    +0.000 A 
ATOM     12  C   UNL     1       7.109   4.876  13.695  0.00  0.00    +0.000 A 
ENDBRANCH   3  10
ENDBRANCH   1   3
BRANCH   1  13
ATOM     13  C   UNL     1       4.778   6.586  17.519  0.00  0.00    +0.000 C 
BRANCH  13  14
ATOM     14  C   UNL     1       3.368   5.998  17.581  0.00  0.00    +0.000 C 
BRANCH  14  15
ATOM     15  N   UNL     1       2.643   6.529  18.735  0.00  0.00    +0.000 N 
ATOM     16  C   UNL     1       2.424   5.890  19.940  0.00  0.00    +0.000 A 
ATOM     17  C   UNL     1       2.836   4.506  20.292  0.00  0.00    +0.000 C 
ATOM     18  C   UNL     1       1.762   6.783  20.760  0.00  0.00    +0.000 A 
ATOM     19  C   UNL     1       1.574   7.992  20.054  0.00  0.00    +0.000 A 
ATOM     20  C   UNL     1       0.986   9.228  20.389  0.00  0.00    +0.000 A 
ATOM     21  C   UNL     1       0.969  10.259  19.450  0.00  0.00    +0.000 A 
ATOM     22  C   UNL     1       1.536  10.075  18.192  0.00  0.00    +0.000 A 
ATOM     23  C   UNL     1       2.127   8.857  17.838  0.00  0.00    +0.000 A 
ATOM     24  C   UNL     1       2.134   7.820  18.786  0.00  0.00    +0.000 A 
ENDBRANCH  14  15
ENDBRANCH  13  14
ENDBRANCH   1  13
TORSDOF 5
ENDMDL
MODEL 9
REMARK VINA RESULT:      -7.0      4.323      7.774
REMARK  Name = 
REMARK  7 active torsions:
REMARK  status: ('A' for Active; 'I' for Inactive)
REMARK    1  A    between atoms: C_1  and  C_2
REMARK    2  A    between atoms: C_5  and  S_6
REMARK    3  A    between atoms: S_6  and  N_9
REMARK    4  A    between atoms: N_9  and  C_10
REMARK    5  A    between atoms: C_10  and  C_11
REMARK    6  A    between atoms: C_11  and  N_12
REMARK    7  A    between atoms: C_13  and  C_14
REMARK                            x       y       z     vdW  Elec       q    Type
REMARK                         _______ _______ _______ _____ _____    ______ ____
ROOT
ATOM      1  N   UNL     1       1.331   8.525  17.834  0.00  0.00    +0.000 NA
ATOM      2  H   UNL     1       0.845   8.627  16.940  0.00  0.00    +0.000 HD
ENDROOT
BRANCH   1   3
ATOM      3  S   UNL     1       1.030   9.900  18.784  0.00  0.00    +0.000 S 
ATOM      4  O   UNL     1       1.879  10.941  18.255  0.00  0.00    +0.000 OA
ATOM      5  O   UNL     1       1.107   9.497  20.174  0.00  0.00    +0.000 OA
BRANCH   3  10
ATOM      6  C   UNL     1      -4.592  11.618  17.253  0.00  0.00    +0.000 C 
ATOM      7  C   UNL     1      -3.224  11.159  17.669  0.00  0.00    +0.000 A 
ATOM      8  C   UNL     1      -2.582  11.734  18.774  0.00  0.00    +0.000 A 
ATOM      9  C   UNL     1      -1.298  11.323  19.140  0.00  0.00    +0.000 A 
ATOM     10  C   UNL     1      -0.650  10.328  18.402  0.00  0.00    +0.000 A 
ATOM     11  C   UNL     1      -1.275   9.750  17.296  0.00  0.00    +0.000 A 
ATOM     12  C   UNL     1      -2.562  10.164  16.936  0.00  0.00    +0.000 A 
ENDBRANCH   3  10
ENDBRANCH   1   3
BRANCH   1  13
ATOM     13  C   UNL     1       2.732   8.052  17.810  0.00  0.00    +0.000 C 
BRANCH  13  14
ATOM     14  C   UNL     1       2.972   6.873  18.753  0.00  0.00    +0.000 C 
BRANCH  14  15
ATOM     15  N   UNL     1       3.479   5.719  18.012  0.00  0.00    +0.000 N 
ATOM     16  C   UNL     1       2.778   4.576  17.679  0.00  0.00    +0.000 A 
ATOM     17  C   UNL     1       1.374   4.261  18.055  0.00  0.00    +0.000 C 
ATOM     18  C   UNL     1       3.621   3.787  16.921  0.00  0.00    +0.000 A 
ATOM     19  C   UNL     1       4.858   4.455  16.778  0.00  0.00    +0.000 A 
ATOM     20  C   UNL     1       6.058   4.137  16.111  0.00  0.00    +0.000 A 
ATOM     21  C   UNL     1       7.124   5.036  16.148  0.00  0.00    +0.000 A 
ATOM     22  C   UNL     1       7.005   6.243  16.832  0.00  0.00    +0.000 A 
ATOM     23  C   UNL     1       5.822   6.579  17.500  0.00  0.00    +0.000 A 
ATOM     24  C   UNL     1       4.755   5.666  17.465  0.00  0.00    +0.000 A 
ENDBRANCH  14  15
ENDBRANCH  13  14
ENDBRANCH   1  13
TORSDOF 5
ENDMDL
