MODEL 1
REMARK VINA RESULT:      -7.1      0.000      0.000
REMARK  Name = 
REMARK  4 active torsions:
REMARK  status: ('A' for Active; 'I' for Inactive)
REMARK    1  A    between atoms: C_2  and  OXT_3
REMARK    2  A    between atoms: C_2  and  CA_4
REMARK    3  A    between atoms: C_6  and  O_7
REMARK    4  A    between atoms: O_7  and  C_8
REMARK                            x       y       z     vdW  Elec       q    Type
REMARK                         _______ _______ _______ _____ _____    ______ ____
ROOT
ATOM      1  CA  UNL     1       6.671   4.817  15.751  0.00  0.00    +0.000 C 
ATOM      2  C   UNL     1       5.164   4.883  15.874  0.00  0.00    +0.000 C 
ATOM      3  C   UNL     1       4.978   5.374  17.302  0.00  0.00    +0.000 C 
ATOM      4  C   UNL     1       6.169   6.343  17.473  0.00  0.00    +0.000 C 
ATOM      5  N   UNL     1       7.099   6.116  16.342  0.00  0.00    +0.000 NA
ATOM      6  H   UNL     1       8.052   6.026  16.704  0.00  0.00    +0.000 HD
ENDROOT
BRANCH   1   8
ATOM      7  O   UNL     1       7.887   5.477  13.753  0.00  0.00    +0.000 OA
ATOM      8  C   UNL     1       7.109   4.711  14.297  0.00  0.00    +0.000 C 
BRANCH   8   9
ATOM      9  OXT UNL     1       6.557   3.635  13.681  0.00  0.00    +0.000 OA
ATOM     10  HXT UNL     1       6.776   3.716  12.721  0.00  0.00    +0.000 HD
ENDBRANCH   8   9
ENDBRANCH   1   8
BRANCH   3  11
ATOM     11  O   UNL     1       3.759   6.082  17.500  0.00  0.00    +0.000 OA
BRANCH  11  12
ATOM     12  C   UNL     1       2.897   5.605  18.451  0.00  0.00    +0.000 A 
ATOM     13  C   UNL     1       2.650   6.200  19.687  0.00  0.00    +0.000 A 
ATOM     14  C   UNL     1       1.814   5.577  20.618  0.00  0.00    +0.000 A 
ATOM     15  C   UNL     1       1.205   4.362  20.308  0.00  0.00    +0.000 A 
ATOM     16  C   UNL     1       1.438   3.777  19.067  0.00  0.00    +0.000 A 
ATOM     17 CL   UNL     1       0.674   2.285  18.675  0.00  0.00    +0.000 Cl
ATOM     18  C   UNL     1       2.286   4.387  18.143  0.00  0.00    +0.000 A 
ENDBRANCH  11  12
ENDBRANCH   3  11
TORSDOF 4
ENDMDL
MODEL 2
REMARK VINA RESULT:      -6.7      3.710      6.711
REMARK  Name = 
REMARK  4 active torsions:
REMARK  status: ('A' for Active; 'I' for Inactive)
REMARK    1  A    between atoms: C_2  and  OXT_3
REMARK    2  A    between atoms: C_2  and  CA_4
REMARK    3  A    between atoms: C_6  and  O_7
REMARK    4  A    between atoms: O_7  and  C_8
REMARK                            x       y       z     vdW  Elec       q    Type
REMARK                         _______ _______ _______ _____ _____    ______ ____
ROOT
ATOM      1  CA  UNL     1       2.635   2.541  20.034  0.00  0.00    +0.000 C 
ATOM      2  C   UNL     1       3.037   3.811  19.317  0.00  0.00    +0.000 C 
ATOM      3  C   UNL     1       3.742   3.274  18.081  0.00  0.00    +0.000 C 
ATOM      4  C   UNL     1       2.919   2.008  17.758  0.00  0.00    +0.000 C 
ATOM      5  N   UNL     1       2.063   1.717  18.932  0.00  0.00    +0.000 NA
ATOM      6  H   UNL     1       2.147   0.725  19.171  0.00  0.00    +0.000 HD
ENDROOT
BRANCH   1   8
ATOM      7  O   UNL     1       1.792   2.722  22.307  0.00  0.00    +0.000 OA
ATOM      8  C   UNL     1       1.590   2.811  21.108  0.00  0.00    +0.000 C 
BRANCH   8   9
ATOM      9  OXT UNL     1       0.406   3.201  20.570  0.00  0.00    +0.000 OA
ATOM     10  HXT UNL     1      -0.167   3.482  21.324  0.00  0.00    +0.000 HD
ENDBRANCH   8   9
ENDBRANCH   1   8
BRANCH   3  11
ATOM     11  O   UNL     1       3.694   4.166  16.972  0.00  0.00    +0.000 OA
BRANCH  11  12
ATOM     12  C   UNL     1       4.885   4.568  16.429  0.00  0.00    +0.000 A 
ATOM     13  C   UNL     1       5.466   4.040  15.278  0.00  0.00    +0.000 A 
ATOM     14  C   UNL     1       6.731   4.467  14.863  0.00  0.00    +0.000 A 
ATOM     15  C   UNL     1       7.414   5.440  15.590  0.00  0.00    +0.000 A 
ATOM     16  C   UNL     1       6.826   5.980  16.731  0.00  0.00    +0.000 A 
ATOM     17 CL   UNL     1       7.660   7.195  17.621  0.00  0.00    +0.000 Cl
ATOM     18  C   UNL     1       5.572   5.543  17.157  0.00  0.00    +0.000 A 
ENDBRANCH  11  12
ENDBRANCH   3  11
TORSDOF 4
ENDMDL
MODEL 3
REMARK VINA RESULT:      -6.7      1.264      1.840
REMARK  Name = 
REMARK  4 active torsions:
REMARK  status: ('A' for Active; 'I' for Inactive)
REMARK    1  A    between atoms: C_2  and  OXT_3
REMARK    2  A    between atoms: C_2  and  CA_4
REMARK    3  A    between atoms: C_6  and  O_7
REMARK    4  A    between atoms: O_7  and  C_8
REMARK                            x       y       z     vdW  Elec       q    Type
REMARK                         _______ _______ _______ _____ _____    ______ ____
ROOT
ATOM      1  CA  UNL     1       6.649   4.860  15.909  0.00  0.00    +0.000 C 
ATOM      2  C   UNL     1       5.193   4.626  16.245  0.00  0.00    +0.000 C 
ATOM      3  C   UNL     1       5.079   5.247  17.630  0.00  0.00    +0.000 C 
ATOM      4  C   UNL     1       6.034   6.456  17.527  0.00  0.00    +0.000 C 
ATOM      5  N   UNL     1       6.845   6.285  16.299  0.00  0.00    +0.000 NA
ATOM      6  H   UNL     1       7.831   6.443  16.523  0.00  0.00    +0.000 HD
ENDROOT
BRANCH   1   8
ATOM      7  O   UNL     1       6.311   3.885  13.708  0.00  0.00    +0.000 OA
ATOM      8  C   UNL     1       6.918   4.664  14.422  0.00  0.00    +0.000 C 
BRANCH   8   9
ATOM      9  OXT UNL     1       7.897   5.490  13.975  0.00  0.00    +0.000 OA
ATOM     10  HXT UNL     1       7.555   5.912  13.149  0.00  0.00    +0.000 HD
ENDBRANCH   8   9
ENDBRANCH   1   8
BRANCH   3  11
ATOM     11  O   UNL     1       3.766   5.704  17.937  0.00  0.00    +0.000 OA
BRANCH  11  12
ATOM     12  C   UNL     1       2.869   4.785  18.410  0.00  0.00    +0.000 A 
ATOM     13  C   UNL     1       1.848   4.197  17.667  0.00  0.00    +0.000 A 
ATOM     14  C   UNL     1       0.934   3.334  18.278  0.00  0.00    +0.000 A 
ATOM     15  C   UNL     1       1.047   3.041  19.636  0.00  0.00    +0.000 A 
ATOM     16  C   UNL     1       2.078   3.616  20.375  0.00  0.00    +0.000 A 
ATOM     17 CL   UNL     1       2.232   3.243  22.049  0.00  0.00    +0.000 Cl
ATOM     18  C   UNL     1       2.981   4.492  19.772  0.00  0.00    +0.000 A 
ENDBRANCH  11  12
ENDBRANCH   3  11
TORSDOF 4
ENDMDL
MODEL 4
REMARK VINA RESULT:      -6.7      2.391      3.045
REMARK  Name = 
REMARK  4 active torsions:
REMARK  status: ('A' for Active; 'I' for Inactive)
REMARK    1  A    between atoms: C_2  and  OXT_3
REMARK    2  A    between atoms: C_2  and  CA_4
REMARK    3  A    between atoms: C_6  and  O_7
REMARK    4  A    between atoms: O_7  and  C_8
REMARK                            x       y       z     vdW  Elec       q    Type
REMARK                         _______ _______ _______ _____ _____    ______ ____
ROOT
ATOM      1  CA  UNL     1       6.596   6.283  16.760  0.00  0.00    +0.000 C 
ATOM      2  C   UNL     1       5.643   5.519  17.653  0.00  0.00    +0.000 C 
ATOM      3  C   UNL     1       5.133   4.430  16.722  0.00  0.00    +0.000 C 
ATOM      4  C   UNL     1       6.382   4.114  15.871  0.00  0.00    +0.000 C 
ATOM      5  N   UNL     1       7.371   5.191  16.107  0.00  0.00    +0.000 NA
ATOM      6  H   UNL     1       7.730   5.521  15.207  0.00  0.00    +0.000 HD
ENDROOT
BRANCH   1   8
ATOM      7  O   UNL     1       7.769   8.348  17.281  0.00  0.00    +0.000 OA
ATOM      8  C   UNL     1       7.513   7.191  17.569  0.00  0.00    +0.000 C 
BRANCH   8   9
ATOM      9  OXT UNL     1       7.989   6.568  18.676  0.00  0.00    +0.000 OA
ATOM     10  HXT UNL     1       7.388   6.818  19.420  0.00  0.00    +0.000 HD
ENDBRANCH   8   9
ENDBRANCH   1   8
BRANCH   3  11
ATOM     11  O   UNL     1       4.715   3.252  17.406  0.00  0.00    +0.000 OA
BRANCH  11  12
ATOM     12  C   UNL     1       3.499   3.282  18.033  0.00  0.00    +0.000 A 
ATOM     13  C   UNL     1       2.295   3.659  17.442  0.00  0.00    +0.000 A 
ATOM     14  C   UNL     1       1.125   3.735  18.203  0.00  0.00    +0.000 A 
ATOM     15  C   UNL     1       1.151   3.418  19.560  0.00  0.00    +0.000 A 
ATOM     16  C   UNL     1       2.351   3.024  20.147  0.00  0.00    +0.000 A 
ATOM     17 CL   UNL     1       2.383   2.615  21.819  0.00  0.00    +0.000 Cl
ATOM     18  C   UNL     1       3.523   2.965  19.394  0.00  0.00    +0.000 A 
ENDBRANCH  11  12
ENDBRANCH   3  11
TORSDOF 4
ENDMDL
MODEL 5
REMARK VINA RESULT:      -6.6      1.029      1.290
REMARK  Name = 
REMARK  4 active torsions:
REMARK  status: ('A' for Active; 'I' for Inactive)
REMARK    1  A    between atoms: C_2  and  OXT_3
REMARK    2  A    between atoms: C_2  and  CA_4
REMARK    3  A    between atoms: C_6  and  O_7
REMARK    4  A    between atoms: O_7  and  C_8
REMARK                            x       y       z     vdW  Elec       q    Type
REMARK                         _______ _______ _______ _____ _____    ______ ____
ROOT
ATOM      1  CA  UNL     1       6.556   4.080  15.828  0.00  0.00    +0.000 C 
ATOM      2  C   UNL     1       5.315   4.737  16.390  0.00  0.00    +0.000 C 
ATOM      3  C   UNL     1       5.523   4.588  17.890  0.00  0.00    +0.000 C 
ATOM      4  C   UNL     1       7.052   4.759  18.027  0.00  0.00    +0.000 C 
ATOM      5  N   UNL     1       7.638   4.664  16.670  0.00  0.00    +0.000 NA
ATOM      6  H   UNL     1       8.434   4.020  16.693  0.00  0.00    +0.000 HD
ENDROOT
BRANCH   1   8
ATOM      7  O   UNL     1       6.157   3.920  13.435  0.00  0.00    +0.000 OA
ATOM      8  C   UNL     1       6.761   4.435  14.360  0.00  0.00    +0.000 C 
BRANCH   8   9
ATOM      9  OXT UNL     1       7.675   5.426  14.205  0.00  0.00    +0.000 OA
ATOM     10  HXT UNL     1       8.249   5.164  13.444  0.00  0.00    +0.000 HD
ENDBRANCH   8   9
ENDBRANCH   1   8
BRANCH   3  11
ATOM     11  O   UNL     1       4.863   5.593  18.654  0.00  0.00    +0.000 OA
BRANCH  11  12
ATOM     12  C   UNL     1       3.640   5.284  19.184  0.00  0.00    +0.000 A 
ATOM     13  C   UNL     1       2.836   6.153  19.919  0.00  0.00    +0.000 A 
ATOM     14  C   UNL     1       1.642   5.703  20.489  0.00  0.00    +0.000 A 
ATOM     15  C   UNL     1       1.237   4.381  20.312  0.00  0.00    +0.000 A 
ATOM     16  C   UNL     1       2.031   3.517  19.563  0.00  0.00    +0.000 A 
ATOM     17 CL   UNL     1       1.525   1.888  19.328  0.00  0.00    +0.000 Cl
ATOM     18  C   UNL     1       3.233   3.958  19.009  0.00  0.00    +0.000 A 
ENDBRANCH  11  12
ENDBRANCH   3  11
TORSDOF 4
ENDMDL
MODEL 6
REMARK VINA RESULT:      -6.6      3.642      6.627
REMARK  Name = 
REMARK  4 active torsions:
REMARK  status: ('A' for Active; 'I' for Inactive)
REMARK    1  A    between atoms: C_2  and  OXT_3
REMARK    2  A    between atoms: C_2  and  CA_4
REMARK    3  A    between atoms: C_6  and  O_7
REMARK    4  A    between atoms: O_7  and  C_8
REMARK                            x       y       z     vdW  Elec       q    Type
REMARK                         _______ _______ _______ _____ _____    ______ ____
ROOT
ATOM      1  CA  UNL     1       2.658   2.545  20.021  0.00  0.00    +0.000 C 
ATOM      2  C   UNL     1       3.084   3.860  19.408  0.00  0.00    +0.000 C 
ATOM      3  C   UNL     1       3.846   3.407  18.171  0.00  0.00    +0.000 C 
ATOM      4  C   UNL     1       3.046   2.162  17.730  0.00  0.00    +0.000 C 
ATOM      5  N   UNL     1       2.139   1.793  18.843  0.00  0.00    +0.000 NA
ATOM      6  H   UNL     1       2.218   0.788  19.020  0.00  0.00    +0.000 HD
ENDROOT
BRANCH   1   8
ATOM      7  O   UNL     1       1.724   2.617  22.264  0.00  0.00    +0.000 OA
ATOM      8  C   UNL     1       1.564   2.742  21.062  0.00  0.00    +0.000 C 
BRANCH   8   9
ATOM      9  OXT UNL     1       0.388   3.110  20.493  0.00  0.00    +0.000 OA
ATOM     10  HXT UNL     1       0.140   2.389  19.865  0.00  0.00    +0.000 HD
ENDBRANCH   8   9
ENDBRANCH   1   8
BRANCH   3  11
ATOM     11  O   UNL     1       3.843   4.370  17.122  0.00  0.00    +0.000 OA
BRANCH  11  12
ATOM     12  C   UNL     1       5.015   4.572  16.444  0.00  0.00    +0.000 A 
ATOM     13  C   UNL     1       6.093   5.325  16.904  0.00  0.00    +0.000 A 
ATOM     14  C   UNL     1       7.208   5.537  16.088  0.00  0.00    +0.000 A 
ATOM     15  C   UNL     1       7.256   4.982  14.811  0.00  0.00    +0.000 A 
ATOM     16  C   UNL     1       6.186   4.215  14.358  0.00  0.00    +0.000 A 
ATOM     17 CL   UNL     1       6.249   3.513  12.787  0.00  0.00    +0.000 Cl
ATOM     18  C   UNL     1       5.064   4.017  15.163  0.00  0.00    +0.000 A 
ENDBRANCH  11  12
ENDBRANCH   3  11
TORSDOF 4
ENDMDL
MODEL 7
REMARK VINA RESULT:      -6.6      1.844      2.292
REMARK  Name = 
REMARK  4 active torsions:
REMARK  status: ('A' for Active; 'I' for Inactive)
REMARK    1  A    between atoms: C_2  and  OXT_3
REMARK    2  A    between atoms: C_2  and  CA_4
REMARK    3  A    between atoms: C_6  and  O_7
REMARK    4  A    between atoms: O_7  and  C_8
REMARK                            x       y       z     vdW  Elec       q    Type
REMARK                         _______ _______ _______ _____ _____    ______ ____
ROOT
ATOM      1  CA  UNL     1       6.793   6.082  17.970  0.00  0.00    +0.000 C 
ATOM      2  C   UNL     1       5.406   5.647  18.389  0.00  0.00    +0.000 C 
ATOM      3  C   UNL     1       4.518   6.601  17.602  0.00  0.00    +0.000 C 
ATOM      4  C   UNL     1       5.300   6.761  16.280  0.00  0.00    +0.000 C 
ATOM      5  N   UNL     1       6.657   6.206  16.491  0.00  0.00    +0.000 NA
ATOM      6  H   UNL     1       7.351   6.874  16.142  0.00  0.00    +0.000 HD
ENDROOT
BRANCH   1   8
ATOM      7  O   UNL     1       8.387   4.954  19.418  0.00  0.00    +0.000 OA
ATOM      8  C   UNL     1       7.839   5.036  18.332  0.00  0.00    +0.000 C 
BRANCH   8   9
ATOM      9  OXT UNL     1       8.067   4.176  17.307  0.00  0.00    +0.000 OA
ATOM     10  HXT UNL     1       8.990   4.345  16.996  0.00  0.00    +0.000 HD
ENDBRANCH   8   9
ENDBRANCH   1   8
BRANCH   3  11
ATOM     11  O   UNL     1       3.225   6.071  17.328  0.00  0.00    +0.000 OA
BRANCH  11  12
ATOM     12  C   UNL     1       2.519   5.547  18.377  0.00  0.00    +0.000 A 
ATOM     13  C   UNL     1       2.389   6.132  19.634  0.00  0.00    +0.000 A 
ATOM     14  C   UNL     1       1.715   5.463  20.660  0.00  0.00    +0.000 A 
ATOM     15  C   UNL     1       1.151   4.210  20.427  0.00  0.00    +0.000 A 
ATOM     16  C   UNL     1       1.267   3.633  19.165  0.00  0.00    +0.000 A 
ATOM     17 CL   UNL     1       0.558   2.092  18.869  0.00  0.00    +0.000 Cl
ATOM     18  C   UNL     1       1.955   4.289  18.145  0.00  0.00    +0.000 A 
ENDBRANCH  11  12
ENDBRANCH   3  11
TORSDOF 4
ENDMDL
MODEL 8
REMARK VINA RESULT:      -6.5      1.954      2.610
REMARK  Name = 
REMARK  4 active torsions:
REMARK  status: ('A' for Active; 'I' for Inactive)
REMARK    1  A    between atoms: C_2  and  OXT_3
REMARK    2  A    between atoms: C_2  and  CA_4
REMARK    3  A    between atoms: C_6  and  O_7
REMARK    4  A    between atoms: O_7  and  C_8
REMARK                            x       y       z     vdW  Elec       q    Type
REMARK                         _______ _______ _______ _____ _____    ______ ____
ROOT
ATOM      1  CA  UNL     1       6.387   5.818  17.511  0.00  0.00    +0.000 C 
ATOM      2  C   UNL     1       5.150   5.154  18.076  0.00  0.00    +0.000 C 
ATOM      3  C   UNL     1       4.130   6.282  18.032  0.00  0.00    +0.000 C 
ATOM      4  C   UNL     1       4.521   7.028  16.737  0.00  0.00    +0.000 C 
ATOM      5  N   UNL     1       5.852   6.532  16.317  0.00  0.00    +0.000 NA
ATOM      6  H   UNL     1       6.455   7.331  16.101  0.00  0.00    +0.000 HD
ENDROOT
BRANCH   1   8
ATOM      7  O   UNL     1       7.772   4.566  15.955  0.00  0.00    +0.000 OA
ATOM      8  C   UNL     1       7.437   4.792  17.105  0.00  0.00    +0.000 C 
BRANCH   8   9
ATOM      9  OXT UNL     1       7.986   4.180  18.184  0.00  0.00    +0.000 OA
ATOM     10  HXT UNL     1       8.527   3.429  17.838  0.00  0.00    +0.000 HD
ENDBRANCH   8   9
ENDBRANCH   1   8
BRANCH   3  11
ATOM     11  O   UNL     1       2.786   5.824  17.929  0.00  0.00    +0.000 OA
BRANCH  11  12
ATOM     12  C   UNL     1       2.532   4.523  18.270  0.00  0.00    +0.000 A 
ATOM     13  C   UNL     1       2.549   3.441  17.392  0.00  0.00    +0.000 A 
ATOM     14  C   UNL     1       2.187   2.165  17.833  0.00  0.00    +0.000 A 
ATOM     15  C   UNL     1       1.824   1.962  19.164  0.00  0.00    +0.000 A 
ATOM     16  C   UNL     1       1.824   3.040  20.045  0.00  0.00    +0.000 A 
ATOM     17 CL   UNL     1       1.392   2.789  21.692  0.00  0.00    +0.000 Cl
ATOM     18  C   UNL     1       2.166   4.318  19.603  0.00  0.00    +0.000 A 
ENDBRANCH  11  12
ENDBRANCH   3  11
TORSDOF 4
ENDMDL
MODEL 9
REMARK VINA RESULT:      -6.5      1.431      2.045
REMARK  Name = 
REMARK  4 active torsions:
REMARK  status: ('A' for Active; 'I' for Inactive)
REMARK    1  A    between atoms: C_2  and  OXT_3
REMARK    2  A    between atoms: C_2  and  CA_4
REMARK    3  A    between atoms: C_6  and  O_7
REMARK    4  A    between atoms: O_7  and  C_8
REMARK                            x       y       z     vdW  Elec       q    Type
REMARK                         _______ _______ _______ _____ _____    ______ ____
ROOT
ATOM      1  CA  UNL     1       7.102   4.571  14.624  0.00  0.00    +0.000 C 
ATOM      2  C   UNL     1       5.605   4.538  14.840  0.00  0.00    +0.000 C 
ATOM      3  C   UNL     1       5.498   4.591  16.357  0.00  0.00    +0.000 C 
ATOM      4  C   UNL     1       6.674   5.517  16.737  0.00  0.00    +0.000 C 
ATOM      5  N   UNL     1       7.535   5.663  15.541  0.00  0.00    +0.000 NA
ATOM      6  H   UNL     1       8.512   5.512  15.810  0.00  0.00    +0.000 HD
ENDROOT
BRANCH   1   8
ATOM      7  O   UNL     1       8.198   5.807  12.841  0.00  0.00    +0.000 OA
ATOM      8  C   UNL     1       7.451   4.906  13.180  0.00  0.00    +0.000 C 
BRANCH   8   9
ATOM      9  OXT UNL     1       6.857   4.052  12.308  0.00  0.00    +0.000 OA
ATOM     10  HXT UNL     1       7.211   3.152  12.508  0.00  0.00    +0.000 HD
ENDBRANCH   8   9
ENDBRANCH   1   8
BRANCH   3  11
ATOM     11  O   UNL     1       4.277   5.161  16.817  0.00  0.00    +0.000 OA
BRANCH  11  12
ATOM     12  C   UNL     1       3.425   4.353  17.520  0.00  0.00    +0.000 A 
ATOM     13  C   UNL     1       3.134   3.026  17.212  0.00  0.00    +0.000 A 
ATOM     14  C   UNL     1       2.179   2.320  17.950  0.00  0.00    +0.000 A 
ATOM     15  C   UNL     1       1.521   2.936  19.014  0.00  0.00    +0.000 A 
ATOM     16  C   UNL     1       1.825   4.257  19.332  0.00  0.00    +0.000 A 
ATOM     17 CL   UNL     1       1.027   5.016  20.655  0.00  0.00    +0.000 Cl
ATOM     18  C   UNL     1       2.764   4.969  18.586  0.00  0.00    +0.000 A 
ENDBRANCH  11  12
ENDBRANCH   3  11
TORSDOF 4
ENDMDL
