MODEL 1
REMARK VINA RESULT:      -8.1      0.000      0.000
REMARK  Name = 
REMARK  6 active torsions:
REMARK  status: ('A' for Active; 'I' for Inactive)
REMARK    1  A    between atoms: C_1  and  C_2
REMARK    2  A    between atoms: C_2  and  C_3
REMARK    3  A    between atoms: C_2  and  N_4
REMARK    4  A    between atoms: N_10  and  C_11
REMARK    5  A    between atoms: C_11  and  C_12
REMARK    6  A    between atoms: C_15  and  C_16
REMARK                            x       y       z     vdW  Elec       q    Type
REMARK                         _______ _______ _______ _____ _____    ______ ____
ROOT
ATOM      1  N   UNL     1       1.923   3.440  19.769  0.00  0.00    +0.000 N 
ATOM      2  C   UNL     1       2.030   4.891  19.951  0.00  0.00    +0.000 C 
ATOM      3  C   UNL     1       2.591   5.576  18.693  0.00  0.00    +0.000 C 
ATOM      4  C   UNL     1       2.648   7.110  18.865  0.00  0.00    +0.000 C 
ATOM      5  C   UNL     1       3.397   7.775  17.707  0.00  0.00    +0.000 C 
ATOM      6  C   UNL     1       4.768   7.134  17.454  0.00  0.00    +0.000 C 
ATOM      7  N   UNL     1       4.675   5.672  17.298  0.00  0.00    +0.000 NA
ATOM      8  C   UNL     1       4.033   5.072  18.474  0.00  0.00    +0.000 C 
ATOM      9  C   UNL     1       1.636   5.213  17.533  0.00  0.00    +0.000 C 
ATOM     10  C   UNL     1       1.450   3.714  17.368  0.00  0.00    +0.000 C 
ATOM     11  C   UNL     1       1.272   2.927  18.652  0.00  0.00    +0.000 C 
ATOM     12  O   UNL     1       0.745   1.815  18.630  0.00  0.00    +0.000 OA
ENDROOT
BRANCH   1  14
ATOM     13  C   UNL     1       3.891   2.343  20.802  0.00  0.00    +0.000 C 
ATOM     14  C   UNL     1       2.368   2.508  20.822  0.00  0.00    +0.000 C 
ATOM     15  C   UNL     1       1.858   2.868  22.207  0.00  0.00    +0.000 C 
ENDBRANCH   1  14
BRANCH   7  16
ATOM     16  C   UNL     1       6.004   5.027  17.125  0.00  0.00    +0.000 C 
BRANCH  16  17
ATOM     17  C   UNL     1       6.443   4.984  15.707  0.00  0.00    +0.000 A 
ATOM     18  N   UNL     1       7.572   5.547  15.252  0.00  0.00    +0.000 NA
ATOM     19  O   UNL     1       7.582   5.186  13.902  0.00  0.00    +0.000 OA
ATOM     20  C   UNL     1       6.453   4.451  13.694  0.00  0.00    +0.000 A 
ATOM     21  N   UNL     1       5.703   4.325  14.762  0.00  0.00    +0.000 NA
BRANCH  20  22
ATOM     22  C   UNL     1       6.239   3.874  12.354  0.00  0.00    +0.000 C 
ATOM     23  C   UNL     1       7.079   2.615  12.151  0.00  0.00    +0.000 C 
ATOM     24  C   UNL     1       6.383   1.892  11.009  0.00  0.00    +0.000 C 
ATOM     25  C   UNL     1       4.909   2.278  11.105  0.00  0.00    +0.000 C 
ATOM     26  C   UNL     1       4.812   3.364  12.172  0.00  0.00    +0.000 C 
ENDBRANCH  20  22
ENDBRANCH  16  17
ENDBRANCH   7  16
TORSDOF 4
ENDMDL
MODEL 2
REMARK VINA RESULT:      -7.6      3.663      7.767
REMARK  Name = 
REMARK  6 active torsions:
REMARK  status: ('A' for Active; 'I' for Inactive)
REMARK    1  A    between atoms: C_1  and  C_2
REMARK    2  A    between atoms: C_2  and  C_3
REMARK    3  A    between atoms: C_2  and  N_4
REMARK    4  A    between atoms: N_10  and  C_11
REMARK    5  A    between atoms: C_11  and  C_12
REMARK    6  A    between atoms: C_15  and  C_16
REMARK                            x       y       z     vdW  Elec       q    Type
REMARK                         _______ _______ _______ _____ _____    ______ ____
ROOT
ATOM      1  N   UNL     1       6.411   5.179  17.800  0.00  0.00    +0.000 N 
ATOM      2  C   UNL     1       5.809   4.134  18.634  0.00  0.00    +0.000 C 
ATOM      3  C   UNL     1       4.281   4.296  18.720  0.00  0.00    +0.000 C 
ATOM      4  C   UNL     1       3.641   3.161  19.551  0.00  0.00    +0.000 C 
ATOM      5  C   UNL     1       2.157   3.430  19.816  0.00  0.00    +0.000 C 
ATOM      6  C   UNL     1       1.913   4.829  20.396  0.00  0.00    +0.000 C 
ATOM      7  N   UNL     1       2.539   5.884  19.580  0.00  0.00    +0.000 NA
ATOM      8  C   UNL     1       3.977   5.630  19.432  0.00  0.00    +0.000 C 
ATOM      9  C   UNL     1       3.751   4.245  17.269  0.00  0.00    +0.000 C 
ATOM     10  C   UNL     1       4.413   5.271  16.363  0.00  0.00    +0.000 C 
ATOM     11  C   UNL     1       5.914   5.421  16.523  0.00  0.00    +0.000 C 
ATOM     12  O   UNL     1       6.588   5.911  15.618  0.00  0.00    +0.000 OA
ENDROOT
BRANCH   1  14
ATOM     13  C   UNL     1       7.563   7.373  17.867  0.00  0.00    +0.000 C 
ATOM     14  C   UNL     1       7.631   5.886  18.232  0.00  0.00    +0.000 C 
ATOM     15  C   UNL     1       7.965   5.680  19.699  0.00  0.00    +0.000 C 
ENDBRANCH   1  14
BRANCH   7  16
ATOM     16  C   UNL     1       2.373   7.240  20.168  0.00  0.00    +0.000 C 
BRANCH  16  17
ATOM     17  C   UNL     1       1.866   8.235  19.189  0.00  0.00    +0.000 A 
ATOM     18  N   UNL     1       2.309   8.342  17.928  0.00  0.00    +0.000 NA
ATOM     19  O   UNL     1       1.499   9.349  17.395  0.00  0.00    +0.000 OA
ATOM     20  C   UNL     1       0.664   9.740  18.399  0.00  0.00    +0.000 A 
ATOM     21  N   UNL     1       0.870   9.111  19.530  0.00  0.00    +0.000 NA
BRANCH  20  22
ATOM     22  C   UNL     1      -0.358  10.758  18.092  0.00  0.00    +0.000 C 
ATOM     23  C   UNL     1      -1.642  10.116  17.572  0.00  0.00    +0.000 C 
ATOM     24  C   UNL     1      -2.702  11.181  17.802  0.00  0.00    +0.000 C 
ATOM     25  C   UNL     1      -2.237  11.979  19.018  0.00  0.00    +0.000 C 
ATOM     26  C   UNL     1      -0.828  11.492  19.345  0.00  0.00    +0.000 C 
ENDBRANCH  20  22
ENDBRANCH  16  17
ENDBRANCH   7  16
TORSDOF 4
ENDMDL
MODEL 3
REMARK VINA RESULT:      -7.6      0.805      1.119
REMARK  Name = 
REMARK  6 active torsions:
REMARK  status: ('A' for Active; 'I' for Inactive)
REMARK    1  A    between atoms: C_1  and  C_2
REMARK    2  A    between atoms: C_2  and  C_3
REMARK    3  A    between atoms: C_2  and  N_4
REMARK    4  A    between atoms: N_10  and  C_11
REMARK    5  A    between atoms: C_11  and  C_12
REMARK    6  A    between atoms: C_15  and  C_16
REMARK                            x       y       z     vdW  Elec       q    Type
REMARK                         _______ _______ _______ _____ _____    ______ ____
ROOT
ATOM      1  N   UNL     1       2.037   3.445  19.728  0.00  0.00    +0.000 N 
ATOM      2  C   UNL     1       1.739   4.863  19.951  0.00  0.00    +0.000 C 
ATOM      3  C   UNL     1       2.273   5.736  18.802  0.00  0.00    +0.000 C 
ATOM      4  C   UNL     1       1.908   7.224  19.009  0.00  0.00    +0.000 C 
ATOM      5  C   UNL     1       2.612   8.120  17.986  0.00  0.00    +0.000 C 
ATOM      6  C   UNL     1       4.124   7.860  17.926  0.00  0.00    +0.000 C 
ATOM      7  N   UNL     1       4.433   6.433  17.731  0.00  0.00    +0.000 NA
ATOM      8  C   UNL     1       3.811   5.626  18.789  0.00  0.00    +0.000 C 
ATOM      9  C   UNL     1       1.613   5.210  17.507  0.00  0.00    +0.000 C 
ATOM     10  C   UNL     1       1.845   3.724  17.290  0.00  0.00    +0.000 C 
ATOM     11  C   UNL     1       1.700   2.847  18.518  0.00  0.00    +0.000 C 
ATOM     12  O   UNL     1       1.487   1.641  18.398  0.00  0.00    +0.000 OA
ENDROOT
BRANCH   1  14
ATOM     13  C   UNL     1       4.075   2.420  20.698  0.00  0.00    +0.000 C 
ATOM     14  C   UNL     1       2.557   2.598  20.818  0.00  0.00    +0.000 C 
ATOM     15  C   UNL     1       2.153   3.074  22.203  0.00  0.00    +0.000 C 
ENDBRANCH   1  14
BRANCH   7  16
ATOM     16  C   UNL     1       5.894   6.155  17.744  0.00  0.00    +0.000 C 
BRANCH  16  17
ATOM     17  C   UNL     1       6.403   5.687  16.430  0.00  0.00    +0.000 A 
ATOM     18  N   UNL     1       7.562   6.088  15.886  0.00  0.00    +0.000 NA
ATOM     19  O   UNL     1       7.634   5.335  14.711  0.00  0.00    +0.000 OA
ATOM     20  C   UNL     1       6.507   4.571  14.676  0.00  0.00    +0.000 A 
ATOM     21  N   UNL     1       5.702   4.772  15.691  0.00  0.00    +0.000 NA
BRANCH  20  22
ATOM     22  C   UNL     1       6.352   3.615  13.563  0.00  0.00    +0.000 C 
ATOM     23  C   UNL     1       4.929   3.631  13.011  0.00  0.00    +0.000 C 
ATOM     24  C   UNL     1       5.069   3.034  11.621  0.00  0.00    +0.000 C 
ATOM     25  C   UNL     1       6.478   3.390  11.152  0.00  0.00    +0.000 C 
ATOM     26  C   UNL     1       7.191   4.011  12.350  0.00  0.00    +0.000 C 
ENDBRANCH  20  22
ENDBRANCH  16  17
ENDBRANCH   7  16
TORSDOF 4
ENDMDL
MODEL 4
REMARK VINA RESULT:      -7.5      4.233      8.050
REMARK  Name = 
REMARK  6 active torsions:
REMARK  status: ('A' for Active; 'I' for Inactive)
REMARK    1  A    between atoms: C_1  and  C_2
REMARK    2  A    between atoms: C_2  and  C_3
REMARK    3  A    between atoms: C_2  and  N_4
REMARK    4  A    between atoms: N_10  and  C_11
REMARK    5  A    between atoms: C_11  and  C_12
REMARK    6  A    between atoms: C_15  and  C_16
REMARK                            x       y       z     vdW  Elec       q    Type
REMARK                         _______ _______ _______ _____ _____    ______ ____
ROOT
ATOM      1  N   UNL     1       6.088   4.772  17.946  0.00  0.00    +0.000 N 
ATOM      2  C   UNL     1       5.359   4.596  19.206  0.00  0.00    +0.000 C 
ATOM      3  C   UNL     1       3.883   5.006  19.064  0.00  0.00    +0.000 C 
ATOM      4  C   UNL     1       3.103   4.765  20.376  0.00  0.00    +0.000 C 
ATOM      5  C   UNL     1       1.695   5.364  20.307  0.00  0.00    +0.000 C 
ATOM      6  C   UNL     1       1.707   6.831  19.859  0.00  0.00    +0.000 C 
ATOM      7  N   UNL     1       2.461   7.022  18.608  0.00  0.00    +0.000 NA
ATOM      8  C   UNL     1       3.831   6.516  18.755  0.00  0.00    +0.000 C 
ATOM      9  C   UNL     1       3.292   4.132  17.934  0.00  0.00    +0.000 C 
ATOM     10  C   UNL     1       4.073   4.240  16.635  0.00  0.00    +0.000 C 
ATOM     11  C   UNL     1       5.583   4.226  16.771  0.00  0.00    +0.000 C 
ATOM     12  O   UNL     1       6.290   3.925  15.809  0.00  0.00    +0.000 OA
ENDROOT
BRANCH   1  14
ATOM     13  C   UNL     1       7.383   6.756  17.218  0.00  0.00    +0.000 C 
ATOM     14  C   UNL     1       7.424   5.396  17.922  0.00  0.00    +0.000 C 
ATOM     15  C   UNL     1       8.075   5.490  19.292  0.00  0.00    +0.000 C 
ENDBRANCH   1  14
BRANCH   7  16
ATOM     16  C   UNL     1       2.543   8.450  18.200  0.00  0.00    +0.000 C 
BRANCH  16  17
ATOM     17  C   UNL     1       1.323   9.221  18.551  0.00  0.00    +0.000 A 
ATOM     18  N   UNL     1       1.124   9.812  19.738  0.00  0.00    +0.000 NA
ATOM     19  O   UNL     1      -0.105  10.456  19.567  0.00  0.00    +0.000 OA
ATOM     20  C   UNL     1      -0.511  10.173  18.297  0.00  0.00    +0.000 A 
ATOM     21  N   UNL     1       0.314   9.392  17.642  0.00  0.00    +0.000 NA
BRANCH  20  22
ATOM     22  C   UNL     1      -1.762  10.789  17.816  0.00  0.00    +0.000 C 
ATOM     23  C   UNL     1      -2.852   9.741  17.607  0.00  0.00    +0.000 C 
ATOM     24  C   UNL     1      -4.142  10.545  17.632  0.00  0.00    +0.000 C 
ATOM     25  C   UNL     1      -3.870  11.744  18.538  0.00  0.00    +0.000 C 
ATOM     26  C   UNL     1      -2.379  11.718  18.859  0.00  0.00    +0.000 C 
ENDBRANCH  20  22
ENDBRANCH  16  17
ENDBRANCH   7  16
TORSDOF 4
ENDMDL
MODEL 5
REMARK VINA RESULT:      -7.3      3.612      8.506
REMARK  Name = 
REMARK  6 active torsions:
REMARK  status: ('A' for Active; 'I' for Inactive)
REMARK    1  A    between atoms: C_1  and  C_2
REMARK    2  A    between atoms: C_2  and  C_3
REMARK    3  A    between atoms: C_2  and  N_4
REMARK    4  A    between atoms: N_10  and  C_11
REMARK    5  A    between atoms: C_11  and  C_12
REMARK    6  A    between atoms: C_15  and  C_16
REMARK                            x       y       z     vdW  Elec       q    Type
REMARK                         _______ _______ _______ _____ _____    ______ ____
ROOT
ATOM      1  N   UNL     1       6.784   5.204  17.528  0.00  0.00    +0.000 N 
ATOM      2  C   UNL     1       5.889   4.398  18.364  0.00  0.00    +0.000 C 
ATOM      3  C   UNL     1       4.422   4.550  17.925  0.00  0.00    +0.000 C 
ATOM      4  C   UNL     1       3.486   3.656  18.769  0.00  0.00    +0.000 C 
ATOM      5  C   UNL     1       2.013   3.959  18.481  0.00  0.00    +0.000 C 
ATOM      6  C   UNL     1       1.694   5.456  18.589  0.00  0.00    +0.000 C 
ATOM      7  N   UNL     1       2.607   6.277  17.775  0.00  0.00    +0.000 NA
ATOM      8  C   UNL     1       4.002   6.017  18.152  0.00  0.00    +0.000 C 
ATOM      9  C   UNL     1       4.360   4.121  16.441  0.00  0.00    +0.000 C 
ATOM     10  C   UNL     1       5.332   4.892  15.564  0.00  0.00    +0.000 C 
ATOM     11  C   UNL     1       6.718   5.103  16.142  0.00  0.00    +0.000 C 
ATOM     12  O   UNL     1       7.668   5.357  15.401  0.00  0.00    +0.000 OA
ENDROOT
BRANCH   1  14
ATOM     13  C   UNL     1       7.663   7.504  17.812  0.00  0.00    +0.000 C 
ATOM     14  C   UNL     1       7.857   6.018  18.130  0.00  0.00    +0.000 C 
ATOM     15  C   UNL     1       8.036   5.779  19.619  0.00  0.00    +0.000 C 
ENDBRANCH   1  14
BRANCH   7  16
ATOM     16  C   UNL     1       2.357   7.735  17.926  0.00  0.00    +0.000 C 
BRANCH  16  17
ATOM     17  C   UNL     1       1.862   8.098  19.278  0.00  0.00    +0.000 A 
ATOM     18  N   UNL     1       2.005   7.323  20.364  0.00  0.00    +0.000 NA
ATOM     19  O   UNL     1       1.454   8.106  21.383  0.00  0.00    +0.000 OA
ATOM     20  C   UNL     1       1.035   9.261  20.794  0.00  0.00    +0.000 A 
ATOM     21  N   UNL     1       1.233   9.293  19.499  0.00  0.00    +0.000 NA
BRANCH  20  22
ATOM     22  C   UNL     1       0.468  10.313  21.659  0.00  0.00    +0.000 C 
ATOM     23  C   UNL     1      -0.542  11.170  20.901  0.00  0.00    +0.000 C 
ATOM     24  C   UNL     1      -1.373  11.812  21.999  0.00  0.00    +0.000 C 
ATOM     25  C   UNL     1      -1.361  10.826  23.165  0.00  0.00    +0.000 C 
ATOM     26  C   UNL     1      -0.367   9.729  22.796  0.00  0.00    +0.000 C 
ENDBRANCH  20  22
ENDBRANCH  16  17
ENDBRANCH   7  16
TORSDOF 4
ENDMDL
MODEL 6
REMARK VINA RESULT:      -7.3      4.327      7.803
REMARK  Name = 
REMARK  6 active torsions:
REMARK  status: ('A' for Active; 'I' for Inactive)
REMARK    1  A    between atoms: C_1  and  C_2
REMARK    2  A    between atoms: C_2  and  C_3
REMARK    3  A    between atoms: C_2  and  N_4
REMARK    4  A    between atoms: N_10  and  C_11
REMARK    5  A    between atoms: C_11  and  C_12
REMARK    6  A    between atoms: C_15  and  C_16
REMARK                            x       y       z     vdW  Elec       q    Type
REMARK                         _______ _______ _______ _____ _____    ______ ____
ROOT
ATOM      1  N   UNL     1       5.808   4.675  17.879  0.00  0.00    +0.000 N 
ATOM      2  C   UNL     1       5.174   4.687  19.202  0.00  0.00    +0.000 C 
ATOM      3  C   UNL     1       3.718   5.178  19.123  0.00  0.00    +0.000 C 
ATOM      4  C   UNL     1       3.034   5.134  20.507  0.00  0.00    +0.000 C 
ATOM      5  C   UNL     1       1.663   5.816  20.476  0.00  0.00    +0.000 C 
ATOM      6  C   UNL     1       1.725   7.222  19.864  0.00  0.00    +0.000 C 
ATOM      7  N   UNL     1       2.385   7.224  18.547  0.00  0.00    +0.000 NA
ATOM      8  C   UNL     1       3.730   6.646  18.649  0.00  0.00    +0.000 C 
ATOM      9  C   UNL     1       2.987   4.229  18.147  0.00  0.00    +0.000 C 
ATOM     10  C   UNL     1       3.665   4.141  16.790  0.00  0.00    +0.000 C 
ATOM     11  C   UNL     1       5.178   4.040  16.814  0.00  0.00    +0.000 C 
ATOM     12  O   UNL     1       5.785   3.589  15.843  0.00  0.00    +0.000 OA
ENDROOT
BRANCH   1  14
ATOM     13  C   UNL     1       7.157   6.462  16.816  0.00  0.00    +0.000 C 
ATOM     14  C   UNL     1       7.172   5.201  17.686  0.00  0.00    +0.000 C 
ATOM     15  C   UNL     1       7.927   5.421  18.985  0.00  0.00    +0.000 C 
ENDBRANCH   1  14
BRANCH   7  16
ATOM     16  C   UNL     1       2.517   8.590  17.975  0.00  0.00    +0.000 C 
BRANCH  16  17
ATOM     17  C   UNL     1       1.281   9.400  18.122  0.00  0.00    +0.000 A 
ATOM     18  N   UNL     1       1.248  10.632  18.649  0.00  0.00    +0.000 NA
ATOM     19  O   UNL     1      -0.094  10.997  18.510  0.00  0.00    +0.000 OA
ATOM     20  C   UNL     1      -0.720   9.939  17.922  0.00  0.00    +0.000 A 
ATOM     21  N   UNL     1       0.073   8.920  17.693  0.00  0.00    +0.000 NA
BRANCH  20  22
ATOM     22  C   UNL     1      -2.150  10.078  17.590  0.00  0.00    +0.000 C 
ATOM     23  C   UNL     1      -2.712  11.403  18.098  0.00  0.00    +0.000 C 
ATOM     24  C   UNL     1      -3.963  11.614  17.261  0.00  0.00    +0.000 C 
ATOM     25  C   UNL     1      -3.694  10.926  15.925  0.00  0.00    +0.000 C 
ATOM     26  C   UNL     1      -2.381  10.165  16.084  0.00  0.00    +0.000 C 
ENDBRANCH  20  22
ENDBRANCH  16  17
ENDBRANCH   7  16
TORSDOF 4
ENDMDL
MODEL 7
REMARK VINA RESULT:      -7.1      3.731      6.370
REMARK  Name = 
REMARK  6 active torsions:
REMARK  status: ('A' for Active; 'I' for Inactive)
REMARK    1  A    between atoms: C_1  and  C_2
REMARK    2  A    between atoms: C_2  and  C_3
REMARK    3  A    between atoms: C_2  and  N_4
REMARK    4  A    between atoms: N_10  and  C_11
REMARK    5  A    between atoms: C_11  and  C_12
REMARK    6  A    between atoms: C_15  and  C_16
REMARK                            x       y       z     vdW  Elec       q    Type
REMARK                         _______ _______ _______ _____ _____    ______ ____
ROOT
ATOM      1  N   UNL     1       2.787   5.817  19.237  0.00  0.00    +0.000 N 
ATOM      2  C   UNL     1       3.096   5.611  17.818  0.00  0.00    +0.000 C 
ATOM      3  C   UNL     1       4.355   4.745  17.638  0.00  0.00    +0.000 C 
ATOM      4  C   UNL     1       4.647   4.480  16.144  0.00  0.00    +0.000 C 
ATOM      5  C   UNL     1       6.005   3.802  15.951  0.00  0.00    +0.000 C 
ATOM      6  C   UNL     1       7.136   4.544  16.676  0.00  0.00    +0.000 C 
ATOM      7  N   UNL     1       6.821   4.780  18.095  0.00  0.00    +0.000 NA
ATOM      8  C   UNL     1       5.556   5.514  18.223  0.00  0.00    +0.000 C 
ATOM      9  C   UNL     1       4.075   3.408  18.362  0.00  0.00    +0.000 C 
ATOM     10  C   UNL     1       3.680   3.597  19.817  0.00  0.00    +0.000 C 
ATOM     11  C   UNL     1       2.705   4.725  20.095  0.00  0.00    +0.000 C 
ATOM     12  O   UNL     1       2.037   4.728  21.129  0.00  0.00    +0.000 OA
ENDROOT
BRANCH   1  14
ATOM     13  C   UNL     1       2.188   8.135  18.596  0.00  0.00    +0.000 C 
ATOM     14  C   UNL     1       2.416   7.150  19.747  0.00  0.00    +0.000 C 
ATOM     15  C   UNL     1       1.242   7.127  20.710  0.00  0.00    +0.000 C 
ENDBRANCH   1  14
BRANCH   7  16
ATOM     16  C   UNL     1       7.876   5.563  18.794  0.00  0.00    +0.000 C 
BRANCH  16  17
ATOM     17  C   UNL     1       7.982   6.958  18.298  0.00  0.00    +0.000 A 
ATOM     18  N   UNL     1       7.459   7.386  17.140  0.00  0.00    +0.000 NA
ATOM     19  O   UNL     1       7.754   8.753  17.147  0.00  0.00    +0.000 OA
ATOM     20  C   UNL     1       8.429   8.992  18.307  0.00  0.00    +0.000 A 
ATOM     21  N   UNL     1       8.624   7.918  19.034  0.00  0.00    +0.000 NA
BRANCH  20  22
ATOM     22  C   UNL     1       8.809  10.384  18.613  0.00  0.00    +0.000 C 
ATOM     23  C   UNL     1       9.378  10.507  20.024  0.00  0.00    +0.000 C 
ATOM     24  C   UNL     1      10.167  11.806  19.988  0.00  0.00    +0.000 C 
ATOM     25  C   UNL     1      10.645  11.966  18.546  0.00  0.00    +0.000 C 
ATOM     26  C   UNL     1       9.962  10.867  17.737  0.00  0.00    +0.000 C 
ENDBRANCH  20  22
ENDBRANCH  16  17
ENDBRANCH   7  16
TORSDOF 4
ENDMDL
MODEL 8
REMARK VINA RESULT:      -7.0      4.094      8.545
REMARK  Name = 
REMARK  6 active torsions:
REMARK  status: ('A' for Active; 'I' for Inactive)
REMARK    1  A    between atoms: C_1  and  C_2
REMARK    2  A    between atoms: C_2  and  C_3
REMARK    3  A    between atoms: C_2  and  N_4
REMARK    4  A    between atoms: N_10  and  C_11
REMARK    5  A    between atoms: C_11  and  C_12
REMARK    6  A    between atoms: C_15  and  C_16
REMARK                            x       y       z     vdW  Elec       q    Type
REMARK                         _______ _______ _______ _____ _____    ______ ____
ROOT
ATOM      1  N   UNL     1       5.913   4.637  17.856  0.00  0.00    +0.000 N 
ATOM      2  C   UNL     1       5.237   4.552  19.154  0.00  0.00    +0.000 C 
ATOM      3  C   UNL     1       3.770   5.007  19.055  0.00  0.00    +0.000 C 
ATOM      4  C   UNL     1       3.043   4.861  20.411  0.00  0.00    +0.000 C 
ATOM      5  C   UNL     1       1.655   5.506  20.373  0.00  0.00    +0.000 C 
ATOM      6  C   UNL     1       1.695   6.948  19.849  0.00  0.00    +0.000 C 
ATOM      7  N   UNL     1       2.398   7.048  18.558  0.00  0.00    +0.000 NA
ATOM      8  C   UNL     1       3.755   6.501  18.671  0.00  0.00    +0.000 C 
ATOM      9  C   UNL     1       3.099   4.100  18.000  0.00  0.00    +0.000 C 
ATOM     10  C   UNL     1       3.823   4.113  16.664  0.00  0.00    +0.000 C 
ATOM     11  C   UNL     1       5.337   4.051  16.734  0.00  0.00    +0.000 C 
ATOM     12  O   UNL     1       5.988   3.677  15.759  0.00  0.00    +0.000 OA
ENDROOT
BRANCH   1  14
ATOM     13  C   UNL     1       7.258   6.470  16.869  0.00  0.00    +0.000 C 
ATOM     14  C   UNL     1       7.267   5.210  17.741  0.00  0.00    +0.000 C 
ATOM     15  C   UNL     1       7.936   5.458  19.082  0.00  0.00    +0.000 C 
ENDBRANCH   1  14
BRANCH   7  16
ATOM     16  C   UNL     1       2.509   8.450  18.073  0.00  0.00    +0.000 C 
BRANCH  16  17
ATOM     17  C   UNL     1       1.419   9.323  18.577  0.00  0.00    +0.000 A 
ATOM     18  N   UNL     1       0.244   9.493  17.956  0.00  0.00    +0.000 NA
ATOM     19  O   UNL     1      -0.457  10.328  18.831  0.00  0.00    +0.000 OA
ATOM     20  C   UNL     1       0.380  10.572  19.878  0.00  0.00    +0.000 A 
ATOM     21  N   UNL     1       1.555  10.006  19.757  0.00  0.00    +0.000 NA
BRANCH  20  22
ATOM     22  C   UNL     1      -0.133  11.382  21.000  0.00  0.00    +0.000 C 
ATOM     23  C   UNL     1      -1.537  11.906  20.709  0.00  0.00    +0.000 C 
ATOM     24  C   UNL     1      -2.095  12.240  22.083  0.00  0.00    +0.000 C 
ATOM     25  C   UNL     1      -1.414  11.279  23.055  0.00  0.00    +0.000 C 
ATOM     26  C   UNL     1      -0.337  10.546  22.261  0.00  0.00    +0.000 C 
ENDBRANCH  20  22
ENDBRANCH  16  17
ENDBRANCH   7  16
TORSDOF 4
ENDMDL
MODEL 9
REMARK VINA RESULT:      -7.0      0.898      1.166
REMARK  Name = 
REMARK  6 active torsions:
REMARK  status: ('A' for Active; 'I' for Inactive)
REMARK    1  A    between atoms: C_1  and  C_2
REMARK    2  A    between atoms: C_2  and  C_3
REMARK    3  A    between atoms: C_2  and  N_4
REMARK    4  A    between atoms: N_10  and  C_11
REMARK    5  A    between atoms: C_11  and  C_12
REMARK    6  A    between atoms: C_15  and  C_16
REMARK                            x       y       z     vdW  Elec       q    Type
REMARK                         _______ _______ _______ _____ _____    ______ ____
ROOT
ATOM      1  N   UNL     1       2.272   3.739  19.996  0.00  0.00    +0.000 N 
ATOM      2  C   UNL     1       1.899   5.157  20.047  0.00  0.00    +0.000 C 
ATOM      3  C   UNL     1       2.373   5.907  18.790  0.00  0.00    +0.000 C 
ATOM      4  C   UNL     1       1.929   7.387  18.818  0.00  0.00    +0.000 C 
ATOM      5  C   UNL     1       2.573   8.186  17.681  0.00  0.00    +0.000 C 
ATOM      6  C   UNL     1       4.095   8.001  17.628  0.00  0.00    +0.000 C 
ATOM      7  N   UNL     1       4.480   6.580  17.605  0.00  0.00    +0.000 NA
ATOM      8  C   UNL     1       3.915   5.878  18.764  0.00  0.00    +0.000 C 
ATOM      9  C   UNL     1       1.730   5.190  17.581  0.00  0.00    +0.000 C 
ATOM     10  C   UNL     1       2.040   3.703  17.545  0.00  0.00    +0.000 C 
ATOM     11  C   UNL     1       1.956   2.979  18.874  0.00  0.00    +0.000 C 
ATOM     12  O   UNL     1       1.808   1.757  18.908  0.00  0.00    +0.000 OA
ENDROOT
BRANCH   1  14
ATOM     13  C   UNL     1       1.762   2.355  21.987  0.00  0.00    +0.000 C 
ATOM     14  C   UNL     1       2.849   3.063  21.172  0.00  0.00    +0.000 C 
ATOM     15  C   UNL     1       3.997   2.128  20.833  0.00  0.00    +0.000 C 
ENDBRANCH   1  14
BRANCH   7  16
ATOM     16  C   UNL     1       5.954   6.384  17.627  0.00  0.00    +0.000 C 
BRANCH  16  17
ATOM     17  C   UNL     1       6.462   5.693  16.416  0.00  0.00    +0.000 A 
ATOM     18  N   UNL     1       7.601   4.986  16.375  0.00  0.00    +0.000 NA
ATOM     19  O   UNL     1       7.613   4.483  15.071  0.00  0.00    +0.000 OA
ATOM     20  C   UNL     1       6.482   4.950  14.471  0.00  0.00    +0.000 A 
ATOM     21  N   UNL     1       5.758   5.724  15.242  0.00  0.00    +0.000 NA
BRANCH  20  22
ATOM     22  C   UNL     1       6.200   4.513  13.090  0.00  0.00    +0.000 C 
ATOM     23  C   UNL     1       7.348   3.679  12.527  0.00  0.00    +0.000 C 
ATOM     24  C   UNL     1       6.712   2.908  11.382  0.00  0.00    +0.000 C 
ATOM     25  C   UNL     1       5.247   2.718  11.768  0.00  0.00    +0.000 C 
ATOM     26  C   UNL     1       5.017   3.549  13.027  0.00  0.00    +0.000 C 
ENDBRANCH  20  22
ENDBRANCH  16  17
ENDBRANCH   7  16
TORSDOF 4
ENDMDL
