MODEL 1
REMARK VINA RESULT:      -5.2      0.000      0.000
REMARK  Name = 
REMARK  11 active torsions:
REMARK  status: ('A' for Active; 'I' for Inactive)
REMARK    1  A    between atoms: C_1  and  O_2
REMARK    2  A    between atoms: O_2  and  C_3
REMARK    3  A    between atoms: C_3  and  C_4
REMARK    4  A    between atoms: C_4  and  CA_5
REMARK    5  A    between atoms: CA_5  and  C_6
REMARK    6  A    between atoms: CA_5  and  N_8
REMARK    7  A    between atoms: C_9  and  O_11
REMARK    8  A    between atoms: O_11  and  C_12
REMARK    9  A    between atoms: C_12  and  C_13
REMARK   10  A    between atoms: C_12  and  C_14
REMARK   11  A    between atoms: C_12  and  C_15
REMARK                            x       y       z     vdW  Elec       q    Type
REMARK                         _______ _______ _______ _____ _____    ______ ____
ROOT
ATOM      1  N   UNL     1       3.396   4.299  19.968  0.00  0.00    +0.000 N 
ATOM      2  C   UNL     1       3.876   5.467  19.457  0.00  0.00    +0.000 C 
ATOM      3  O   UNL     1       3.169   6.448  19.262  0.00  0.00    +0.000 OA
ATOM      4  H   UNL     1       4.032   3.523  20.110  0.00  0.00    +0.000 HD
ENDROOT
BRANCH   1   5
ATOM      5  CA  UNL     1       1.990   4.185  20.340  0.00  0.00    +0.000 C 
BRANCH   5   6
ATOM      6  C   UNL     1       1.877   3.303  21.568  0.00  0.00    +0.000 C 
ATOM      7  O   UNL     1       2.778   2.572  21.973  0.00  0.00    +0.000 OA
ENDBRANCH   5   6
BRANCH   5   8
ATOM      8  C   UNL     1       1.148   3.636  19.184  0.00  0.00    +0.000 C 
BRANCH   8   9
ATOM      9  C   UNL     1       1.446   2.173  18.863  0.00  0.00    +0.000 C 
BRANCH   9  11
ATOM     10  C   UNL     1       3.600   1.339  18.376  0.00  0.00    +0.000 C 
ATOM     11  O   UNL     1       2.498   2.105  17.905  0.00  0.00    +0.000 OA
ENDBRANCH   9  11
ENDBRANCH   8   9
ENDBRANCH   5   8
ENDBRANCH   1   5
BRANCH   2  12
ATOM     12  O   UNL     1       5.209   5.391  19.210  0.00  0.00    +0.000 OA
BRANCH  12  13
ATOM     13  C   UNL     1       5.649   5.418  17.823  0.00  0.00    +0.000 C 
ATOM     14  C   UNL     1       5.881   6.857  17.340  0.00  0.00    +0.000 C 
ATOM     15  C   UNL     1       7.000   4.684  17.776  0.00  0.00    +0.000 C 
ATOM     16  C   UNL     1       4.669   4.650  16.922  0.00  0.00    +0.000 C 
ENDBRANCH  12  13
ENDBRANCH   2  12
TORSDOF 7
ENDMDL
MODEL 2
REMARK VINA RESULT:      -5.1      2.559      5.331
REMARK  Name = 
REMARK  11 active torsions:
REMARK  status: ('A' for Active; 'I' for Inactive)
REMARK    1  A    between atoms: C_1  and  O_2
REMARK    2  A    between atoms: O_2  and  C_3
REMARK    3  A    between atoms: C_3  and  C_4
REMARK    4  A    between atoms: C_4  and  CA_5
REMARK    5  A    between atoms: CA_5  and  C_6
REMARK    6  A    between atoms: CA_5  and  N_8
REMARK    7  A    between atoms: C_9  and  O_11
REMARK    8  A    between atoms: O_11  and  C_12
REMARK    9  A    between atoms: C_12  and  C_13
REMARK   10  A    between atoms: C_12  and  C_14
REMARK   11  A    between atoms: C_12  and  C_15
REMARK                            x       y       z     vdW  Elec       q    Type
REMARK                         _______ _______ _______ _____ _____    ______ ____
ROOT
ATOM      1  N   UNL     1       4.922   4.326  18.246  0.00  0.00    +0.000 N 
ATOM      2  C   UNL     1       4.015   3.328  18.436  0.00  0.00    +0.000 C 
ATOM      3  O   UNL     1       3.917   2.366  17.683  0.00  0.00    +0.000 OA
ATOM      4  H   UNL     1       4.957   5.095  18.906  0.00  0.00    +0.000 HD
ENDROOT
BRANCH   1   5
ATOM      5  CA  UNL     1       5.856   4.265  17.127  0.00  0.00    +0.000 C 
BRANCH   5   6
ATOM      6  C   UNL     1       7.211   4.761  17.591  0.00  0.00    +0.000 C 
ATOM      7  O   UNL     1       8.270   4.181  17.363  0.00  0.00    +0.000 OA
ENDBRANCH   5   6
BRANCH   5   8
ATOM      8  C   UNL     1       5.349   5.074  15.930  0.00  0.00    +0.000 C 
BRANCH   8   9
ATOM      9  C   UNL     1       6.200   4.893  14.675  0.00  0.00    +0.000 C 
BRANCH   9  11
ATOM     10  C   UNL     1       6.346   3.680  12.656  0.00  0.00    +0.000 C 
ATOM     11  O   UNL     1       5.687   3.808  13.910  0.00  0.00    +0.000 OA
ENDBRANCH   9  11
ENDBRANCH   8   9
ENDBRANCH   5   8
ENDBRANCH   1   5
BRANCH   2  12
ATOM     12  O   UNL     1       3.264   3.543  19.546  0.00  0.00    +0.000 OA
BRANCH  12  13
ATOM     13  C   UNL     1       1.893   3.997  19.366  0.00  0.00    +0.000 C 
ATOM     14  C   UNL     1       0.889   2.880  19.688  0.00  0.00    +0.000 C 
ATOM     15  C   UNL     1       1.669   5.134  20.378  0.00  0.00    +0.000 C 
ATOM     16  C   UNL     1       1.688   4.578  17.958  0.00  0.00    +0.000 C 
ENDBRANCH  12  13
ENDBRANCH   2  12
TORSDOF 7
ENDMDL
MODEL 3
REMARK VINA RESULT:      -5.1      2.319      5.876
REMARK  Name = 
REMARK  11 active torsions:
REMARK  status: ('A' for Active; 'I' for Inactive)
REMARK    1  A    between atoms: C_1  and  O_2
REMARK    2  A    between atoms: O_2  and  C_3
REMARK    3  A    between atoms: C_3  and  C_4
REMARK    4  A    between atoms: C_4  and  CA_5
REMARK    5  A    between atoms: CA_5  and  C_6
REMARK    6  A    between atoms: CA_5  and  N_8
REMARK    7  A    between atoms: C_9  and  O_11
REMARK    8  A    between atoms: O_11  and  C_12
REMARK    9  A    between atoms: C_12  and  C_13
REMARK   10  A    between atoms: C_12  and  C_14
REMARK   11  A    between atoms: C_12  and  C_15
REMARK                            x       y       z     vdW  Elec       q    Type
REMARK                         _______ _______ _______ _____ _____    ______ ____
ROOT
ATOM      1  N   UNL     1       5.219   3.868  16.734  0.00  0.00    +0.000 N 
ATOM      2  C   UNL     1       3.983   4.311  17.097  0.00  0.00    +0.000 C 
ATOM      3  O   UNL     1       3.735   5.493  17.302  0.00  0.00    +0.000 OA
ATOM      4  H   UNL     1       5.362   2.877  16.575  0.00  0.00    +0.000 HD
ENDROOT
BRANCH   1   5
ATOM      5  CA  UNL     1       6.310   4.816  16.539  0.00  0.00    +0.000 C 
BRANCH   5   6
ATOM      6  C   UNL     1       6.952   4.556  15.191  0.00  0.00    +0.000 C 
ATOM      7  O   UNL     1       7.687   5.354  14.614  0.00  0.00    +0.000 OA
ENDBRANCH   5   6
BRANCH   5   8
ATOM      8  C   UNL     1       7.339   4.725  17.669  0.00  0.00    +0.000 C 
BRANCH   8   9
ATOM      9  C   UNL     1       7.145   5.788  18.749  0.00  0.00    +0.000 C 
BRANCH   9  11
ATOM     10  C   UNL     1       7.753   7.815  17.702  0.00  0.00    +0.000 C 
ATOM     11  O   UNL     1       8.146   6.792  18.608  0.00  0.00    +0.000 OA
ENDBRANCH   9  11
ENDBRANCH   8   9
ENDBRANCH   5   8
ENDBRANCH   1   5
BRANCH   2  12
ATOM     12  O   UNL     1       3.095   3.288  17.191  0.00  0.00    +0.000 OA
BRANCH  12  13
ATOM     13  C   UNL     1       2.922   2.652  18.488  0.00  0.00    +0.000 C 
ATOM     14  C   UNL     1       3.322   3.597  19.631  0.00  0.00    +0.000 C 
ATOM     15  C   UNL     1       1.420   2.352  18.633  0.00  0.00    +0.000 C 
ATOM     16  C   UNL     1       3.673   1.313  18.547  0.00  0.00    +0.000 C 
ENDBRANCH  12  13
ENDBRANCH   2  12
TORSDOF 7
ENDMDL
MODEL 4
REMARK VINA RESULT:      -5.1      1.560      5.041
REMARK  Name = 
REMARK  11 active torsions:
REMARK  status: ('A' for Active; 'I' for Inactive)
REMARK    1  A    between atoms: C_1  and  O_2
REMARK    2  A    between atoms: O_2  and  C_3
REMARK    3  A    between atoms: C_3  and  C_4
REMARK    4  A    between atoms: C_4  and  CA_5
REMARK    5  A    between atoms: CA_5  and  C_6
REMARK    6  A    between atoms: CA_5  and  N_8
REMARK    7  A    between atoms: C_9  and  O_11
REMARK    8  A    between atoms: O_11  and  C_12
REMARK    9  A    between atoms: C_12  and  C_13
REMARK   10  A    between atoms: C_12  and  C_14
REMARK   11  A    between atoms: C_12  and  C_15
REMARK                            x       y       z     vdW  Elec       q    Type
REMARK                         _______ _______ _______ _____ _____    ______ ____
ROOT
ATOM      1  N   UNL     1       4.804   4.163  18.638  0.00  0.00    +0.000 N 
ATOM      2  C   UNL     1       3.998   3.078  18.811  0.00  0.00    +0.000 C 
ATOM      3  O   UNL     1       3.813   2.240  17.936  0.00  0.00    +0.000 OA
ATOM      4  H   UNL     1       4.919   4.820  19.401  0.00  0.00    +0.000 HD
ENDROOT
BRANCH   1   5
ATOM      5  CA  UNL     1       5.521   4.350  17.381  0.00  0.00    +0.000 C 
BRANCH   5   6
ATOM      6  C   UNL     1       6.954   4.736  17.687  0.00  0.00    +0.000 C 
ATOM      7  O   UNL     1       7.499   4.550  18.772  0.00  0.00    +0.000 OA
ENDBRANCH   5   6
BRANCH   5   8
ATOM      8  C   UNL     1       4.839   5.400  16.500  0.00  0.00    +0.000 C 
BRANCH   8   9
ATOM      9  C   UNL     1       4.448   6.665  17.261  0.00  0.00    +0.000 C 
BRANCH   9  11
ATOM     10  C   UNL     1       2.541   7.759  18.119  0.00  0.00    +0.000 C 
ATOM     11  O   UNL     1       3.136   6.510  17.792  0.00  0.00    +0.000 OA
ENDBRANCH   9  11
ENDBRANCH   8   9
ENDBRANCH   5   8
ENDBRANCH   1   5
BRANCH   2  12
ATOM     12  O   UNL     1       3.451   3.058  20.053  0.00  0.00    +0.000 OA
BRANCH  12  13
ATOM     13  C   UNL     1       2.127   3.638  20.226  0.00  0.00    +0.000 C 
ATOM     14  C   UNL     1       1.346   3.649  18.903  0.00  0.00    +0.000 C 
ATOM     15  C   UNL     1       1.372   2.725  21.208  0.00  0.00    +0.000 C 
ATOM     16  C   UNL     1       2.219   5.034  20.862  0.00  0.00    +0.000 C 
ENDBRANCH  12  13
ENDBRANCH   2  12
TORSDOF 7
ENDMDL
MODEL 5
REMARK VINA RESULT:      -5.1      2.068      5.570
REMARK  Name = 
REMARK  11 active torsions:
REMARK  status: ('A' for Active; 'I' for Inactive)
REMARK    1  A    between atoms: C_1  and  O_2
REMARK    2  A    between atoms: O_2  and  C_3
REMARK    3  A    between atoms: C_3  and  C_4
REMARK    4  A    between atoms: C_4  and  CA_5
REMARK    5  A    between atoms: CA_5  and  C_6
REMARK    6  A    between atoms: CA_5  and  N_8
REMARK    7  A    between atoms: C_9  and  O_11
REMARK    8  A    between atoms: O_11  and  C_12
REMARK    9  A    between atoms: C_12  and  C_13
REMARK   10  A    between atoms: C_12  and  C_14
REMARK   11  A    between atoms: C_12  and  C_15
REMARK                            x       y       z     vdW  Elec       q    Type
REMARK                         _______ _______ _______ _____ _____    ______ ____
ROOT
ATOM      1  N   UNL     1       5.033   4.504  18.447  0.00  0.00    +0.000 N 
ATOM      2  C   UNL     1       4.064   3.551  18.358  0.00  0.00    +0.000 C 
ATOM      3  O   UNL     1       3.987   2.766  17.421  0.00  0.00    +0.000 OA
ATOM      4  H   UNL     1       5.046   5.123  19.248  0.00  0.00    +0.000 HD
ENDROOT
BRANCH   1   5
ATOM      5  CA  UNL     1       6.062   4.602  17.416  0.00  0.00    +0.000 C 
BRANCH   5   6
ATOM      6  C   UNL     1       7.420   4.677  18.084  0.00  0.00    +0.000 C 
ATOM      7  O   UNL     1       8.410   4.060  17.698  0.00  0.00    +0.000 OA
ENDBRANCH   5   6
BRANCH   5   8
ATOM      8  C   UNL     1       5.825   5.808  16.503  0.00  0.00    +0.000 C 
BRANCH   8   9
ATOM      9  C   UNL     1       6.067   7.147  17.198  0.00  0.00    +0.000 C 
BRANCH   9  11
ATOM     10  C   UNL     1       7.959   8.415  17.817  0.00  0.00    +0.000 C 
ATOM     11  O   UNL     1       7.324   7.672  16.784  0.00  0.00    +0.000 OA
ENDBRANCH   9  11
ENDBRANCH   8   9
ENDBRANCH   5   8
ENDBRANCH   1   5
BRANCH   2  12
ATOM     12  O   UNL     1       3.225   3.593  19.425  0.00  0.00    +0.000 OA
BRANCH  12  13
ATOM     13  C   UNL     1       2.022   4.404  19.316  0.00  0.00    +0.000 C 
ATOM     14  C   UNL     1       1.543   4.499  17.860  0.00  0.00    +0.000 C 
ATOM     15  C   UNL     1       0.930   3.680  20.122  0.00  0.00    +0.000 C 
ATOM     16  C   UNL     1       2.233   5.787  19.952  0.00  0.00    +0.000 C 
ENDBRANCH  12  13
ENDBRANCH   2  12
TORSDOF 7
ENDMDL
MODEL 6
REMARK VINA RESULT:      -5.0      1.887      4.842
REMARK  Name = 
REMARK  11 active torsions:
REMARK  status: ('A' for Active; 'I' for Inactive)
REMARK    1  A    between atoms: C_1  and  O_2
REMARK    2  A    between atoms: O_2  and  C_3
REMARK    3  A    between atoms: C_3  and  C_4
REMARK    4  A    between atoms: C_4  and  CA_5
REMARK    5  A    between atoms: CA_5  and  C_6
REMARK    6  A    between atoms: CA_5  and  N_8
REMARK    7  A    between atoms: C_9  and  O_11
REMARK    8  A    between atoms: O_11  and  C_12
REMARK    9  A    between atoms: C_12  and  C_13
REMARK   10  A    between atoms: C_12  and  C_14
REMARK   11  A    between atoms: C_12  and  C_15
REMARK                            x       y       z     vdW  Elec       q    Type
REMARK                         _______ _______ _______ _____ _____    ______ ____
ROOT
ATOM      1  N   UNL     1       5.088   5.433  19.023  0.00  0.00    +0.000 N 
ATOM      2  C   UNL     1       4.507   4.209  19.173  0.00  0.00    +0.000 C 
ATOM      3  O   UNL     1       4.926   3.201  18.617  0.00  0.00    +0.000 OA
ATOM      4  H   UNL     1       4.696   6.229  19.512  0.00  0.00    +0.000 HD
ENDROOT
BRANCH   1   5
ATOM      5  CA  UNL     1       6.281   5.581  18.196  0.00  0.00    +0.000 C 
BRANCH   5   6
ATOM      6  C   UNL     1       7.475   5.822  19.098  0.00  0.00    +0.000 C 
ATOM      7  O   UNL     1       7.585   5.360  20.231  0.00  0.00    +0.000 OA
ENDBRANCH   5   6
BRANCH   5   8
ATOM      8  C   UNL     1       6.118   6.712  17.177  0.00  0.00    +0.000 C 
BRANCH   8   9
ATOM      9  C   UNL     1       5.183   6.354  16.023  0.00  0.00    +0.000 C 
BRANCH   9  11
ATOM     10  C   UNL     1       5.710   4.531  14.619  0.00  0.00    +0.000 C 
ATOM     11  O   UNL     1       5.153   4.939  15.863  0.00  0.00    +0.000 OA
ENDBRANCH   9  11
ENDBRANCH   8   9
ENDBRANCH   5   8
ENDBRANCH   1   5
BRANCH   2  12
ATOM     12  O   UNL     1       3.437   4.266  20.006  0.00  0.00    +0.000 OA
BRANCH  12  13
ATOM     13  C   UNL     1       2.140   3.869  19.479  0.00  0.00    +0.000 C 
ATOM     14  C   UNL     1       1.922   4.421  18.062  0.00  0.00    +0.000 C 
ATOM     15  C   UNL     1       2.153   2.334  19.386  0.00  0.00    +0.000 C 
ATOM     16  C   UNL     1       1.010   4.269  20.441  0.00  0.00    +0.000 C 
ENDBRANCH  12  13
ENDBRANCH   2  12
TORSDOF 7
ENDMDL
MODEL 7
REMARK VINA RESULT:      -5.0      1.922      4.997
REMARK  Name = 
REMARK  11 active torsions:
REMARK  status: ('A' for Active; 'I' for Inactive)
REMARK    1  A    between atoms: C_1  and  O_2
REMARK    2  A    between atoms: O_2  and  C_3
REMARK    3  A    between atoms: C_3  and  C_4
REMARK    4  A    between atoms: C_4  and  CA_5
REMARK    5  A    between atoms: CA_5  and  C_6
REMARK    6  A    between atoms: CA_5  and  N_8
REMARK    7  A    between atoms: C_9  and  O_11
REMARK    8  A    between atoms: O_11  and  C_12
REMARK    9  A    between atoms: C_12  and  C_13
REMARK   10  A    between atoms: C_12  and  C_14
REMARK   11  A    between atoms: C_12  and  C_15
REMARK                            x       y       z     vdW  Elec       q    Type
REMARK                         _______ _______ _______ _____ _____    ______ ____
ROOT
ATOM      1  N   UNL     1       4.954   4.532  18.762  0.00  0.00    +0.000 N 
ATOM      2  C   UNL     1       4.402   3.540  19.515  0.00  0.00    +0.000 C 
ATOM      3  O   UNL     1       5.039   2.570  19.907  0.00  0.00    +0.000 OA
ATOM      4  H   UNL     1       4.375   5.311  18.470  0.00  0.00    +0.000 HD
ENDROOT
BRANCH   1   5
ATOM      5  CA  UNL     1       6.370   4.487  18.415  0.00  0.00    +0.000 C 
BRANCH   5   6
ATOM      6  C   UNL     1       7.095   5.580  19.175  0.00  0.00    +0.000 C 
ATOM      7  O   UNL     1       7.591   5.429  20.290  0.00  0.00    +0.000 OA
ENDBRANCH   5   6
BRANCH   5   8
ATOM      8  C   UNL     1       6.581   4.628  16.905  0.00  0.00    +0.000 C 
BRANCH   8   9
ATOM      9  C   UNL     1       6.193   6.003  16.367  0.00  0.00    +0.000 C 
BRANCH   9  11
ATOM     10  C   UNL     1       4.305   7.242  17.057  0.00  0.00    +0.000 C 
ATOM     11  O   UNL     1       4.773   6.112  16.331  0.00  0.00    +0.000 OA
ENDBRANCH   9  11
ENDBRANCH   8   9
ENDBRANCH   5   8
ENDBRANCH   1   5
BRANCH   2  12
ATOM     12  O   UNL     1       3.088   3.777  19.764  0.00  0.00    +0.000 OA
BRANCH  12  13
ATOM     13  C   UNL     1       2.115   3.333  18.777  0.00  0.00    +0.000 C 
ATOM     14  C   UNL     1       2.615   2.092  18.021  0.00  0.00    +0.000 C 
ATOM     15  C   UNL     1       0.852   2.928  19.557  0.00  0.00    +0.000 C 
ATOM     16  C   UNL     1       1.732   4.480  17.829  0.00  0.00    +0.000 C 
ENDBRANCH  12  13
ENDBRANCH   2  12
TORSDOF 7
ENDMDL
MODEL 8
REMARK VINA RESULT:      -5.0      1.925      5.424
REMARK  Name = 
REMARK  11 active torsions:
REMARK  status: ('A' for Active; 'I' for Inactive)
REMARK    1  A    between atoms: C_1  and  O_2
REMARK    2  A    between atoms: O_2  and  C_3
REMARK    3  A    between atoms: C_3  and  C_4
REMARK    4  A    between atoms: C_4  and  CA_5
REMARK    5  A    between atoms: CA_5  and  C_6
REMARK    6  A    between atoms: CA_5  and  N_8
REMARK    7  A    between atoms: C_9  and  O_11
REMARK    8  A    between atoms: O_11  and  C_12
REMARK    9  A    between atoms: C_12  and  C_13
REMARK   10  A    between atoms: C_12  and  C_14
REMARK   11  A    between atoms: C_12  and  C_15
REMARK                            x       y       z     vdW  Elec       q    Type
REMARK                         _______ _______ _______ _____ _____    ______ ____
ROOT
ATOM      1  N   UNL     1       4.456   3.898  17.638  0.00  0.00    +0.000 N 
ATOM      2  C   UNL     1       3.252   3.287  17.817  0.00  0.00    +0.000 C 
ATOM      3  O   UNL     1       2.387   3.255  16.951  0.00  0.00    +0.000 OA
ATOM      4  H   UNL     1       5.133   3.888  18.392  0.00  0.00    +0.000 HD
ENDROOT
BRANCH   1   5
ATOM      5  CA  UNL     1       4.777   4.524  16.360  0.00  0.00    +0.000 C 
BRANCH   5   6
ATOM      6  C   UNL     1       6.026   3.876  15.796  0.00  0.00    +0.000 C 
ATOM      7  O   UNL     1       6.206   3.655  14.601  0.00  0.00    +0.000 OA
ENDBRANCH   5   6
BRANCH   5   8
ATOM      8  C   UNL     1       4.956   6.037  16.508  0.00  0.00    +0.000 C 
BRANCH   8   9
ATOM      9  C   UNL     1       6.298   6.429  17.122  0.00  0.00    +0.000 C 
BRANCH   9  11
ATOM     10  C   UNL     1       7.667   5.748  18.920  0.00  0.00    +0.000 C 
ATOM     11  O   UNL     1       6.339   5.999  18.479  0.00  0.00    +0.000 OA
ENDBRANCH   9  11
ENDBRANCH   8   9
ENDBRANCH   5   8
ENDBRANCH   1   5
BRANCH   2  12
ATOM     12  O   UNL     1       3.155   2.732  19.053  0.00  0.00    +0.000 OA
BRANCH  12  13
ATOM     13  C   UNL     1       2.232   3.335  20.002  0.00  0.00    +0.000 C 
ATOM     14  C   UNL     1       0.777   2.964  19.677  0.00  0.00    +0.000 C 
ATOM     15  C   UNL     1       2.570   2.744  21.381  0.00  0.00    +0.000 C 
ATOM     16  C   UNL     1       2.442   4.856  20.081  0.00  0.00    +0.000 C 
ENDBRANCH  12  13
ENDBRANCH   2  12
TORSDOF 7
ENDMDL
MODEL 9
REMARK VINA RESULT:      -5.0      2.609      5.407
REMARK  Name = 
REMARK  11 active torsions:
REMARK  status: ('A' for Active; 'I' for Inactive)
REMARK    1  A    between atoms: C_1  and  O_2
REMARK    2  A    between atoms: O_2  and  C_3
REMARK    3  A    between atoms: C_3  and  C_4
REMARK    4  A    between atoms: C_4  and  CA_5
REMARK    5  A    between atoms: CA_5  and  C_6
REMARK    6  A    between atoms: CA_5  and  N_8
REMARK    7  A    between atoms: C_9  and  O_11
REMARK    8  A    between atoms: O_11  and  C_12
REMARK    9  A    between atoms: C_12  and  C_13
REMARK   10  A    between atoms: C_12  and  C_14
REMARK   11  A    between atoms: C_12  and  C_15
REMARK                            x       y       z     vdW  Elec       q    Type
REMARK                         _______ _______ _______ _____ _____    ______ ____
ROOT
ATOM      1  N   UNL     1       4.577   5.234  17.916  0.00  0.00    +0.000 N 
ATOM      2  C   UNL     1       4.510   4.398  18.989  0.00  0.00    +0.000 C 
ATOM      3  O   UNL     1       5.366   3.555  19.230  0.00  0.00    +0.000 OA
ATOM      4  H   UNL     1       3.840   5.913  17.771  0.00  0.00    +0.000 HD
ENDROOT
BRANCH   1   5
ATOM      5  CA  UNL     1       5.720   5.174  17.010  0.00  0.00    +0.000 C 
BRANCH   5   6
ATOM      6  C   UNL     1       6.403   6.527  16.992  0.00  0.00    +0.000 C 
ATOM      7  O   UNL     1       7.556   6.709  16.609  0.00  0.00    +0.000 OA
ENDBRANCH   5   6
BRANCH   5   8
ATOM      8  C   UNL     1       5.296   4.748  15.602  0.00  0.00    +0.000 C 
BRANCH   8   9
ATOM      9  C   UNL     1       6.318   3.850  14.910  0.00  0.00    +0.000 C 
BRANCH   9  11
ATOM     10  C   UNL     1       6.318   3.574  12.566  0.00  0.00    +0.000 C 
ATOM     11  O   UNL     1       6.672   4.419  13.653  0.00  0.00    +0.000 OA
ENDBRANCH   9  11
ENDBRANCH   8   9
ENDBRANCH   5   8
ENDBRANCH   1   5
BRANCH   2  12
ATOM     12  O   UNL     1       3.397   4.630  19.731  0.00  0.00    +0.000 OA
BRANCH  12  13
ATOM     13  C   UNL     1       2.194   3.875  19.413  0.00  0.00    +0.000 C 
ATOM     14  C   UNL     1       2.424   2.365  19.581  0.00  0.00    +0.000 C 
ATOM     15  C   UNL     1       1.125   4.302  20.433  0.00  0.00    +0.000 C 
ATOM     16  C   UNL     1       1.675   4.234  18.012  0.00  0.00    +0.000 C 
ENDBRANCH  12  13
ENDBRANCH   2  12
TORSDOF 7
ENDMDL
