MODEL 1
REMARK VINA RESULT:      -7.0      0.000      0.000
REMARK  Name = 
REMARK  6 active torsions:
REMARK  status: ('A' for Active; 'I' for Inactive)
REMARK    1  A    between atoms: C_1  and  N_2
REMARK    2  A    between atoms: N_2  and  C_3
REMARK    3  A    between atoms: N_2  and  S_4
REMARK    4  A    between atoms: S_4  and  C_7
REMARK    5  A    between atoms: C_11  and  C_12
REMARK    6  A    between atoms: C_12  and  N_13
REMARK                            x       y       z     vdW  Elec       q    Type
REMARK                         _______ _______ _______ _____ _____    ______ ____
ROOT
ATOM      1  C   UNL     1       3.510   4.640  17.681  0.00  0.00    +0.000 A 
ATOM      2  C   UNL     1       3.211   6.001  17.759  0.00  0.00    +0.000 A 
ATOM      3  C   UNL     1       4.188   6.931  17.409  0.00  0.00    +0.000 A 
ATOM      4  C   UNL     1       5.449   6.503  16.977  0.00  0.00    +0.000 A 
ATOM      5  C   UNL     1       5.755   5.135  16.913  0.00  0.00    +0.000 A 
ATOM      6  C   UNL     1       4.782   4.207  17.300  0.00  0.00    +0.000 A 
ENDROOT
BRANCH   1   7
ATOM      7  S   UNL     1       2.260   3.422  18.032  0.00  0.00    +0.000 S 
ATOM      8  O   UNL     1       2.780   2.128  17.634  0.00  0.00    +0.000 OA
ATOM      9  O   UNL     1       1.010   3.919  17.494  0.00  0.00    +0.000 OA
BRANCH   7  11
ATOM     10  C   UNL     1       0.820   3.314  20.315  0.00  0.00    +0.000 C 
ATOM     11  N   UNL     1       2.166   3.466  19.736  0.00  0.00    +0.000 NA
ATOM     12  C   UNL     1       3.196   2.701  20.470  0.00  0.00    +0.000 C 
ENDBRANCH   7  11
ENDBRANCH   1   7
BRANCH   5  13
ATOM     13  C   UNL     1       7.069   4.649  16.350  0.00  0.00    +0.000 C 
BRANCH  13  14
ATOM     14  N   UNL     1       7.018   4.603  14.893  0.00  0.00    +0.000 N 
ATOM     15  C   UNL     1       6.231   3.786  14.129  0.00  0.00    +0.000 A 
ATOM     16  C   UNL     1       6.570   4.039  12.821  0.00  0.00    +0.000 A 
ATOM     17  C   UNL     1       7.539   5.056  12.895  0.00  0.00    +0.000 A 
ATOM     18  N   UNL     1       7.816   5.406  14.154  0.00  0.00    +0.000 NA
ENDBRANCH  13  14
ENDBRANCH   5  13
TORSDOF 4
ENDMDL
MODEL 2
REMARK VINA RESULT:      -7.0      2.565      6.377
REMARK  Name = 
REMARK  6 active torsions:
REMARK  status: ('A' for Active; 'I' for Inactive)
REMARK    1  A    between atoms: C_1  and  N_2
REMARK    2  A    between atoms: N_2  and  C_3
REMARK    3  A    between atoms: N_2  and  S_4
REMARK    4  A    between atoms: S_4  and  C_7
REMARK    5  A    between atoms: C_11  and  C_12
REMARK    6  A    between atoms: C_12  and  N_13
REMARK                            x       y       z     vdW  Elec       q    Type
REMARK                         _______ _______ _______ _____ _____    ______ ____
ROOT
ATOM      1  C   UNL     1       5.389   5.368  16.770  0.00  0.00    +0.000 A 
ATOM      2  C   UNL     1       4.796   6.578  17.133  0.00  0.00    +0.000 A 
ATOM      3  C   UNL     1       3.531   6.565  17.717  0.00  0.00    +0.000 A 
ATOM      4  C   UNL     1       2.870   5.351  17.944  0.00  0.00    +0.000 A 
ATOM      5  C   UNL     1       3.459   4.136  17.565  0.00  0.00    +0.000 A 
ATOM      6  C   UNL     1       4.714   4.158  16.946  0.00  0.00    +0.000 A 
ENDROOT
BRANCH   1   7
ATOM      7  S   UNL     1       7.041   5.338  16.106  0.00  0.00    +0.000 S 
ATOM      8  O   UNL     1       7.705   4.159  16.628  0.00  0.00    +0.000 OA
ATOM      9  O   UNL     1       7.607   6.657  16.298  0.00  0.00    +0.000 OA
BRANCH   7  11
ATOM     10  C   UNL     1       7.878   5.470  13.541  0.00  0.00    +0.000 C 
ATOM     11  N   UNL     1       6.765   5.109  14.436  0.00  0.00    +0.000 NA
ATOM     12  C   UNL     1       6.103   3.846  14.048  0.00  0.00    +0.000 C 
ENDBRANCH   7  11
ENDBRANCH   1   7
BRANCH   5  13
ATOM     13  C   UNL     1       2.813   2.812  17.895  0.00  0.00    +0.000 C 
BRANCH  13  14
ATOM     14  N   UNL     1       2.423   2.767  19.300  0.00  0.00    +0.000 N 
ATOM     15  C   UNL     1       1.149   2.815  19.795  0.00  0.00    +0.000 A 
ATOM     16  C   UNL     1       1.268   2.817  21.164  0.00  0.00    +0.000 A 
ATOM     17  C   UNL     1       2.652   2.724  21.401  0.00  0.00    +0.000 A 
ATOM     18  N   UNL     1       3.362   2.692  20.269  0.00  0.00    +0.000 NA
ENDBRANCH  13  14
ENDBRANCH   5  13
TORSDOF 4
ENDMDL
MODEL 3
REMARK VINA RESULT:      -6.9      3.287      6.212
REMARK  Name = 
REMARK  6 active torsions:
REMARK  status: ('A' for Active; 'I' for Inactive)
REMARK    1  A    between atoms: C_1  and  N_2
REMARK    2  A    between atoms: N_2  and  C_3
REMARK    3  A    between atoms: N_2  and  S_4
REMARK    4  A    between atoms: S_4  and  C_7
REMARK    5  A    between atoms: C_11  and  C_12
REMARK    6  A    between atoms: C_12  and  N_13
REMARK                            x       y       z     vdW  Elec       q    Type
REMARK                         _______ _______ _______ _____ _____    ______ ____
ROOT
ATOM      1  C   UNL     1       5.509   5.297  17.063  0.00  0.00    +0.000 A 
ATOM      2  C   UNL     1       4.792   6.485  17.213  0.00  0.00    +0.000 A 
ATOM      3  C   UNL     1       3.458   6.425  17.611  0.00  0.00    +0.000 A 
ATOM      4  C   UNL     1       2.850   5.189  17.864  0.00  0.00    +0.000 A 
ATOM      5  C   UNL     1       3.567   3.995  17.698  0.00  0.00    +0.000 A 
ATOM      6  C   UNL     1       4.895   4.059  17.263  0.00  0.00    +0.000 A 
ENDROOT
BRANCH   1   7
ATOM      7  S   UNL     1       7.240   5.337  16.645  0.00  0.00    +0.000 S 
ATOM      8  O   UNL     1       7.369   5.998  15.360  0.00  0.00    +0.000 OA
ATOM      9  O   UNL     1       7.765   4.003  16.851  0.00  0.00    +0.000 OA
BRANCH   7  11
ATOM     10  C   UNL     1       7.700   7.807  17.638  0.00  0.00    +0.000 C 
ATOM     11  N   UNL     1       7.888   6.361  17.847  0.00  0.00    +0.000 NA
ATOM     12  C   UNL     1       7.664   5.950  19.250  0.00  0.00    +0.000 C 
ENDBRANCH   7  11
ENDBRANCH   1   7
BRANCH   5  13
ATOM     13  C   UNL     1       2.966   2.659  18.066  0.00  0.00    +0.000 C 
BRANCH  13  14
ATOM     14  N   UNL     1       2.496   2.671  19.447  0.00  0.00    +0.000 N 
ATOM     15  C   UNL     1       1.195   2.724  19.866  0.00  0.00    +0.000 A 
ATOM     16  C   UNL     1       1.236   2.788  21.239  0.00  0.00    +0.000 A 
ATOM     17  C   UNL     1       2.605   2.724  21.558  0.00  0.00    +0.000 A 
ATOM     18  N   UNL     1       3.379   2.651  20.471  0.00  0.00    +0.000 NA
ENDBRANCH  13  14
ENDBRANCH   5  13
TORSDOF 4
ENDMDL
MODEL 4
REMARK VINA RESULT:      -6.8      1.146      1.354
REMARK  Name = 
REMARK  6 active torsions:
REMARK  status: ('A' for Active; 'I' for Inactive)
REMARK    1  A    between atoms: C_1  and  N_2
REMARK    2  A    between atoms: N_2  and  C_3
REMARK    3  A    between atoms: N_2  and  S_4
REMARK    4  A    between atoms: S_4  and  C_7
REMARK    5  A    between atoms: C_11  and  C_12
REMARK    6  A    between atoms: C_12  and  N_13
REMARK                            x       y       z     vdW  Elec       q    Type
REMARK                         _______ _______ _______ _____ _____    ______ ____
ROOT
ATOM      1  C   UNL     1       4.088   4.191  18.517  0.00  0.00    +0.000 A 
ATOM      2  C   UNL     1       3.221   5.285  18.484  0.00  0.00    +0.000 A 
ATOM      3  C   UNL     1       3.634   6.458  17.857  0.00  0.00    +0.000 A 
ATOM      4  C   UNL     1       4.898   6.533  17.260  0.00  0.00    +0.000 A 
ATOM      5  C   UNL     1       5.776   5.440  17.307  0.00  0.00    +0.000 A 
ATOM      6  C   UNL     1       5.370   4.276  17.970  0.00  0.00    +0.000 A 
ENDROOT
BRANCH   1   7
ATOM      7  S   UNL     1       3.562   2.646  19.229  0.00  0.00    +0.000 S 
ATOM      8  O   UNL     1       4.584   2.221  20.166  0.00  0.00    +0.000 OA
ATOM      9  O   UNL     1       3.148   1.787  18.139  0.00  0.00    +0.000 OA
BRANCH   7  11
ATOM     10  C   UNL     1       0.886   2.597  19.599  0.00  0.00    +0.000 C 
ATOM     11  N   UNL     1       2.173   3.098  20.113  0.00  0.00    +0.000 NA
ATOM     12  C   UNL     1       2.275   3.012  21.585  0.00  0.00    +0.000 C 
ENDBRANCH   7  11
ENDBRANCH   1   7
BRANCH   5  13
ATOM     13  C   UNL     1       7.099   5.462  16.580  0.00  0.00    +0.000 C 
BRANCH  13  14
ATOM     14  N   UNL     1       6.941   4.989  15.210  0.00  0.00    +0.000 N 
ATOM     15  C   UNL     1       6.071   4.027  14.774  0.00  0.00    +0.000 A 
ATOM     16  C   UNL     1       6.322   3.861  13.433  0.00  0.00    +0.000 A 
ATOM     17  C   UNL     1       7.332   4.797  13.141  0.00  0.00    +0.000 A 
ATOM     18  N   UNL     1       7.713   5.488  14.219  0.00  0.00    +0.000 NA
ENDBRANCH  13  14
ENDBRANCH   5  13
TORSDOF 4
ENDMDL
MODEL 5
REMARK VINA RESULT:      -6.8      1.529      1.874
REMARK  Name = 
REMARK  6 active torsions:
REMARK  status: ('A' for Active; 'I' for Inactive)
REMARK    1  A    between atoms: C_1  and  N_2
REMARK    2  A    between atoms: N_2  and  C_3
REMARK    3  A    between atoms: N_2  and  S_4
REMARK    4  A    between atoms: S_4  and  C_7
REMARK    5  A    between atoms: C_11  and  C_12
REMARK    6  A    between atoms: C_12  and  N_13
REMARK                            x       y       z     vdW  Elec       q    Type
REMARK                         _______ _______ _______ _____ _____    ______ ____
ROOT
ATOM      1  C   UNL     1       3.979   4.969  18.792  0.00  0.00    +0.000 A 
ATOM      2  C   UNL     1       3.357   6.168  18.439  0.00  0.00    +0.000 A 
ATOM      3  C   UNL     1       4.002   7.031  17.557  0.00  0.00    +0.000 A 
ATOM      4  C   UNL     1       5.253   6.695  17.026  0.00  0.00    +0.000 A 
ATOM      5  C   UNL     1       5.885   5.498  17.392  0.00  0.00    +0.000 A 
ATOM      6  C   UNL     1       5.249   4.651  18.306  0.00  0.00    +0.000 A 
ENDROOT
BRANCH   1   7
ATOM      7  S   UNL     1       3.147   3.798  19.845  0.00  0.00    +0.000 S 
ATOM      8  O   UNL     1       2.477   4.545  20.892  0.00  0.00    +0.000 OA
ATOM      9  O   UNL     1       4.098   2.755  20.167  0.00  0.00    +0.000 OA
BRANCH   7  11
ATOM     10  C   UNL     1       2.452   2.229  17.758  0.00  0.00    +0.000 C 
ATOM     11  N   UNL     1       1.962   3.142  18.806  0.00  0.00    +0.000 NA
ATOM     12  C   UNL     1       0.719   2.664  19.447  0.00  0.00    +0.000 C 
ENDBRANCH   7  11
ENDBRANCH   1   7
BRANCH   5  13
ATOM     13  C   UNL     1       7.183   5.065  16.751  0.00  0.00    +0.000 C 
BRANCH  13  14
ATOM     14  N   UNL     1       6.985   4.777  15.336  0.00  0.00    +0.000 N 
ATOM     15  C   UNL     1       6.115   3.866  14.802  0.00  0.00    +0.000 A 
ATOM     16  C   UNL     1       6.324   3.885  13.444  0.00  0.00    +0.000 A 
ATOM     17  C   UNL     1       7.309   4.870  13.249  0.00  0.00    +0.000 A 
ATOM     18  N   UNL     1       7.716   5.419  14.397  0.00  0.00    +0.000 NA
ENDBRANCH  13  14
ENDBRANCH   5  13
TORSDOF 4
ENDMDL
MODEL 6
REMARK VINA RESULT:      -6.8      3.302      6.322
REMARK  Name = 
REMARK  6 active torsions:
REMARK  status: ('A' for Active; 'I' for Inactive)
REMARK    1  A    between atoms: C_1  and  N_2
REMARK    2  A    between atoms: N_2  and  C_3
REMARK    3  A    between atoms: N_2  and  S_4
REMARK    4  A    between atoms: S_4  and  C_7
REMARK    5  A    between atoms: C_11  and  C_12
REMARK    6  A    between atoms: C_12  and  N_13
REMARK                            x       y       z     vdW  Elec       q    Type
REMARK                         _______ _______ _______ _____ _____    ______ ____
ROOT
ATOM      1  C   UNL     1       4.794   5.697  17.298  0.00  0.00    +0.000 A 
ATOM      2  C   UNL     1       4.190   6.946  17.456  0.00  0.00    +0.000 A 
ATOM      3  C   UNL     1       2.845   7.007  17.814  0.00  0.00    +0.000 A 
ATOM      4  C   UNL     1       2.114   5.831  18.020  0.00  0.00    +0.000 A 
ATOM      5  C   UNL     1       2.716   4.577  17.846  0.00  0.00    +0.000 A 
ATOM      6  C   UNL     1       4.057   4.521  17.451  0.00  0.00    +0.000 A 
ENDROOT
BRANCH   1   7
ATOM      7  S   UNL     1       6.532   5.578  16.930  0.00  0.00    +0.000 S 
ATOM      8  O   UNL     1       6.743   6.134  15.607  0.00  0.00    +0.000 OA
ATOM      9  O   UNL     1       6.948   4.226  17.244  0.00  0.00    +0.000 OA
BRANCH   7  11
ATOM     10  C   UNL     1       8.040   6.000  19.132  0.00  0.00    +0.000 C 
ATOM     11  N   UNL     1       7.228   6.633  18.078  0.00  0.00    +0.000 NA
ATOM     12  C   UNL     1       7.840   7.869  17.546  0.00  0.00    +0.000 C 
ENDBRANCH   7  11
ENDBRANCH   1   7
BRANCH   5  13
ATOM     13  C   UNL     1       1.978   3.299  18.165  0.00  0.00    +0.000 C 
BRANCH  13  14
ATOM     14  N   UNL     1       2.001   3.037  19.600  0.00  0.00    +0.000 N 
ATOM     15  C   UNL     1       3.087   2.662  20.343  0.00  0.00    +0.000 A 
ATOM     16  C   UNL     1       2.625   2.459  21.622  0.00  0.00    +0.000 A 
ATOM     17  C   UNL     1       1.256   2.778  21.561  0.00  0.00    +0.000 A 
ATOM     18  N   UNL     1       0.869   3.132  20.332  0.00  0.00    +0.000 NA
ENDBRANCH  13  14
ENDBRANCH   5  13
TORSDOF 4
ENDMDL
MODEL 7
REMARK VINA RESULT:      -6.7      1.880      2.267
REMARK  Name = 
REMARK  6 active torsions:
REMARK  status: ('A' for Active; 'I' for Inactive)
REMARK    1  A    between atoms: C_1  and  N_2
REMARK    2  A    between atoms: N_2  and  C_3
REMARK    3  A    between atoms: N_2  and  S_4
REMARK    4  A    between atoms: S_4  and  C_7
REMARK    5  A    between atoms: C_11  and  C_12
REMARK    6  A    between atoms: C_12  and  N_13
REMARK                            x       y       z     vdW  Elec       q    Type
REMARK                         _______ _______ _______ _____ _____    ______ ____
ROOT
ATOM      1  C   UNL     1       3.494   4.651  19.189  0.00  0.00    +0.000 A 
ATOM      2  C   UNL     1       2.379   5.484  19.086  0.00  0.00    +0.000 A 
ATOM      3  C   UNL     1       2.488   6.675  18.372  0.00  0.00    +0.000 A 
ATOM      4  C   UNL     1       3.698   7.024  17.759  0.00  0.00    +0.000 A 
ATOM      5  C   UNL     1       4.823   6.194  17.876  0.00  0.00    +0.000 A 
ATOM      6  C   UNL     1       4.718   5.017  18.625  0.00  0.00    +0.000 A 
ENDROOT
BRANCH   1   7
ATOM      7  S   UNL     1       3.369   3.078  20.016  0.00  0.00    +0.000 S 
ATOM      8  O   UNL     1       2.625   3.283  21.244  0.00  0.00    +0.000 OA
ATOM      9  O   UNL     1       4.695   2.495  20.038  0.00  0.00    +0.000 OA
BRANCH   7  11
ATOM     10  C   UNL     1       0.944   2.342  19.081  0.00  0.00    +0.000 C 
ATOM     11  N   UNL     1       2.401   2.170  18.942  0.00  0.00    +0.000 NA
ATOM     12  C   UNL     1       2.843   2.133  17.532  0.00  0.00    +0.000 C 
ENDBRANCH   7  11
ENDBRANCH   1   7
BRANCH   5  13
ATOM     13  C   UNL     1       6.104   6.497  17.137  0.00  0.00    +0.000 C 
BRANCH  13  14
ATOM     14  N   UNL     1       6.224   5.657  15.951  0.00  0.00    +0.000 N 
ATOM     15  C   UNL     1       5.218   4.962  15.338  0.00  0.00    +0.000 A 
ATOM     16  C   UNL     1       5.805   4.260  14.313  0.00  0.00    +0.000 A 
ATOM     17  C   UNL     1       7.162   4.629  14.360  0.00  0.00    +0.000 A 
ATOM     18  N   UNL     1       7.424   5.481  15.355  0.00  0.00    +0.000 NA
ENDBRANCH  13  14
ENDBRANCH   5  13
TORSDOF 4
ENDMDL
MODEL 8
REMARK VINA RESULT:      -6.7      2.072      3.003
REMARK  Name = 
REMARK  6 active torsions:
REMARK  status: ('A' for Active; 'I' for Inactive)
REMARK    1  A    between atoms: C_1  and  N_2
REMARK    2  A    between atoms: N_2  and  C_3
REMARK    3  A    between atoms: N_2  and  S_4
REMARK    4  A    between atoms: S_4  and  C_7
REMARK    5  A    between atoms: C_11  and  C_12
REMARK    6  A    between atoms: C_12  and  N_13
REMARK                            x       y       z     vdW  Elec       q    Type
REMARK                         _______ _______ _______ _____ _____    ______ ____
ROOT
ATOM      1  C   UNL     1       2.792   4.132  18.248  0.00  0.00    +0.000 A 
ATOM      2  C   UNL     1       2.033   5.245  18.617  0.00  0.00    +0.000 A 
ATOM      3  C   UNL     1       2.512   6.518  18.319  0.00  0.00    +0.000 A 
ATOM      4  C   UNL     1       3.733   6.677  17.652  0.00  0.00    +0.000 A 
ATOM      5  C   UNL     1       4.502   5.560  17.296  0.00  0.00    +0.000 A 
ATOM      6  C   UNL     1       4.034   4.284  17.629  0.00  0.00    +0.000 A 
ENDROOT
BRANCH   1   7
ATOM      7  S   UNL     1       2.171   2.486  18.530  0.00  0.00    +0.000 S 
ATOM      8  O   UNL     1       3.024   1.563  17.807  0.00  0.00    +0.000 OA
ATOM      9  O   UNL     1       0.742   2.518  18.296  0.00  0.00    +0.000 OA
BRANCH   7  11
ATOM     10  C   UNL     1       3.817   2.478  20.672  0.00  0.00    +0.000 C 
ATOM     11  N   UNL     1       2.436   2.271  20.203  0.00  0.00    +0.000 NA
ATOM     12  C   UNL     1       1.428   2.862  21.108  0.00  0.00    +0.000 C 
ENDBRANCH   7  11
ENDBRANCH   1   7
BRANCH   5  13
ATOM     13  C   UNL     1       5.767   5.702  16.484  0.00  0.00    +0.000 C 
BRANCH  13  14
ATOM     14  N   UNL     1       6.769   6.463  17.221  0.00  0.00    +0.000 N 
ATOM     15  C   UNL     1       7.470   6.042  18.317  0.00  0.00    +0.000 A 
ATOM     16  C   UNL     1       8.239   7.109  18.715  0.00  0.00    +0.000 A 
ATOM     17  C   UNL     1       7.966   8.116  17.771  0.00  0.00    +0.000 A 
ATOM     18  N   UNL     1       7.072   7.729  16.857  0.00  0.00    +0.000 NA
ENDBRANCH  13  14
ENDBRANCH   5  13
TORSDOF 4
ENDMDL
MODEL 9
REMARK VINA RESULT:      -6.7      2.735      6.226
REMARK  Name = 
REMARK  6 active torsions:
REMARK  status: ('A' for Active; 'I' for Inactive)
REMARK    1  A    between atoms: C_1  and  N_2
REMARK    2  A    between atoms: N_2  and  C_3
REMARK    3  A    between atoms: N_2  and  S_4
REMARK    4  A    between atoms: S_4  and  C_7
REMARK    5  A    between atoms: C_11  and  C_12
REMARK    6  A    between atoms: C_12  and  N_13
REMARK                            x       y       z     vdW  Elec       q    Type
REMARK                         _______ _______ _______ _____ _____    ______ ____
ROOT
ATOM      1  C   UNL     1       4.288   6.243  17.153  0.00  0.00    +0.000 A 
ATOM      2  C   UNL     1       3.720   7.403  17.680  0.00  0.00    +0.000 A 
ATOM      3  C   UNL     1       2.511   7.314  18.366  0.00  0.00    +0.000 A 
ATOM      4  C   UNL     1       1.881   6.074  18.530  0.00  0.00    +0.000 A 
ATOM      5  C   UNL     1       2.444   4.910  17.987  0.00  0.00    +0.000 A 
ATOM      6  C   UNL     1       3.640   5.011  17.268  0.00  0.00    +0.000 A 
ENDROOT
BRANCH   1   7
ATOM      7  S   UNL     1       5.876   6.303  16.349  0.00  0.00    +0.000 S 
ATOM      8  O   UNL     1       6.702   7.251  17.073  0.00  0.00    +0.000 OA
ATOM      9  O   UNL     1       5.636   6.458  14.929  0.00  0.00    +0.000 OA
BRANCH   7  11
ATOM     10  C   UNL     1       6.704   3.903  15.423  0.00  0.00    +0.000 C 
ATOM     11  N   UNL     1       6.490   4.733  16.622  0.00  0.00    +0.000 NA
ATOM     12  C   UNL     1       7.591   4.620  17.602  0.00  0.00    +0.000 C 
ENDBRANCH   7  11
ENDBRANCH   1   7
BRANCH   5  13
ATOM     13  C   UNL     1       1.838   3.550  18.242  0.00  0.00    +0.000 C 
BRANCH  13  14
ATOM     14  N   UNL     1       1.958   3.191  19.650  0.00  0.00    +0.000 N 
ATOM     15  C   UNL     1       3.108   2.861  20.313  0.00  0.00    +0.000 A 
ATOM     16  C   UNL     1       2.732   2.528  21.593  0.00  0.00    +0.000 A 
ATOM     17  C   UNL     1       1.339   2.729  21.618  0.00  0.00    +0.000 A 
ATOM     18  N   UNL     1       0.861   3.134  20.438  0.00  0.00    +0.000 NA
ENDBRANCH  13  14
ENDBRANCH   5  13
TORSDOF 4
ENDMDL
