MODEL 1
REMARK VINA RESULT:      -6.1      0.000      0.000
REMARK  Name = 
REMARK  14 active torsions:
REMARK  status: ('A' for Active; 'I' for Inactive)
REMARK    1  A    between atoms: C_1  and  C_2
REMARK    2  A    between atoms: C_2  and  C_3
REMARK    3  A    between atoms: C_4  and  C_5
REMARK    4  A    between atoms: C_5  and  C_6
REMARK    5  A    between atoms: C_6  and  C_7
REMARK    6  A    between atoms: C_7  and  C_8
REMARK    7  A    between atoms: C_9  and  C_10
REMARK    8  A    between atoms: C_10  and  C_11
REMARK    9  A    between atoms: C_12  and  C_13
REMARK   10  A    between atoms: C_16  and  C_17
REMARK   11  A    between atoms: C_19  and  C_20
REMARK   12  A    between atoms: C_23  and  N_24
REMARK   13  A    between atoms: N_24  and  C_25
REMARK   14  A    between atoms: N_24  and  C_26
REMARK                            x       y       z     vdW  Elec       q    Type
REMARK                         _______ _______ _______ _____ _____    ______ ____
ROOT
ATOM      1  C   UNL     1      -0.499  10.186  19.313  0.00  0.00    +0.000 C 
ATOM      2  C   UNL     1       0.822   9.441  19.079  0.00  0.00    +0.000 C 
ATOM      3  C   UNL     1       1.279   9.196  17.664  0.00  0.00    +0.000 C 
ATOM      4  C   UNL     1       1.567   8.976  20.097  0.00  0.00    +0.000 C 
ATOM      5  C   UNL     1       1.135   9.045  21.464  0.00  0.00    +0.000 C 
ATOM      6  C   UNL     1      -0.009   9.648  21.817  0.00  0.00    +0.000 C 
ATOM      7  C   UNL     1      -0.894  10.414  20.850  0.00  0.00    +0.000 C 
ENDROOT
BRANCH   7   8
ATOM      8  C   UNL     1      -1.041  11.879  21.279  0.00  0.00    +0.000 A 
ATOM      9  C   UNL     1      -2.292  12.439  21.570  0.00  0.00    +0.000 A 
ATOM     10  C   UNL     1      -2.399  13.708  22.146  0.00  0.00    +0.000 A 
ATOM     11  C   UNL     1      -1.271  14.475  22.469  0.00  0.00    +0.000 A 
ATOM     12  C   UNL     1      -0.028  13.941  22.084  0.00  0.00    +0.000 A 
ATOM     13  C   UNL     1       0.089  12.679  21.486  0.00  0.00    +0.000 A 
BRANCH  11  14
ATOM     14  N   UNL     1      -1.386  15.668  23.170  0.00  0.00    +0.000 N 
ATOM     15  C   UNL     1      -2.623  16.035  23.840  0.00  0.00    +0.000 C 
ATOM     16  C   UNL     1      -0.306  16.639  23.220  0.00  0.00    +0.000 C 
ENDBRANCH  11  14
ENDBRANCH   7   8
BRANCH   6  17
ATOM     17  C   UNL     1      -0.404   9.616  23.252  0.00  0.00    +0.000 C 
ATOM     18  O   UNL     1       0.400   9.605  24.177  0.00  0.00    +0.000 OA
ENDBRANCH   6  17
BRANCH   1  19
ATOM     19  C   UNL     1      -0.598  11.444  18.401  0.00  0.00    +0.000 C 
BRANCH  19  22
ATOM     20  C   UNL     1      -2.810  11.083  17.160  0.00  0.00    +0.000 C 
ATOM     21  C   UNL     1      -2.353   9.797  16.532  0.00  0.00    +0.000 C 
ATOM     22  C   UNL     1      -2.003  11.788  17.973  0.00  0.00    +0.000 C 
BRANCH  20  23
ATOM     23  C   UNL     1      -4.225  11.608  16.956  0.00  0.00    +0.000 C 
BRANCH  23  24
ATOM     24  C   UNL     1      -5.277  11.125  17.955  0.00  0.00    +0.000 C 
BRANCH  24  28
ATOM     25  C   UNL     1      -6.175  12.712  21.399  0.00  0.00    +0.000 C 
ATOM     26  C   UNL     1      -6.191  11.771  20.227  0.00  0.00    +0.000 C 
ATOM     27  C   UNL     1      -7.226  10.681  20.229  0.00  0.00    +0.000 C 
ATOM     28  C   UNL     1      -5.297  11.922  19.229  0.00  0.00    +0.000 C 
ENDBRANCH  24  28
ENDBRANCH  23  24
ENDBRANCH  20  23
ENDBRANCH  19  22
ENDBRANCH   1  19
TORSDOF 8
ENDMDL
MODEL 2
REMARK VINA RESULT:      -6.0      2.919      6.165
REMARK  Name = 
REMARK  14 active torsions:
REMARK  status: ('A' for Active; 'I' for Inactive)
REMARK    1  A    between atoms: C_1  and  C_2
REMARK    2  A    between atoms: C_2  and  C_3
REMARK    3  A    between atoms: C_4  and  C_5
REMARK    4  A    between atoms: C_5  and  C_6
REMARK    5  A    between atoms: C_6  and  C_7
REMARK    6  A    between atoms: C_7  and  C_8
REMARK    7  A    between atoms: C_9  and  C_10
REMARK    8  A    between atoms: C_10  and  C_11
REMARK    9  A    between atoms: C_12  and  C_13
REMARK   10  A    between atoms: C_16  and  C_17
REMARK   11  A    between atoms: C_19  and  C_20
REMARK   12  A    between atoms: C_23  and  N_24
REMARK   13  A    between atoms: N_24  and  C_25
REMARK   14  A    between atoms: N_24  and  C_26
REMARK                            x       y       z     vdW  Elec       q    Type
REMARK                         _______ _______ _______ _____ _____    ______ ____
ROOT
ATOM      1  C   UNL     1       0.929  12.545  20.508  0.00  0.00    +0.000 C 
ATOM      2  C   UNL     1       1.543  13.347  19.353  0.00  0.00    +0.000 C 
ATOM      3  C   UNL     1       2.242  12.606  18.242  0.00  0.00    +0.000 C 
ATOM      4  C   UNL     1       1.501  14.690  19.318  0.00  0.00    +0.000 C 
ATOM      5  C   UNL     1       0.980  15.475  20.401  0.00  0.00    +0.000 C 
ATOM      6  C   UNL     1       0.432  14.911  21.486  0.00  0.00    +0.000 C 
ATOM      7  C   UNL     1       0.194  13.418  21.634  0.00  0.00    +0.000 C 
ENDROOT
BRANCH   7   8
ATOM      8  C   UNL     1      -1.296  13.113  21.831  0.00  0.00    +0.000 A 
ATOM      9  C   UNL     1      -1.775  12.507  22.999  0.00  0.00    +0.000 A 
ATOM     10  C   UNL     1      -3.146  12.412  23.254  0.00  0.00    +0.000 A 
ATOM     11  C   UNL     1      -4.104  12.923  22.367  0.00  0.00    +0.000 A 
ATOM     12  C   UNL     1      -3.612  13.442  21.156  0.00  0.00    +0.000 A 
ATOM     13  C   UNL     1      -2.240  13.521  20.881  0.00  0.00    +0.000 A 
BRANCH  11  14
ATOM     14  N   UNL     1      -5.452  12.951  22.698  0.00  0.00    +0.000 N 
ATOM     15  C   UNL     1      -6.460  13.347  21.728  0.00  0.00    +0.000 C 
ATOM     16  C   UNL     1      -5.921  12.650  24.040  0.00  0.00    +0.000 C 
ENDBRANCH  11  14
ENDBRANCH   7   8
BRANCH   6  17
ATOM     17  C   UNL     1      -0.027  15.804  22.585  0.00  0.00    +0.000 C 
ATOM     18  O   UNL     1       0.247  15.624  23.766  0.00  0.00    +0.000 OA
ENDBRANCH   6  17
BRANCH   1  19
ATOM     19  C   UNL     1       0.125  11.324  19.973  0.00  0.00    +0.000 C 
BRANCH  19  22
ATOM     20  C   UNL     1       1.193   8.996  19.904  0.00  0.00    +0.000 C 
ATOM     21  C   UNL     1       1.532   9.095  18.444  0.00  0.00    +0.000 C 
ATOM     22  C   UNL     1       0.562   9.998  20.544  0.00  0.00    +0.000 C 
BRANCH  20  23
ATOM     23  C   UNL     1       1.605   7.789  20.736  0.00  0.00    +0.000 C 
BRANCH  23  24
ATOM     24  C   UNL     1       2.053   6.552  19.957  0.00  0.00    +0.000 C 
BRANCH  24  28
ATOM     25  C   UNL     1       1.186   2.894  20.985  0.00  0.00    +0.000 C 
ATOM     26  C   UNL     1       1.515   4.082  20.125  0.00  0.00    +0.000 C 
ATOM     27  C   UNL     1       1.497   3.885  18.636  0.00  0.00    +0.000 C 
ATOM     28  C   UNL     1       1.816   5.266  20.698  0.00  0.00    +0.000 C 
ENDBRANCH  24  28
ENDBRANCH  23  24
ENDBRANCH  20  23
ENDBRANCH  19  22
ENDBRANCH   1  19
TORSDOF 8
ENDMDL
MODEL 3
REMARK VINA RESULT:      -5.9      2.168      5.700
REMARK  Name = 
REMARK  14 active torsions:
REMARK  status: ('A' for Active; 'I' for Inactive)
REMARK    1  A    between atoms: C_1  and  C_2
REMARK    2  A    between atoms: C_2  and  C_3
REMARK    3  A    between atoms: C_4  and  C_5
REMARK    4  A    between atoms: C_5  and  C_6
REMARK    5  A    between atoms: C_6  and  C_7
REMARK    6  A    between atoms: C_7  and  C_8
REMARK    7  A    between atoms: C_9  and  C_10
REMARK    8  A    between atoms: C_10  and  C_11
REMARK    9  A    between atoms: C_12  and  C_13
REMARK   10  A    between atoms: C_16  and  C_17
REMARK   11  A    between atoms: C_19  and  C_20
REMARK   12  A    between atoms: C_23  and  N_24
REMARK   13  A    between atoms: N_24  and  C_25
REMARK   14  A    between atoms: N_24  and  C_26
REMARK                            x       y       z     vdW  Elec       q    Type
REMARK                         _______ _______ _______ _____ _____    ______ ____
ROOT
ATOM      1  C   UNL     1      -2.912  13.953  21.949  0.00  0.00    +0.000 C 
ATOM      2  C   UNL     1      -3.023  14.415  23.408  0.00  0.00    +0.000 C 
ATOM      3  C   UNL     1      -4.377  14.421  24.069  0.00  0.00    +0.000 C 
ATOM      4  C   UNL     1      -1.954  14.842  24.102  0.00  0.00    +0.000 C 
ATOM      5  C   UNL     1      -0.659  15.000  23.506  0.00  0.00    +0.000 C 
ATOM      6  C   UNL     1      -0.417  14.658  22.232  0.00  0.00    +0.000 C 
ATOM      7  C   UNL     1      -1.430  13.968  21.336  0.00  0.00    +0.000 C 
ENDROOT
BRANCH   7   8
ATOM      8  C   UNL     1      -0.906  12.608  20.857  0.00  0.00    +0.000 A 
ATOM      9  C   UNL     1      -0.802  12.299  19.494  0.00  0.00    +0.000 A 
ATOM     10  C   UNL     1      -0.144  11.143  19.064  0.00  0.00    +0.000 A 
ATOM     11  C   UNL     1       0.449  10.246  19.964  0.00  0.00    +0.000 A 
ATOM     12  C   UNL     1       0.253  10.521  21.330  0.00  0.00    +0.000 A 
ATOM     13  C   UNL     1      -0.425  11.665  21.772  0.00  0.00    +0.000 A 
BRANCH  11  14
ATOM     14  N   UNL     1       1.220   9.181  19.520  0.00  0.00    +0.000 N 
ATOM     15  C   UNL     1       1.643   9.082  18.133  0.00  0.00    +0.000 C 
ATOM     16  C   UNL     1       1.591   8.082  20.395  0.00  0.00    +0.000 C 
ENDBRANCH  11  14
ENDBRANCH   7   8
BRANCH   6  17
ATOM     17  C   UNL     1       0.943  14.915  21.684  0.00  0.00    +0.000 C 
ATOM     18  O   UNL     1       1.958  14.373  22.104  0.00  0.00    +0.000 OA
ENDBRANCH   6  17
BRANCH   1  19
ATOM     19  C   UNL     1      -3.723  12.645  21.715  0.00  0.00    +0.000 C 
BRANCH  19  22
ATOM     20  C   UNL     1      -5.736  12.449  20.143  0.00  0.00    +0.000 C 
ATOM     21  C   UNL     1      -6.720  12.326  21.271  0.00  0.00    +0.000 C 
ATOM     22  C   UNL     1      -4.418  12.579  20.378  0.00  0.00    +0.000 C 
BRANCH  20  23
ATOM     23  C   UNL     1      -6.193  12.498  18.691  0.00  0.00    +0.000 C 
BRANCH  23  24
ATOM     24  C   UNL     1      -5.959  11.233  17.865  0.00  0.00    +0.000 C 
BRANCH  24  28
ATOM     25  C   UNL     1      -2.642  11.043  15.827  0.00  0.00    +0.000 C 
ATOM     26  C   UNL     1      -3.699  10.714  16.843  0.00  0.00    +0.000 C 
ATOM     27  C   UNL     1      -3.394   9.624  17.832  0.00  0.00    +0.000 C 
ATOM     28  C   UNL     1      -4.869  11.385  16.840  0.00  0.00    +0.000 C 
ENDBRANCH  24  28
ENDBRANCH  23  24
ENDBRANCH  20  23
ENDBRANCH  19  22
ENDBRANCH   1  19
TORSDOF 8
ENDMDL
MODEL 4
REMARK VINA RESULT:      -5.9      3.434      6.302
REMARK  Name = 
REMARK  14 active torsions:
REMARK  status: ('A' for Active; 'I' for Inactive)
REMARK    1  A    between atoms: C_1  and  C_2
REMARK    2  A    between atoms: C_2  and  C_3
REMARK    3  A    between atoms: C_4  and  C_5
REMARK    4  A    between atoms: C_5  and  C_6
REMARK    5  A    between atoms: C_6  and  C_7
REMARK    6  A    between atoms: C_7  and  C_8
REMARK    7  A    between atoms: C_9  and  C_10
REMARK    8  A    between atoms: C_10  and  C_11
REMARK    9  A    between atoms: C_12  and  C_13
REMARK   10  A    between atoms: C_16  and  C_17
REMARK   11  A    between atoms: C_19  and  C_20
REMARK   12  A    between atoms: C_23  and  N_24
REMARK   13  A    between atoms: N_24  and  C_25
REMARK   14  A    between atoms: N_24  and  C_26
REMARK                            x       y       z     vdW  Elec       q    Type
REMARK                         _______ _______ _______ _____ _____    ______ ____
ROOT
ATOM      1  C   UNL     1      -0.588  11.145  21.059  0.00  0.00    +0.000 C 
ATOM      2  C   UNL     1      -0.960  10.703  22.481  0.00  0.00    +0.000 C 
ATOM      3  C   UNL     1      -0.563   9.325  22.942  0.00  0.00    +0.000 C 
ATOM      4  C   UNL     1      -1.654  11.497  23.314  0.00  0.00    +0.000 C 
ATOM      5  C   UNL     1      -2.190  12.764  22.905  0.00  0.00    +0.000 C 
ATOM      6  C   UNL     1      -1.964  13.270  21.684  0.00  0.00    +0.000 C 
ATOM      7  C   UNL     1      -1.038  12.632  20.664  0.00  0.00    +0.000 C 
ENDROOT
BRANCH   7   8
ATOM      8  C   UNL     1       0.103  13.583  20.283  0.00  0.00    +0.000 A 
ATOM      9  C   UNL     1       1.047  14.014  21.224  0.00  0.00    +0.000 A 
ATOM     10  C   UNL     1       2.189  14.717  20.832  0.00  0.00    +0.000 A 
ATOM     11  C   UNL     1       2.453  15.017  19.488  0.00  0.00    +0.000 A 
ATOM     12  C   UNL     1       1.451  14.662  18.567  0.00  0.00    +0.000 A 
ATOM     13  C   UNL     1       0.291  13.977  18.953  0.00  0.00    +0.000 A 
BRANCH  11  14
ATOM     14  N   UNL     1       3.658  15.587  19.098  0.00  0.00    +0.000 N 
ATOM     15  C   UNL     1       4.109  16.852  19.654  0.00  0.00    +0.000 C 
ATOM     16  C   UNL     1       4.496  14.989  18.074  0.00  0.00    +0.000 C 
ENDBRANCH  11  14
ENDBRANCH   7   8
BRANCH   6  17
ATOM     17  C   UNL     1      -2.611  14.563  21.331  0.00  0.00    +0.000 C 
ATOM     18  O   UNL     1      -2.523  15.576  22.016  0.00  0.00    +0.000 OA
ENDBRANCH   6  17
BRANCH   1  19
ATOM     19  C   UNL     1       0.891  10.782  20.731  0.00  0.00    +0.000 C 
BRANCH  19  22
ATOM     20  C   UNL     1       1.612   9.750  18.500  0.00  0.00    +0.000 C 
ATOM     21  C   UNL     1       2.170  11.043  17.978  0.00  0.00    +0.000 C 
ATOM     22  C   UNL     1       1.046   9.675  19.718  0.00  0.00    +0.000 C 
BRANCH  20  23
ATOM     23  C   UNL     1       1.721   8.458  17.702  0.00  0.00    +0.000 C 
BRANCH  23  24
ATOM     24  C   UNL     1       2.907   7.554  18.037  0.00  0.00    +0.000 C 
BRANCH  24  28
ATOM     25  C   UNL     1       1.871   4.678  20.455  0.00  0.00    +0.000 C 
ATOM     26  C   UNL     1       2.180   5.413  19.181  0.00  0.00    +0.000 C 
ATOM     27  C   UNL     1       1.934   4.691  17.887  0.00  0.00    +0.000 C 
ATOM     28  C   UNL     1       2.663   6.672  19.230  0.00  0.00    +0.000 C 
ENDBRANCH  24  28
ENDBRANCH  23  24
ENDBRANCH  20  23
ENDBRANCH  19  22
ENDBRANCH   1  19
TORSDOF 8
ENDMDL
MODEL 5
REMARK VINA RESULT:      -5.9      0.806      1.424
REMARK  Name = 
REMARK  14 active torsions:
REMARK  status: ('A' for Active; 'I' for Inactive)
REMARK    1  A    between atoms: C_1  and  C_2
REMARK    2  A    between atoms: C_2  and  C_3
REMARK    3  A    between atoms: C_4  and  C_5
REMARK    4  A    between atoms: C_5  and  C_6
REMARK    5  A    between atoms: C_6  and  C_7
REMARK    6  A    between atoms: C_7  and  C_8
REMARK    7  A    between atoms: C_9  and  C_10
REMARK    8  A    between atoms: C_10  and  C_11
REMARK    9  A    between atoms: C_12  and  C_13
REMARK   10  A    between atoms: C_16  and  C_17
REMARK   11  A    between atoms: C_19  and  C_20
REMARK   12  A    between atoms: C_23  and  N_24
REMARK   13  A    between atoms: N_24  and  C_25
REMARK   14  A    between atoms: N_24  and  C_26
REMARK                            x       y       z     vdW  Elec       q    Type
REMARK                         _______ _______ _______ _____ _____    ______ ____
ROOT
ATOM      1  C   UNL     1      -0.799  10.244  19.340  0.00  0.00    +0.000 C 
ATOM      2  C   UNL     1       0.522   9.533  19.018  0.00  0.00    +0.000 C 
ATOM      3  C   UNL     1       0.879   9.277  17.577  0.00  0.00    +0.000 C 
ATOM      4  C   UNL     1       1.355   9.106  19.984  0.00  0.00    +0.000 C 
ATOM      5  C   UNL     1       1.024   9.185  21.378  0.00  0.00    +0.000 C 
ATOM      6  C   UNL     1      -0.108   9.761  21.808  0.00  0.00    +0.000 C 
ATOM      7  C   UNL     1      -1.085  10.486  20.899  0.00  0.00    +0.000 C 
ENDROOT
BRANCH   7   8
ATOM      8  C   UNL     1      -1.243  11.953  21.317  0.00  0.00    +0.000 A 
ATOM      9  C   UNL     1      -0.134  12.790  21.497  0.00  0.00    +0.000 A 
ATOM     10  C   UNL     1      -0.291  14.166  21.683  0.00  0.00    +0.000 A 
ATOM     11  C   UNL     1      -1.554  14.777  21.690  0.00  0.00    +0.000 A 
ATOM     12  C   UNL     1      -2.660  13.911  21.604  0.00  0.00    +0.000 A 
ATOM     13  C   UNL     1      -2.514  12.527  21.439  0.00  0.00    +0.000 A 
BRANCH  11  14
ATOM     14  N   UNL     1      -1.688  16.158  21.732  0.00  0.00    +0.000 N 
ATOM     15  C   UNL     1      -2.997  16.789  21.750  0.00  0.00    +0.000 C 
ATOM     16  C   UNL     1      -0.537  17.044  21.695  0.00  0.00    +0.000 C 
ENDBRANCH  11  14
ENDBRANCH   7   8
BRANCH   6  17
ATOM     17  C   UNL     1      -0.393   9.742  23.269  0.00  0.00    +0.000 C 
ATOM     18  O   UNL     1       0.472   9.623  24.128  0.00  0.00    +0.000 OA
ENDBRANCH   6  17
BRANCH   1  19
ATOM     19  C   UNL     1      -1.004  11.483  18.420  0.00  0.00    +0.000 C 
BRANCH  19  22
ATOM     20  C   UNL     1      -3.111  11.176  16.996  0.00  0.00    +0.000 C 
ATOM     21  C   UNL     1      -2.448  10.205  16.061  0.00  0.00    +0.000 C 
ATOM     22  C   UNL     1      -2.438  11.727  18.022  0.00  0.00    +0.000 C 
BRANCH  20  23
ATOM     23  C   UNL     1      -4.587  11.525  16.863  0.00  0.00    +0.000 C 
BRANCH  23  24
ATOM     24  C   UNL     1      -5.330  11.832  18.163  0.00  0.00    +0.000 C 
BRANCH  24  28
ATOM     25  C   UNL     1      -7.502   9.388  20.284  0.00  0.00    +0.000 C 
ATOM     26  C   UNL     1      -6.822  10.651  19.835  0.00  0.00    +0.000 C 
ATOM     27  C   UNL     1      -6.940  11.855  20.727  0.00  0.00    +0.000 C 
ATOM     28  C   UNL     1      -6.144  10.674  18.670  0.00  0.00    +0.000 C 
ENDBRANCH  24  28
ENDBRANCH  23  24
ENDBRANCH  20  23
ENDBRANCH  19  22
ENDBRANCH   1  19
TORSDOF 8
ENDMDL
MODEL 6
REMARK VINA RESULT:      -5.9      2.301      6.282
REMARK  Name = 
REMARK  14 active torsions:
REMARK  status: ('A' for Active; 'I' for Inactive)
REMARK    1  A    between atoms: C_1  and  C_2
REMARK    2  A    between atoms: C_2  and  C_3
REMARK    3  A    between atoms: C_4  and  C_5
REMARK    4  A    between atoms: C_5  and  C_6
REMARK    5  A    between atoms: C_6  and  C_7
REMARK    6  A    between atoms: C_7  and  C_8
REMARK    7  A    between atoms: C_9  and  C_10
REMARK    8  A    between atoms: C_10  and  C_11
REMARK    9  A    between atoms: C_12  and  C_13
REMARK   10  A    between atoms: C_16  and  C_17
REMARK   11  A    between atoms: C_19  and  C_20
REMARK   12  A    between atoms: C_23  and  N_24
REMARK   13  A    between atoms: N_24  and  C_25
REMARK   14  A    between atoms: N_24  and  C_26
REMARK                            x       y       z     vdW  Elec       q    Type
REMARK                         _______ _______ _______ _____ _____    ______ ____
ROOT
ATOM      1  C   UNL     1      -5.632  14.221  21.899  0.00  0.00    +0.000 C 
ATOM      2  C   UNL     1      -6.470  14.719  23.084  0.00  0.00    +0.000 C 
ATOM      3  C   UNL     1      -7.885  14.224  23.235  0.00  0.00    +0.000 C 
ATOM      4  C   UNL     1      -5.989  15.606  23.972  0.00  0.00    +0.000 C 
ATOM      5  C   UNL     1      -4.706  16.231  23.821  0.00  0.00    +0.000 C 
ATOM      6  C   UNL     1      -3.873  15.911  22.821  0.00  0.00    +0.000 C 
ATOM      7  C   UNL     1      -4.135  14.790  21.830  0.00  0.00    +0.000 C 
ENDROOT
BRANCH   7   8
ATOM      8  C   UNL     1      -3.027  13.732  21.889  0.00  0.00    +0.000 A 
ATOM      9  C   UNL     1      -2.688  13.087  23.086  0.00  0.00    +0.000 A 
ATOM     10  C   UNL     1      -1.821  11.991  23.095  0.00  0.00    +0.000 A 
ATOM     11  C   UNL     1      -1.258  11.477  21.918  0.00  0.00    +0.000 A 
ATOM     12  C   UNL     1      -1.532  12.193  20.738  0.00  0.00    +0.000 A 
ATOM     13  C   UNL     1      -2.382  13.307  20.721  0.00  0.00    +0.000 A 
BRANCH  11  14
ATOM     14  N   UNL     1      -0.516  10.304  21.924  0.00  0.00    +0.000 N 
ATOM     15  C   UNL     1      -0.126   9.650  20.686  0.00  0.00    +0.000 C 
ATOM     16  C   UNL     1      -0.145   9.635  23.160  0.00  0.00    +0.000 C 
ENDBRANCH  11  14
ENDBRANCH   7   8
BRANCH   6  17
ATOM     17  C   UNL     1      -2.589  16.656  22.712  0.00  0.00    +0.000 C 
ATOM     18  O   UNL     1      -1.728  16.656  23.584  0.00  0.00    +0.000 OA
ENDBRANCH   6  17
BRANCH   1  19
ATOM     19  C   UNL     1      -5.773  12.679  21.726  0.00  0.00    +0.000 C 
BRANCH  19  22
ATOM     20  C   UNL     1      -6.528  11.279  19.719  0.00  0.00    +0.000 C 
ATOM     21  C   UNL     1      -7.563  10.534  20.512  0.00  0.00    +0.000 C 
ATOM     22  C   UNL     1      -5.749  12.214  20.292  0.00  0.00    +0.000 C 
BRANCH  20  23
ATOM     23  C   UNL     1      -6.362  11.055  18.222  0.00  0.00    +0.000 C 
BRANCH  23  24
ATOM     24  C   UNL     1      -5.199  11.788  17.553  0.00  0.00    +0.000 C 
BRANCH  24  28
ATOM     25  C   UNL     1      -1.787   9.933  17.228  0.00  0.00    +0.000 C 
ATOM     26  C   UNL     1      -3.040  10.668  16.843  0.00  0.00    +0.000 C 
ATOM     27  C   UNL     1      -3.313  10.851  15.377  0.00  0.00    +0.000 C 
ATOM     28  C   UNL     1      -3.866  11.138  17.801  0.00  0.00    +0.000 C 
ENDBRANCH  24  28
ENDBRANCH  23  24
ENDBRANCH  20  23
ENDBRANCH  19  22
ENDBRANCH   1  19
TORSDOF 8
ENDMDL
MODEL 7
REMARK VINA RESULT:      -5.9      3.681      6.593
REMARK  Name = 
REMARK  14 active torsions:
REMARK  status: ('A' for Active; 'I' for Inactive)
REMARK    1  A    between atoms: C_1  and  C_2
REMARK    2  A    between atoms: C_2  and  C_3
REMARK    3  A    between atoms: C_4  and  C_5
REMARK    4  A    between atoms: C_5  and  C_6
REMARK    5  A    between atoms: C_6  and  C_7
REMARK    6  A    between atoms: C_7  and  C_8
REMARK    7  A    between atoms: C_9  and  C_10
REMARK    8  A    between atoms: C_10  and  C_11
REMARK    9  A    between atoms: C_12  and  C_13
REMARK   10  A    between atoms: C_16  and  C_17
REMARK   11  A    between atoms: C_19  and  C_20
REMARK   12  A    between atoms: C_23  and  N_24
REMARK   13  A    between atoms: N_24  and  C_25
REMARK   14  A    between atoms: N_24  and  C_26
REMARK                            x       y       z     vdW  Elec       q    Type
REMARK                         _______ _______ _______ _____ _____    ______ ____
ROOT
ATOM      1  C   UNL     1      -0.037  10.372  20.951  0.00  0.00    +0.000 C 
ATOM      2  C   UNL     1      -0.569  10.219  22.383  0.00  0.00    +0.000 C 
ATOM      3  C   UNL     1      -0.352   8.914  23.104  0.00  0.00    +0.000 C 
ATOM      4  C   UNL     1      -1.248  11.202  22.998  0.00  0.00    +0.000 C 
ATOM      5  C   UNL     1      -1.618  12.419  22.333  0.00  0.00    +0.000 C 
ATOM      6  C   UNL     1      -1.242  12.682  21.074  0.00  0.00    +0.000 C 
ATOM      7  C   UNL     1      -0.302  11.800  20.271  0.00  0.00    +0.000 C 
ENDROOT
BRANCH   7   8
ATOM      8  C   UNL     1       0.956  12.570  19.853  0.00  0.00    +0.000 A 
ATOM      9  C   UNL     1       1.179  12.949  18.523  0.00  0.00    +0.000 A 
ATOM     10  C   UNL     1       2.222  13.816  18.184  0.00  0.00    +0.000 A 
ATOM     11  C   UNL     1       3.086  14.353  19.148  0.00  0.00    +0.000 A 
ATOM     12  C   UNL     1       2.909  13.889  20.465  0.00  0.00    +0.000 A 
ATOM     13  C   UNL     1       1.880  13.003  20.812  0.00  0.00    +0.000 A 
BRANCH  11  14
ATOM     14  N   UNL     1       4.024  15.322  18.818  0.00  0.00    +0.000 N 
ATOM     15  C   UNL     1       3.768  16.296  17.771  0.00  0.00    +0.000 C 
ATOM     16  C   UNL     1       5.331  15.374  19.452  0.00  0.00    +0.000 C 
ENDBRANCH  11  14
ENDBRANCH   7   8
BRANCH   6  17
ATOM     17  C   UNL     1      -1.724  13.943  20.447  0.00  0.00    +0.000 C 
ATOM     18  O   UNL     1      -2.803  14.462  20.708  0.00  0.00    +0.000 OA
ENDBRANCH   6  17
BRANCH   1  19
ATOM     19  C   UNL     1       1.420   9.834  20.838  0.00  0.00    +0.000 C 
BRANCH  19  22
ATOM     20  C   UNL     1       1.882   8.540  18.676  0.00  0.00    +0.000 C 
ATOM     21  C   UNL     1       2.138   9.785  17.877  0.00  0.00    +0.000 C 
ATOM     22  C   UNL     1       1.558   8.601  19.980  0.00  0.00    +0.000 C 
BRANCH  20  23
ATOM     23  C   UNL     1       2.043   7.155  18.063  0.00  0.00    +0.000 C 
BRANCH  23  24
ATOM     24  C   UNL     1       2.367   6.019  19.032  0.00  0.00    +0.000 C 
BRANCH  24  28
ATOM     25  C   UNL     1       1.154   2.329  18.713  0.00  0.00    +0.000 C 
ATOM     26  C   UNL     1       1.457   3.671  19.316  0.00  0.00    +0.000 C 
ATOM     27  C   UNL     1       1.217   3.838  20.790  0.00  0.00    +0.000 C 
ATOM     28  C   UNL     1       1.922   4.670  18.538  0.00  0.00    +0.000 C 
ENDBRANCH  24  28
ENDBRANCH  23  24
ENDBRANCH  20  23
ENDBRANCH  19  22
ENDBRANCH   1  19
TORSDOF 8
ENDMDL
MODEL 8
REMARK VINA RESULT:      -5.8      2.107      6.021
REMARK  Name = 
REMARK  14 active torsions:
REMARK  status: ('A' for Active; 'I' for Inactive)
REMARK    1  A    between atoms: C_1  and  C_2
REMARK    2  A    between atoms: C_2  and  C_3
REMARK    3  A    between atoms: C_4  and  C_5
REMARK    4  A    between atoms: C_5  and  C_6
REMARK    5  A    between atoms: C_6  and  C_7
REMARK    6  A    between atoms: C_7  and  C_8
REMARK    7  A    between atoms: C_9  and  C_10
REMARK    8  A    between atoms: C_10  and  C_11
REMARK    9  A    between atoms: C_12  and  C_13
REMARK   10  A    between atoms: C_16  and  C_17
REMARK   11  A    between atoms: C_19  and  C_20
REMARK   12  A    between atoms: C_23  and  N_24
REMARK   13  A    between atoms: N_24  and  C_25
REMARK   14  A    between atoms: N_24  and  C_26
REMARK                            x       y       z     vdW  Elec       q    Type
REMARK                         _______ _______ _______ _____ _____    ______ ____
ROOT
ATOM      1  C   UNL     1      -4.862  14.079  22.051  0.00  0.00    +0.000 C 
ATOM      2  C   UNL     1      -5.542  14.621  23.316  0.00  0.00    +0.000 C 
ATOM      3  C   UNL     1      -7.034  14.475  23.460  0.00  0.00    +0.000 C 
ATOM      4  C   UNL     1      -4.849  15.248  24.283  0.00  0.00    +0.000 C 
ATOM      5  C   UNL     1      -3.452  15.552  24.159  0.00  0.00    +0.000 C 
ATOM      6  C   UNL     1      -2.732  15.160  23.098  0.00  0.00    +0.000 C 
ATOM      7  C   UNL     1      -3.271  14.267  21.995  0.00  0.00    +0.000 C 
ENDROOT
BRANCH   7   8
ATOM      8  C   UNL     1      -2.461  12.969  21.890  0.00  0.00    +0.000 A 
ATOM      9  C   UNL     1      -1.885  12.556  20.682  0.00  0.00    +0.000 A 
ATOM     10  C   UNL     1      -0.990  11.483  20.638  0.00  0.00    +0.000 A 
ATOM     11  C   UNL     1      -0.618  10.777  21.790  0.00  0.00    +0.000 A 
ATOM     12  C   UNL     1      -1.278  11.141  22.979  0.00  0.00    +0.000 A 
ATOM     13  C   UNL     1      -2.194  12.201  23.030  0.00  0.00    +0.000 A 
BRANCH  11  14
ATOM     14  N   UNL     1       0.377   9.810  21.755  0.00  0.00    +0.000 N 
ATOM     15  C   UNL     1       0.841   9.248  20.497  0.00  0.00    +0.000 C 
ATOM     16  C   UNL     1       0.961   9.263  22.968  0.00  0.00    +0.000 C 
ENDBRANCH  11  14
ENDBRANCH   7   8
BRANCH   6  17
ATOM     17  C   UNL     1      -1.304  15.573  23.029  0.00  0.00    +0.000 C 
ATOM     18  O   UNL     1      -0.477  15.306  23.893  0.00  0.00    +0.000 OA
ENDBRANCH   6  17
BRANCH   1  19
ATOM     19  C   UNL     1      -5.383  12.653  21.707  0.00  0.00    +0.000 C 
BRANCH  19  22
ATOM     20  C   UNL     1      -6.301  11.515  19.603  0.00  0.00    +0.000 C 
ATOM     21  C   UNL     1      -7.291  10.687  20.372  0.00  0.00    +0.000 C 
ATOM     22  C   UNL     1      -5.468  12.366  20.229  0.00  0.00    +0.000 C 
BRANCH  20  23
ATOM     23  C   UNL     1      -6.243  11.475  18.082  0.00  0.00    +0.000 C 
BRANCH  23  24
ATOM     24  C   UNL     1      -4.971  12.028  17.438  0.00  0.00    +0.000 C 
BRANCH  24  28
ATOM     25  C   UNL     1      -2.887   9.917  14.910  0.00  0.00    +0.000 C 
ATOM     26  C   UNL     1      -3.291  10.607  16.183  0.00  0.00    +0.000 C 
ATOM     27  C   UNL     1      -2.312  10.586  17.322  0.00  0.00    +0.000 C 
ATOM     28  C   UNL     1      -4.494  11.211  16.270  0.00  0.00    +0.000 C 
ENDBRANCH  24  28
ENDBRANCH  23  24
ENDBRANCH  20  23
ENDBRANCH  19  22
ENDBRANCH   1  19
TORSDOF 8
ENDMDL
MODEL 9
REMARK VINA RESULT:      -5.8      6.151      9.754
REMARK  Name = 
REMARK  14 active torsions:
REMARK  status: ('A' for Active; 'I' for Inactive)
REMARK    1  A    between atoms: C_1  and  C_2
REMARK    2  A    between atoms: C_2  and  C_3
REMARK    3  A    between atoms: C_4  and  C_5
REMARK    4  A    between atoms: C_5  and  C_6
REMARK    5  A    between atoms: C_6  and  C_7
REMARK    6  A    between atoms: C_7  and  C_8
REMARK    7  A    between atoms: C_9  and  C_10
REMARK    8  A    between atoms: C_10  and  C_11
REMARK    9  A    between atoms: C_12  and  C_13
REMARK   10  A    between atoms: C_16  and  C_17
REMARK   11  A    between atoms: C_19  and  C_20
REMARK   12  A    between atoms: C_23  and  N_24
REMARK   13  A    between atoms: N_24  and  C_25
REMARK   14  A    between atoms: N_24  and  C_26
REMARK                            x       y       z     vdW  Elec       q    Type
REMARK                         _______ _______ _______ _____ _____    ______ ____
ROOT
ATOM      1  C   UNL     1       5.417   6.847  16.840  0.00  0.00    +0.000 C 
ATOM      2  C   UNL     1       6.926   7.102  16.955  0.00  0.00    +0.000 C 
ATOM      3  C   UNL     1       7.401   8.388  17.579  0.00  0.00    +0.000 C 
ATOM      4  C   UNL     1       7.833   6.227  16.488  0.00  0.00    +0.000 C 
ATOM      5  C   UNL     1       7.463   5.048  15.757  0.00  0.00    +0.000 C 
ATOM      6  C   UNL     1       6.182   4.707  15.560  0.00  0.00    +0.000 C 
ATOM      7  C   UNL     1       5.007   5.445  16.177  0.00  0.00    +0.000 C 
ENDROOT
BRANCH   7   8
ATOM      8  C   UNL     1       4.179   4.515  17.071  0.00  0.00    +0.000 A 
ATOM      9  C   UNL     1       4.722   3.916  18.215  0.00  0.00    +0.000 A 
ATOM     10  C   UNL     1       3.913   3.233  19.127  0.00  0.00    +0.000 A 
ATOM     11  C   UNL     1       2.527   3.119  18.951  0.00  0.00    +0.000 A 
ATOM     12  C   UNL     1       2.010   3.641  17.751  0.00  0.00    +0.000 A 
ATOM     13  C   UNL     1       2.817   4.309  16.819  0.00  0.00    +0.000 A 
BRANCH  11  14
ATOM     14  N   UNL     1       1.717   2.564  19.933  0.00  0.00    +0.000 N 
ATOM     15  C   UNL     1       0.375   2.095  19.629  0.00  0.00    +0.000 C 
ATOM     16  C   UNL     1       2.139   2.480  21.320  0.00  0.00    +0.000 C 
ENDBRANCH  11  14
ENDBRANCH   7   8
BRANCH   6  17
ATOM     17  C   UNL     1       5.896   3.499  14.739  0.00  0.00    +0.000 C 
ATOM     18  O   UNL     1       6.065   3.447  13.526  0.00  0.00    +0.000 OA
ENDBRANCH   6  17
BRANCH   1  19
ATOM     19  C   UNL     1       4.690   7.197  18.172  0.00  0.00    +0.000 C 
BRANCH  19  22
ATOM     20  C   UNL     1       2.258   7.820  18.684  0.00  0.00    +0.000 C 
ATOM     21  C   UNL     1       2.130   6.797  19.776  0.00  0.00    +0.000 C 
ATOM     22  C   UNL     1       3.402   7.961  17.990  0.00  0.00    +0.000 C 
BRANCH  20  23
ATOM     23  C   UNL     1       1.123   8.782  18.359  0.00  0.00    +0.000 C 
BRANCH  23  24
ATOM     24  C   UNL     1       0.973   9.988  19.287  0.00  0.00    +0.000 C 
BRANCH  24  28
ATOM     25  C   UNL     1      -0.733   9.105  22.678  0.00  0.00    +0.000 C 
ATOM     26  C   UNL     1       0.339   9.426  21.674  0.00  0.00    +0.000 C 
ATOM     27  C   UNL     1       1.766   9.365  22.141  0.00  0.00    +0.000 C 
ATOM     28  C   UNL     1       0.002   9.756  20.411  0.00  0.00    +0.000 C 
ENDBRANCH  24  28
ENDBRANCH  23  24
ENDBRANCH  20  23
ENDBRANCH  19  22
ENDBRANCH   1  19
TORSDOF 8
ENDMDL
