MODEL 1
REMARK VINA RESULT:      -6.9      0.000      0.000
REMARK  Name = 
REMARK  3 active torsions:
REMARK  status: ('A' for Active; 'I' for Inactive)
REMARK    1  A    between atoms: C_2  and  O_3
REMARK    2  A    between atoms: C_2  and  C_4
REMARK    3  A    between atoms: C_9  and  C_10
REMARK                            x       y       z     vdW  Elec       q    Type
REMARK                         _______ _______ _______ _____ _____    ______ ____
ROOT
ATOM      1  C   UNL     1       3.214   2.636  19.925  0.00  0.00    +0.000 A 
ATOM      2  C   UNL     1       2.536   2.562  21.158  0.00  0.00    +0.000 A 
ATOM      3  C   UNL     1       1.510   3.452  21.472  0.00  0.00    +0.000 A 
ATOM      4  C   UNL     1       1.124   4.413  20.545  0.00  0.00    +0.000 A 
ATOM      5  C   UNL     1       1.765   4.486  19.307  0.00  0.00    +0.000 A 
ATOM      6  C   UNL     1       2.831   3.619  18.990  0.00  0.00    +0.000 A 
ENDROOT
BRANCH   6   7
ATOM      7  C   UNL     1       3.506   3.729  17.666  0.00  0.00    +0.000 C 
ATOM      8  O   UNL     1       2.945   3.218  16.704  0.00  0.00    +0.000 OA
ATOM      9  N   UNL     1       4.741   4.333  17.648  0.00  0.00    +0.000 N 
ATOM     10  C   UNL     1       5.489   4.409  16.506  0.00  0.00    +0.000 A 
ATOM     11  N   UNL     1       5.252   3.908  15.322  0.00  0.00    +0.000 NA
ATOM     12  C   UNL     1       6.288   4.237  14.471  0.00  0.00    +0.000 A 
ATOM     13  C   UNL     1       7.287   5.010  15.025  0.00  0.00    +0.000 A 
ATOM     14  S   UNL     1       6.943   5.288  16.683  0.00  0.00    +0.000 S 
ATOM     15  H   UNL     1       5.180   4.706  18.474  0.00  0.00    +0.000 HD
ENDBRANCH   6   7
BRANCH   1  17
ATOM     16  O   UNL     1       5.298   1.635  20.472  0.00  0.00    +0.000 OA
ATOM     17  C   UNL     1       4.302   1.627  19.764  0.00  0.00    +0.000 C 
BRANCH  17  18
ATOM     18  O   UNL     1       4.224   0.910  18.625  0.00  0.00    +0.000 OA
ATOM     19  H   UNL     1       3.327   1.011  18.223  0.00  0.00    +0.000 HD
ENDBRANCH  17  18
ENDBRANCH   1  17
TORSDOF 3
ENDMDL
MODEL 2
REMARK VINA RESULT:      -6.8      1.438      1.575
REMARK  Name = 
REMARK  3 active torsions:
REMARK  status: ('A' for Active; 'I' for Inactive)
REMARK    1  A    between atoms: C_2  and  O_3
REMARK    2  A    between atoms: C_2  and  C_4
REMARK    3  A    between atoms: C_9  and  C_10
REMARK                            x       y       z     vdW  Elec       q    Type
REMARK                         _______ _______ _______ _____ _____    ______ ____
ROOT
ATOM      1  C   UNL     1       3.302   2.899  20.055  0.00  0.00    +0.000 A 
ATOM      2  C   UNL     1       2.158   2.516  20.782  0.00  0.00    +0.000 A 
ATOM      3  C   UNL     1       1.136   3.426  21.052  0.00  0.00    +0.000 A 
ATOM      4  C   UNL     1       1.230   4.727  20.574  0.00  0.00    +0.000 A 
ATOM      5  C   UNL     1       2.343   5.120  19.830  0.00  0.00    +0.000 A 
ATOM      6  C   UNL     1       3.403   4.223  19.582  0.00  0.00    +0.000 A 
ENDROOT
BRANCH   6   7
ATOM      7  C   UNL     1       4.586   4.674  18.796  0.00  0.00    +0.000 C 
ATOM      8  O   UNL     1       5.358   5.454  19.338  0.00  0.00    +0.000 OA
ATOM      9  N   UNL     1       4.672   4.232  17.496  0.00  0.00    +0.000 N 
ATOM     10  C   UNL     1       5.665   4.653  16.656  0.00  0.00    +0.000 A 
ATOM     11  N   UNL     1       6.607   5.536  16.860  0.00  0.00    +0.000 NA
ATOM     12  C   UNL     1       7.388   5.641  15.726  0.00  0.00    +0.000 A 
ATOM     13  C   UNL     1       7.034   4.808  14.685  0.00  0.00    +0.000 A 
ATOM     14  S   UNL     1       5.643   3.903  15.121  0.00  0.00    +0.000 S 
ATOM     15  H   UNL     1       3.989   3.618  17.080  0.00  0.00    +0.000 HD
ENDBRANCH   6   7
BRANCH   1  17
ATOM     16  O   UNL     1       5.233   1.656  20.666  0.00  0.00    +0.000 OA
ATOM     17  C   UNL     1       4.309   1.811  19.881  0.00  0.00    +0.000 C 
BRANCH  17  18
ATOM     18  O   UNL     1       4.272   1.215  18.672  0.00  0.00    +0.000 OA
ATOM     19  H   UNL     1       3.407   1.397  18.232  0.00  0.00    +0.000 HD
ENDBRANCH  17  18
ENDBRANCH   1  17
TORSDOF 3
ENDMDL
MODEL 3
REMARK VINA RESULT:      -6.8      2.873      5.983
REMARK  Name = 
REMARK  3 active torsions:
REMARK  status: ('A' for Active; 'I' for Inactive)
REMARK    1  A    between atoms: C_2  and  O_3
REMARK    2  A    between atoms: C_2  and  C_4
REMARK    3  A    between atoms: C_9  and  C_10
REMARK                            x       y       z     vdW  Elec       q    Type
REMARK                         _______ _______ _______ _____ _____    ______ ____
ROOT
ATOM      1  C   UNL     1       6.741   5.103  17.034  0.00  0.00    +0.000 A 
ATOM      2  C   UNL     1       7.289   5.414  15.774  0.00  0.00    +0.000 A 
ATOM      3  C   UNL     1       6.708   4.943  14.598  0.00  0.00    +0.000 A 
ATOM      4  C   UNL     1       5.551   4.176  14.661  0.00  0.00    +0.000 A 
ATOM      5  C   UNL     1       4.977   3.877  15.898  0.00  0.00    +0.000 A 
ATOM      6  C   UNL     1       5.576   4.314  17.099  0.00  0.00    +0.000 A 
ENDROOT
BRANCH   6   7
ATOM      7  C   UNL     1       4.948   3.969  18.406  0.00  0.00    +0.000 C 
ATOM      8  O   UNL     1       5.697   3.735  19.346  0.00  0.00    +0.000 OA
ATOM      9  N   UNL     1       3.577   3.870  18.428  0.00  0.00    +0.000 N 
ATOM     10  C   UNL     1       2.901   3.472  19.548  0.00  0.00    +0.000 A 
ATOM     11  N   UNL     1       3.367   3.068  20.701  0.00  0.00    +0.000 NA
ATOM     12  C   UNL     1       2.313   2.767  21.540  0.00  0.00    +0.000 A 
ATOM     13  C   UNL     1       1.057   2.977  21.011  0.00  0.00    +0.000 A 
ATOM     14  S   UNL     1       1.200   3.517  19.388  0.00  0.00    +0.000 S 
ATOM     15  H   UNL     1       3.002   4.035  17.617  0.00  0.00    +0.000 HD
ENDBRANCH   6   7
BRANCH   1  17
ATOM     16  O   UNL     1       7.671   6.867  18.326  0.00  0.00    +0.000 OA
ATOM     17  C   UNL     1       7.504   5.664  18.188  0.00  0.00    +0.000 C 
BRANCH  17  18
ATOM     18  O   UNL     1       8.205   4.747  18.882  0.00  0.00    +0.000 OA
ATOM     19  H   UNL     1       8.791   5.195  19.540  0.00  0.00    +0.000 HD
ENDBRANCH  17  18
ENDBRANCH   1  17
TORSDOF 3
ENDMDL
MODEL 4
REMARK VINA RESULT:      -6.7      2.834      5.945
REMARK  Name = 
REMARK  3 active torsions:
REMARK  status: ('A' for Active; 'I' for Inactive)
REMARK    1  A    between atoms: C_2  and  O_3
REMARK    2  A    between atoms: C_2  and  C_4
REMARK    3  A    between atoms: C_9  and  C_10
REMARK                            x       y       z     vdW  Elec       q    Type
REMARK                         _______ _______ _______ _____ _____    ______ ____
ROOT
ATOM      1  C   UNL     1       6.719   5.026  16.732  0.00  0.00    +0.000 A 
ATOM      2  C   UNL     1       7.475   4.937  15.547  0.00  0.00    +0.000 A 
ATOM      3  C   UNL     1       6.884   4.569  14.339  0.00  0.00    +0.000 A 
ATOM      4  C   UNL     1       5.520   4.312  14.291  0.00  0.00    +0.000 A 
ATOM      5  C   UNL     1       4.747   4.419  15.448  0.00  0.00    +0.000 A 
ATOM      6  C   UNL     1       5.337   4.752  16.685  0.00  0.00    +0.000 A 
ENDROOT
BRANCH   6   7
ATOM      7  C   UNL     1       4.489   4.846  17.908  0.00  0.00    +0.000 C 
ATOM      8  O   UNL     1       4.570   5.872  18.572  0.00  0.00    +0.000 OA
ATOM      9  N   UNL     1       3.739   3.739  18.228  0.00  0.00    +0.000 N 
ATOM     10  C   UNL     1       2.995   3.681  19.374  0.00  0.00    +0.000 A 
ATOM     11  N   UNL     1       2.903   4.544  20.351  0.00  0.00    +0.000 NA
ATOM     12  C   UNL     1       2.028   4.064  21.305  0.00  0.00    +0.000 A 
ATOM     13  C   UNL     1       1.448   2.847  21.017  0.00  0.00    +0.000 A 
ATOM     14  S   UNL     1       2.062   2.257  19.526  0.00  0.00    +0.000 S 
ATOM     15  H   UNL     1       3.734   2.901  17.670  0.00  0.00    +0.000 HD
ENDBRANCH   6   7
BRANCH   1  17
ATOM     16  O   UNL     1       7.931   4.568  18.724  0.00  0.00    +0.000 OA
ATOM     17  C   UNL     1       7.513   5.405  17.938  0.00  0.00    +0.000 C 
BRANCH  17  18
ATOM     18  O   UNL     1       7.484   6.722  18.223  0.00  0.00    +0.000 OA
ATOM     19  H   UNL     1       7.943   6.892  19.081  0.00  0.00    +0.000 HD
ENDBRANCH  17  18
ENDBRANCH   1  17
TORSDOF 3
ENDMDL
MODEL 5
REMARK VINA RESULT:      -6.6      2.060      3.116
REMARK  Name = 
REMARK  3 active torsions:
REMARK  status: ('A' for Active; 'I' for Inactive)
REMARK    1  A    between atoms: C_2  and  O_3
REMARK    2  A    between atoms: C_2  and  C_4
REMARK    3  A    between atoms: C_9  and  C_10
REMARK                            x       y       z     vdW  Elec       q    Type
REMARK                         _______ _______ _______ _____ _____    ______ ____
ROOT
ATOM      1  C   UNL     1       2.466   4.863  19.738  0.00  0.00    +0.000 A 
ATOM      2  C   UNL     1       1.306   4.581  20.484  0.00  0.00    +0.000 A 
ATOM      3  C   UNL     1       1.061   3.302  20.983  0.00  0.00    +0.000 A 
ATOM      4  C   UNL     1       1.988   2.291  20.768  0.00  0.00    +0.000 A 
ATOM      5  C   UNL     1       3.158   2.555  20.053  0.00  0.00    +0.000 A 
ATOM      6  C   UNL     1       3.401   3.833  19.509  0.00  0.00    +0.000 A 
ENDROOT
BRANCH   6   7
ATOM      7  C   UNL     1       4.652   4.083  18.738  0.00  0.00    +0.000 C 
ATOM      8  O   UNL     1       5.672   4.305  19.378  0.00  0.00    +0.000 OA
ATOM      9  N   UNL     1       4.540   4.116  17.368  0.00  0.00    +0.000 N 
ATOM     10  C   UNL     1       5.603   4.425  16.565  0.00  0.00    +0.000 A 
ATOM     11  N   UNL     1       6.813   4.793  16.894  0.00  0.00    +0.000 NA
ATOM     12  C   UNL     1       7.555   5.002  15.748  0.00  0.00    +0.000 A 
ATOM     13  C   UNL     1       6.892   4.760  14.563  0.00  0.00    +0.000 A 
ATOM     14  S   UNL     1       5.270   4.309  14.893  0.00  0.00    +0.000 S 
ATOM     15  H   UNL     1       3.668   3.964  16.886  0.00  0.00    +0.000 HD
ENDBRANCH   6   7
BRANCH   1  17
ATOM     16  O   UNL     1       2.868   6.543  18.106  0.00  0.00    +0.000 OA
ATOM     17  C   UNL     1       2.557   6.273  19.257  0.00  0.00    +0.000 C 
BRANCH  17  18
ATOM     18  O   UNL     1       2.544   7.192  20.243  0.00  0.00    +0.000 OA
ATOM     19  H   UNL     1       1.834   7.858  20.074  0.00  0.00    +0.000 HD
ENDBRANCH  17  18
ENDBRANCH   1  17
TORSDOF 3
ENDMDL
MODEL 6
REMARK VINA RESULT:      -6.6      3.290      6.038
REMARK  Name = 
REMARK  3 active torsions:
REMARK  status: ('A' for Active; 'I' for Inactive)
REMARK    1  A    between atoms: C_2  and  O_3
REMARK    2  A    between atoms: C_2  and  C_4
REMARK    3  A    between atoms: C_9  and  C_10
REMARK                            x       y       z     vdW  Elec       q    Type
REMARK                         _______ _______ _______ _____ _____    ______ ____
ROOT
ATOM      1  C   UNL     1       6.005   6.596  17.436  0.00  0.00    +0.000 A 
ATOM      2  C   UNL     1       7.049   7.537  17.350  0.00  0.00    +0.000 A 
ATOM      3  C   UNL     1       8.144   7.481  18.213  0.00  0.00    +0.000 A 
ATOM      4  C   UNL     1       8.225   6.464  19.155  0.00  0.00    +0.000 A 
ATOM      5  C   UNL     1       7.213   5.506  19.240  0.00  0.00    +0.000 A 
ATOM      6  C   UNL     1       6.081   5.572  18.401  0.00  0.00    +0.000 A 
ENDROOT
BRANCH   6   7
ATOM      7  C   UNL     1       5.010   4.543  18.522  0.00  0.00    +0.000 C 
ATOM      8  O   UNL     1       4.969   3.669  17.665  0.00  0.00    +0.000 OA
ATOM      9  N   UNL     1       4.109   4.704  19.548  0.00  0.00    +0.000 N 
ATOM     10  C   UNL     1       3.034   3.873  19.701  0.00  0.00    +0.000 A 
ATOM     11  N   UNL     1       2.628   2.891  18.939  0.00  0.00    +0.000 NA
ATOM     12  C   UNL     1       1.493   2.327  19.487  0.00  0.00    +0.000 A 
ATOM     13  C   UNL     1       1.072   2.882  20.677  0.00  0.00    +0.000 A 
ATOM     14  S   UNL     1       2.102   4.189  21.097  0.00  0.00    +0.000 S 
ATOM     15  H   UNL     1       4.161   5.464  20.209  0.00  0.00    +0.000 HD
ENDBRANCH   6   7
BRANCH   1  17
ATOM     16  O   UNL     1       5.089   6.783  15.251  0.00  0.00    +0.000 OA
ATOM     17  C   UNL     1       4.899   6.819  16.457  0.00  0.00    +0.000 C 
BRANCH  17  18
ATOM     18  O   UNL     1       3.775   7.325  17.003  0.00  0.00    +0.000 OA
ATOM     19  H   UNL     1       3.008   6.734  16.806  0.00  0.00    +0.000 HD
ENDBRANCH  17  18
ENDBRANCH   1  17
TORSDOF 3
ENDMDL
MODEL 7
REMARK VINA RESULT:      -6.6      1.626      2.883
REMARK  Name = 
REMARK  3 active torsions:
REMARK  status: ('A' for Active; 'I' for Inactive)
REMARK    1  A    between atoms: C_2  and  O_3
REMARK    2  A    between atoms: C_2  and  C_4
REMARK    3  A    between atoms: C_9  and  C_10
REMARK                            x       y       z     vdW  Elec       q    Type
REMARK                         _______ _______ _______ _____ _____    ______ ____
ROOT
ATOM      1  C   UNL     1       2.140   3.904  19.257  0.00  0.00    +0.000 A 
ATOM      2  C   UNL     1       1.017   3.615  20.057  0.00  0.00    +0.000 A 
ATOM      3  C   UNL     1       1.139   2.875  21.232  0.00  0.00    +0.000 A 
ATOM      4  C   UNL     1       2.391   2.436  21.642  0.00  0.00    +0.000 A 
ATOM      5  C   UNL     1       3.521   2.734  20.878  0.00  0.00    +0.000 A 
ATOM      6  C   UNL     1       3.409   3.448  19.667  0.00  0.00    +0.000 A 
ENDROOT
BRANCH   6   7
ATOM      7  C   UNL     1       4.631   3.740  18.865  0.00  0.00    +0.000 C 
ATOM      8  O   UNL     1       5.677   3.916  19.476  0.00  0.00    +0.000 OA
ATOM      9  N   UNL     1       4.465   3.860  17.505  0.00  0.00    +0.000 N 
ATOM     10  C   UNL     1       5.498   4.214  16.682  0.00  0.00    +0.000 A 
ATOM     11  N   UNL     1       6.724   4.554  16.985  0.00  0.00    +0.000 NA
ATOM     12  C   UNL     1       7.421   4.831  15.826  0.00  0.00    +0.000 A 
ATOM     13  C   UNL     1       6.711   4.668  14.655  0.00  0.00    +0.000 A 
ATOM     14  S   UNL     1       5.099   4.205  15.020  0.00  0.00    +0.000 S 
ATOM     15  H   UNL     1       3.574   3.743  17.049  0.00  0.00    +0.000 HD
ENDBRANCH   6   7
BRANCH   1  17
ATOM     16  O   UNL     1       1.408   4.141  17.009  0.00  0.00    +0.000 OA
ATOM     17  C   UNL     1       1.828   4.681  18.021  0.00  0.00    +0.000 C 
BRANCH  17  18
ATOM     18  O   UNL     1       2.302   5.943  18.030  0.00  0.00    +0.000 OA
ATOM     19  H   UNL     1       1.565   6.580  18.192  0.00  0.00    +0.000 HD
ENDBRANCH  17  18
ENDBRANCH   1  17
TORSDOF 3
ENDMDL
MODEL 8
REMARK VINA RESULT:      -6.6      3.836      5.947
REMARK  Name = 
REMARK  3 active torsions:
REMARK  status: ('A' for Active; 'I' for Inactive)
REMARK    1  A    between atoms: C_2  and  O_3
REMARK    2  A    between atoms: C_2  and  C_4
REMARK    3  A    between atoms: C_9  and  C_10
REMARK                            x       y       z     vdW  Elec       q    Type
REMARK                         _______ _______ _______ _____ _____    ______ ____
ROOT
ATOM      1  C   UNL     1       6.495   5.371  17.652  0.00  0.00    +0.000 A 
ATOM      2  C   UNL     1       7.307   4.719  16.704  0.00  0.00    +0.000 A 
ATOM      3  C   UNL     1       6.752   4.073  15.600  0.00  0.00    +0.000 A 
ATOM      4  C   UNL     1       5.376   4.094  15.411  0.00  0.00    +0.000 A 
ATOM      5  C   UNL     1       4.554   4.757  16.325  0.00  0.00    +0.000 A 
ATOM      6  C   UNL     1       5.098   5.381  17.467  0.00  0.00    +0.000 A 
ENDROOT
BRANCH   6   7
ATOM      7  C   UNL     1       4.196   6.070  18.433  0.00  0.00    +0.000 C 
ATOM      8  O   UNL     1       4.099   5.588  19.555  0.00  0.00    +0.000 OA
ATOM      9  N   UNL     1       3.489   7.150  17.959  0.00  0.00    +0.000 N 
ATOM     10  C   UNL     1       2.566   7.801  18.730  0.00  0.00    +0.000 A 
ATOM     11  N   UNL     1       2.143   7.522  19.935  0.00  0.00    +0.000 NA
ATOM     12  C   UNL     1       1.203   8.458  20.318  0.00  0.00    +0.000 A 
ATOM     13  C   UNL     1       0.949   9.452  19.397  0.00  0.00    +0.000 A 
ATOM     14  S   UNL     1       1.878   9.175  17.981  0.00  0.00    +0.000 S 
ATOM     15  H   UNL     1       3.573   7.487  17.014  0.00  0.00    +0.000 HD
ENDBRANCH   6   7
BRANCH   1  17
ATOM     16  O   UNL     1       8.080   6.864  18.604  0.00  0.00    +0.000 OA
ATOM     17  C   UNL     1       7.249   5.986  18.784  0.00  0.00    +0.000 C 
BRANCH  17  18
ATOM     18  O   UNL     1       7.141   5.312  19.947  0.00  0.00    +0.000 OA
ATOM     19  H   UNL     1       6.442   5.722  20.511  0.00  0.00    +0.000 HD
ENDBRANCH  17  18
ENDBRANCH   1  17
TORSDOF 3
ENDMDL
MODEL 9
REMARK VINA RESULT:      -6.6      1.527      1.886
REMARK  Name = 
REMARK  3 active torsions:
REMARK  status: ('A' for Active; 'I' for Inactive)
REMARK    1  A    between atoms: C_2  and  O_3
REMARK    2  A    between atoms: C_2  and  C_4
REMARK    3  A    between atoms: C_9  and  C_10
REMARK                            x       y       z     vdW  Elec       q    Type
REMARK                         _______ _______ _______ _____ _____    ______ ____
ROOT
ATOM      1  C   UNL     1       2.588   3.049  19.172  0.00  0.00    +0.000 A 
ATOM      2  C   UNL     1       1.392   3.020  19.915  0.00  0.00    +0.000 A 
ATOM      3  C   UNL     1       1.011   4.098  20.713  0.00  0.00    +0.000 A 
ATOM      4  C   UNL     1       1.807   5.236  20.757  0.00  0.00    +0.000 A 
ATOM      5  C   UNL     1       2.984   5.296  20.008  0.00  0.00    +0.000 A 
ATOM      6  C   UNL     1       3.402   4.198  19.227  0.00  0.00    +0.000 A 
ENDROOT
BRANCH   6   7
ATOM      7  C   UNL     1       4.669   4.285  18.448  0.00  0.00    +0.000 C 
ATOM      8  O   UNL     1       5.718   4.314  19.079  0.00  0.00    +0.000 OA
ATOM      9  N   UNL     1       4.551   4.401  17.083  0.00  0.00    +0.000 N 
ATOM     10  C   UNL     1       5.641   4.577  16.277  0.00  0.00    +0.000 A 
ATOM     11  N   UNL     1       6.898   4.735  16.602  0.00  0.00    +0.000 NA
ATOM     12  C   UNL     1       7.652   4.879  15.454  0.00  0.00    +0.000 A 
ATOM     13  C   UNL     1       6.949   4.801  14.270  0.00  0.00    +0.000 A 
ATOM     14  S   UNL     1       5.279   4.595  14.607  0.00  0.00    +0.000 S 
ATOM     15  H   UNL     1       3.661   4.411  16.609  0.00  0.00    +0.000 HD
ENDBRANCH   6   7
BRANCH   1  17
ATOM     16  O   UNL     1       3.784   1.057  18.673  0.00  0.00    +0.000 OA
ATOM     17  C   UNL     1       2.856   1.803  18.395  0.00  0.00    +0.000 C 
BRANCH  17  18
ATOM     18  O   UNL     1       2.182   1.725  17.230  0.00  0.00    +0.000 OA
ATOM     19  H   UNL     1       1.353   1.203  17.354  0.00  0.00    +0.000 HD
ENDBRANCH  17  18
ENDBRANCH   1  17
TORSDOF 3
ENDMDL
