MODEL 1
REMARK VINA RESULT:      -7.1      0.000      0.000
REMARK  Name = 
REMARK  6 active torsions:
REMARK  status: ('A' for Active; 'I' for Inactive)
REMARK    1  A    between atoms: C_1  and  C_2
REMARK    2  A    between atoms: C_4  and  C_5
REMARK    3  A    between atoms: N_10  and  C_11
REMARK    4  A    between atoms: C_11  and  C_12
REMARK    5  A    between atoms: C_12  and  N_13
REMARK    6  A    between atoms: C_19  and  C_20
REMARK                            x       y       z     vdW  Elec       q    Type
REMARK                         _______ _______ _______ _____ _____    ______ ____
ROOT
ATOM      1  C   UNL     1       7.927   7.385  18.084  0.00  0.00    +0.000 C 
ATOM      2  C   UNL     1       7.097   6.386  17.369  0.00  0.00    +0.000 A 
ATOM      3  N   UNL     1       7.242   6.190  16.024  0.00  0.00    +0.000 NA
ATOM      4  C   UNL     1       6.408   5.225  15.700  0.00  0.00    +0.000 A 
ATOM      5  N   UNL     1       5.692   4.798  16.824  0.00  0.00    +0.000 N 
ATOM      6  C   UNL     1       6.151   5.524  17.900  0.00  0.00    +0.000 A 
ATOM      7  C   UNL     1       5.782   5.419  19.336  0.00  0.00    +0.000 C 
ENDROOT
BRANCH   4   8
ATOM      8  C   UNL     1       6.346   4.646  14.372  0.00  0.00    +0.000 A 
ATOM      9  C   UNL     1       5.355   3.873  13.792  0.00  0.00    +0.000 A 
ATOM     10  C   UNL     1       5.713   3.380  12.502  0.00  0.00    +0.000 A 
ATOM     11  C   UNL     1       6.932   3.862  12.092  0.00  0.00    +0.000 A 
ATOM     12  S   UNL     1       7.644   4.883  13.264  0.00  0.00    +0.000 S 
ENDBRANCH   4   8
BRANCH   5  13
ATOM     13  C   UNL     1       4.740   3.703  16.736  0.00  0.00    +0.000 C 
BRANCH  13  14
ATOM     14  C   UNL     1       3.284   3.856  17.179  0.00  0.00    +0.000 C 
BRANCH  14  15
ATOM     15  N   UNL     1       2.708   2.577  17.651  0.00  0.00    +0.000 NA
ATOM     16  C   UNL     1       3.596   1.829  18.568  0.00  0.00    +0.000 C 
ATOM     17  C   UNL     1       3.727   2.457  19.971  0.00  0.00    +0.000 C 
ATOM     18  N   UNL     1       2.422   2.559  20.631  0.00  0.00    +0.000 NA
ATOM     19  C   UNL     1       1.483   3.305  19.785  0.00  0.00    +0.000 C 
ATOM     20  C   UNL     1       1.406   2.789  18.325  0.00  0.00    +0.000 C 
ATOM     21  H   UNL     1       2.525   3.025  21.530  0.00  0.00    +0.000 HD
ENDBRANCH  14  15
ENDBRANCH  13  14
ENDBRANCH   5  13
TORSDOF 4
ENDMDL
MODEL 2
REMARK VINA RESULT:      -7.0      2.851      3.844
REMARK  Name = 
REMARK  6 active torsions:
REMARK  status: ('A' for Active; 'I' for Inactive)
REMARK    1  A    between atoms: C_1  and  C_2
REMARK    2  A    between atoms: C_4  and  C_5
REMARK    3  A    between atoms: N_10  and  C_11
REMARK    4  A    between atoms: C_11  and  C_12
REMARK    5  A    between atoms: C_12  and  N_13
REMARK    6  A    between atoms: C_19  and  C_20
REMARK                            x       y       z     vdW  Elec       q    Type
REMARK                         _______ _______ _______ _____ _____    ______ ____
ROOT
ATOM      1  C   UNL     1       1.948   9.519  17.831  0.00  0.00    +0.000 C 
ATOM      2  C   UNL     1       2.607   8.218  18.097  0.00  0.00    +0.000 A 
ATOM      3  N   UNL     1       3.508   7.695  17.212  0.00  0.00    +0.000 NA
ATOM      4  C   UNL     1       3.940   6.572  17.745  0.00  0.00    +0.000 A 
ATOM      5  N   UNL     1       3.307   6.335  18.971  0.00  0.00    +0.000 N 
ATOM      6  C   UNL     1       2.470   7.403  19.210  0.00  0.00    +0.000 A 
ATOM      7  C   UNL     1       1.623   7.690  20.397  0.00  0.00    +0.000 C 
ENDROOT
BRANCH   4   8
ATOM      8  C   UNL     1       4.999   5.774  17.159  0.00  0.00    +0.000 A 
ATOM      9  C   UNL     1       4.961   4.918  16.073  0.00  0.00    +0.000 A 
ATOM     10  C   UNL     1       6.183   4.210  15.874  0.00  0.00    +0.000 A 
ATOM     11  C   UNL     1       7.153   4.609  16.761  0.00  0.00    +0.000 A 
ATOM     12  S   UNL     1       6.584   5.812  17.834  0.00  0.00    +0.000 S 
ENDBRANCH   4   8
BRANCH   5  13
ATOM     13  C   UNL     1       3.650   5.180  19.782  0.00  0.00    +0.000 C 
BRANCH  13  14
ATOM     14  C   UNL     1       2.600   4.417  20.593  0.00  0.00    +0.000 C 
BRANCH  14  15
ATOM     15  N   UNL     1       2.778   2.952  20.495  0.00  0.00    +0.000 NA
ATOM     16  C   UNL     1       1.514   2.215  20.274  0.00  0.00    +0.000 C 
ATOM     17  C   UNL     1       0.924   2.385  18.859  0.00  0.00    +0.000 C 
ATOM     18  N   UNL     1       1.866   1.932  17.832  0.00  0.00    +0.000 NA
ATOM     19  C   UNL     1       3.149   2.632  17.977  0.00  0.00    +0.000 C 
ATOM     20  C   UNL     1       3.726   2.595  19.415  0.00  0.00    +0.000 C 
ATOM     21  H   UNL     1       1.480   2.104  16.907  0.00  0.00    +0.000 HD
ENDBRANCH  14  15
ENDBRANCH  13  14
ENDBRANCH   5  13
TORSDOF 4
ENDMDL
MODEL 3
REMARK VINA RESULT:      -6.8      0.953      1.312
REMARK  Name = 
REMARK  6 active torsions:
REMARK  status: ('A' for Active; 'I' for Inactive)
REMARK    1  A    between atoms: C_1  and  C_2
REMARK    2  A    between atoms: C_4  and  C_5
REMARK    3  A    between atoms: N_10  and  C_11
REMARK    4  A    between atoms: C_11  and  C_12
REMARK    5  A    between atoms: C_12  and  N_13
REMARK    6  A    between atoms: C_19  and  C_20
REMARK                            x       y       z     vdW  Elec       q    Type
REMARK                         _______ _______ _______ _____ _____    ______ ____
ROOT
ATOM      1  C   UNL     1       8.064   7.435  18.123  0.00  0.00    +0.000 C 
ATOM      2  C   UNL     1       7.217   6.433  17.433  0.00  0.00    +0.000 A 
ATOM      3  N   UNL     1       7.317   6.243  16.083  0.00  0.00    +0.000 NA
ATOM      4  C   UNL     1       6.479   5.273  15.784  0.00  0.00    +0.000 A 
ATOM      5  N   UNL     1       5.805   4.836  16.930  0.00  0.00    +0.000 N 
ATOM      6  C   UNL     1       6.295   5.563  17.992  0.00  0.00    +0.000 A 
ATOM      7  C   UNL     1       5.977   5.450  19.440  0.00  0.00    +0.000 C 
ENDROOT
BRANCH   4   8
ATOM      8  C   UNL     1       6.376   4.697  14.457  0.00  0.00    +0.000 A 
ATOM      9  C   UNL     1       5.363   3.935  13.903  0.00  0.00    +0.000 A 
ATOM     10  C   UNL     1       5.680   3.442  12.602  0.00  0.00    +0.000 A 
ATOM     11  C   UNL     1       6.893   3.914  12.161  0.00  0.00    +0.000 A 
ATOM     12  S   UNL     1       7.645   4.925  13.315  0.00  0.00    +0.000 S 
ENDBRANCH   4   8
BRANCH   5  13
ATOM     13  C   UNL     1       4.859   3.735  16.871  0.00  0.00    +0.000 C 
BRANCH  13  14
ATOM     14  C   UNL     1       3.906   3.421  18.027  0.00  0.00    +0.000 C 
BRANCH  14  15
ATOM     15  N   UNL     1       2.711   4.293  18.016  0.00  0.00    +0.000 NA
ATOM     16  C   UNL     1       1.452   3.570  17.733  0.00  0.00    +0.000 C 
ATOM     17  C   UNL     1       0.966   2.671  18.888  0.00  0.00    +0.000 C 
ATOM     18  N   UNL     1       0.744   3.451  20.110  0.00  0.00    +0.000 NA
ATOM     19  C   UNL     1       1.961   4.191  20.467  0.00  0.00    +0.000 C 
ATOM     20  C   UNL     1       2.560   5.016  19.300  0.00  0.00    +0.000 C 
ATOM     21  H   UNL     1       0.478   2.832  20.873  0.00  0.00    +0.000 HD
ENDBRANCH  14  15
ENDBRANCH  13  14
ENDBRANCH   5  13
TORSDOF 4
ENDMDL
MODEL 4
REMARK VINA RESULT:      -6.8      3.237      6.536
REMARK  Name = 
REMARK  6 active torsions:
REMARK  status: ('A' for Active; 'I' for Inactive)
REMARK    1  A    between atoms: C_1  and  C_2
REMARK    2  A    between atoms: C_4  and  C_5
REMARK    3  A    between atoms: N_10  and  C_11
REMARK    4  A    between atoms: C_11  and  C_12
REMARK    5  A    between atoms: C_12  and  N_13
REMARK    6  A    between atoms: C_19  and  C_20
REMARK                            x       y       z     vdW  Elec       q    Type
REMARK                         _______ _______ _______ _____ _____    ______ ____
ROOT
ATOM      1  C   UNL     1       1.557   2.543  21.990  0.00  0.00    +0.000 C 
ATOM      2  C   UNL     1       2.164   3.458  20.995  0.00  0.00    +0.000 A 
ATOM      3  N   UNL     1       1.585   4.662  20.706  0.00  0.00    +0.000 NA
ATOM      4  C   UNL     1       2.373   5.250  19.832  0.00  0.00    +0.000 A 
ATOM      5  N   UNL     1       3.462   4.428  19.520  0.00  0.00    +0.000 N 
ATOM      6  C   UNL     1       3.342   3.288  20.285  0.00  0.00    +0.000 A 
ATOM      7  C   UNL     1       4.263   2.126  20.396  0.00  0.00    +0.000 C 
ENDROOT
BRANCH   4   8
ATOM      8  C   UNL     1       2.160   6.605  19.360  0.00  0.00    +0.000 A 
ATOM      9  C   UNL     1       2.339   7.138  18.096  0.00  0.00    +0.000 A 
ATOM     10  C   UNL     1       2.144   8.550  18.050  0.00  0.00    +0.000 A 
ATOM     11  C   UNL     1       1.733   9.047  19.263  0.00  0.00    +0.000 A 
ATOM     12  S   UNL     1       1.606   7.822  20.447  0.00  0.00    +0.000 S 
ENDBRANCH   4   8
BRANCH   5  13
ATOM     13  C   UNL     1       4.505   4.874  18.613  0.00  0.00    +0.000 C 
BRANCH  13  14
ATOM     14  C   UNL     1       4.704   4.243  17.233  0.00  0.00    +0.000 C 
BRANCH  14  15
ATOM     15  N   UNL     1       4.792   5.261  16.162  0.00  0.00    +0.000 NA
ATOM     16  C   UNL     1       5.624   6.430  16.522  0.00  0.00    +0.000 C 
ATOM     17  C   UNL     1       7.138   6.136  16.570  0.00  0.00    +0.000 C 
ATOM     18  N   UNL     1       7.625   5.649  15.275  0.00  0.00    +0.000 NA
ATOM     19  C   UNL     1       6.854   4.473  14.853  0.00  0.00    +0.000 C 
ATOM     20  C   UNL     1       5.318   4.677  14.906  0.00  0.00    +0.000 C 
ATOM     21  H   UNL     1       8.612   5.410  15.344  0.00  0.00    +0.000 HD
ENDBRANCH  14  15
ENDBRANCH  13  14
ENDBRANCH   5  13
TORSDOF 4
ENDMDL
MODEL 5
REMARK VINA RESULT:      -6.8      2.801      3.531
REMARK  Name = 
REMARK  6 active torsions:
REMARK  status: ('A' for Active; 'I' for Inactive)
REMARK    1  A    between atoms: C_1  and  C_2
REMARK    2  A    between atoms: C_4  and  C_5
REMARK    3  A    between atoms: N_10  and  C_11
REMARK    4  A    between atoms: C_11  and  C_12
REMARK    5  A    between atoms: C_12  and  N_13
REMARK    6  A    between atoms: C_19  and  C_20
REMARK                            x       y       z     vdW  Elec       q    Type
REMARK                         _______ _______ _______ _____ _____    ______ ____
ROOT
ATOM      1  C   UNL     1       1.853   9.361  18.024  0.00  0.00    +0.000 C 
ATOM      2  C   UNL     1       2.577   8.074  18.154  0.00  0.00    +0.000 A 
ATOM      3  N   UNL     1       3.435   7.651  17.179  0.00  0.00    +0.000 NA
ATOM      4  C   UNL     1       3.945   6.515  17.602  0.00  0.00    +0.000 A 
ATOM      5  N   UNL     1       3.406   6.169  18.846  0.00  0.00    +0.000 N 
ATOM      6  C   UNL     1       2.548   7.180  19.214  0.00  0.00    +0.000 A 
ATOM      7  C   UNL     1       1.772   7.351  20.471  0.00  0.00    +0.000 C 
ENDROOT
BRANCH   4   8
ATOM      8  C   UNL     1       4.991   5.804  16.893  0.00  0.00    +0.000 A 
ATOM      9  C   UNL     1       4.892   4.864  15.882  0.00  0.00    +0.000 A 
ATOM     10  C   UNL     1       6.148   4.294  15.522  0.00  0.00    +0.000 A 
ATOM     11  C   UNL     1       7.187   4.876  16.206  0.00  0.00    +0.000 A 
ATOM     12  S   UNL     1       6.645   6.085  17.286  0.00  0.00    +0.000 S 
ENDBRANCH   4   8
BRANCH   5  13
ATOM     13  C   UNL     1       3.848   4.976  19.550  0.00  0.00    +0.000 C 
BRANCH  13  14
ATOM     14  C   UNL     1       3.862   3.599  18.883  0.00  0.00    +0.000 C 
BRANCH  14  15
ATOM     15  N   UNL     1       3.279   2.554  19.752  0.00  0.00    +0.000 NA
ATOM     16  C   UNL     1       2.687   3.082  21.001  0.00  0.00    +0.000 C 
ATOM     17  C   UNL     1       1.369   3.856  20.797  0.00  0.00    +0.000 C 
ATOM     18  N   UNL     1       0.349   3.010  20.168  0.00  0.00    +0.000 NA
ATOM     19  C   UNL     1       0.858   2.456  18.907  0.00  0.00    +0.000 C 
ATOM     20  C   UNL     1       2.243   1.773  19.035  0.00  0.00    +0.000 C 
ATOM     21  H   UNL     1      -0.493   3.555  19.993  0.00  0.00    +0.000 HD
ENDBRANCH  14  15
ENDBRANCH  13  14
ENDBRANCH   5  13
TORSDOF 4
ENDMDL
MODEL 6
REMARK VINA RESULT:      -6.7      1.739      4.108
REMARK  Name = 
REMARK  6 active torsions:
REMARK  status: ('A' for Active; 'I' for Inactive)
REMARK    1  A    between atoms: C_1  and  C_2
REMARK    2  A    between atoms: C_4  and  C_5
REMARK    3  A    between atoms: N_10  and  C_11
REMARK    4  A    between atoms: C_11  and  C_12
REMARK    5  A    between atoms: C_12  and  N_13
REMARK    6  A    between atoms: C_19  and  C_20
REMARK                            x       y       z     vdW  Elec       q    Type
REMARK                         _______ _______ _______ _____ _____    ______ ____
ROOT
ATOM      1  C   UNL     1       7.555   5.029  12.019  0.00  0.00    +0.000 C 
ATOM      2  C   UNL     1       7.078   4.776  13.399  0.00  0.00    +0.000 A 
ATOM      3  N   UNL     1       7.749   5.282  14.476  0.00  0.00    +0.000 NA
ATOM      4  C   UNL     1       7.063   4.924  15.541  0.00  0.00    +0.000 A 
ATOM      5  N   UNL     1       5.951   4.159  15.173  0.00  0.00    +0.000 N 
ATOM      6  C   UNL     1       5.945   4.084  13.798  0.00  0.00    +0.000 A 
ATOM      7  C   UNL     1       4.948   3.455  12.891  0.00  0.00    +0.000 C 
ENDROOT
BRANCH   4   8
ATOM      8  C   UNL     1       7.393   5.368  16.881  0.00  0.00    +0.000 A 
ATOM      9  C   UNL     1       7.780   4.630  17.985  0.00  0.00    +0.000 A 
ATOM     10  C   UNL     1       7.897   5.414  19.171  0.00  0.00    +0.000 A 
ATOM     11  C   UNL     1       7.681   6.748  18.922  0.00  0.00    +0.000 A 
ATOM     12  S   UNL     1       7.323   7.044  17.277  0.00  0.00    +0.000 S 
ENDBRANCH   4   8
BRANCH   5  13
ATOM     13  C   UNL     1       5.004   3.684  16.168  0.00  0.00    +0.000 C 
BRANCH  13  14
ATOM     14  C   UNL     1       3.978   4.614  16.820  0.00  0.00    +0.000 C 
BRANCH  14  15
ATOM     15  N   UNL     1       3.933   4.449  18.290  0.00  0.00    +0.000 NA
ATOM     16  C   UNL     1       2.636   4.835  18.890  0.00  0.00    +0.000 C 
ATOM     17  C   UNL     1       1.487   3.850  18.596  0.00  0.00    +0.000 C 
ATOM     18  N   UNL     1       1.800   2.506  19.089  0.00  0.00    +0.000 NA
ATOM     19  C   UNL     1       3.073   2.042  18.524  0.00  0.00    +0.000 C 
ATOM     20  C   UNL     1       4.237   3.054  18.685  0.00  0.00    +0.000 C 
ATOM     21  H   UNL     1       1.054   1.861  18.837  0.00  0.00    +0.000 HD
ENDBRANCH  14  15
ENDBRANCH  13  14
ENDBRANCH   5  13
TORSDOF 4
ENDMDL
MODEL 7
REMARK VINA RESULT:      -6.7      1.625      3.904
REMARK  Name = 
REMARK  6 active torsions:
REMARK  status: ('A' for Active; 'I' for Inactive)
REMARK    1  A    between atoms: C_1  and  C_2
REMARK    2  A    between atoms: C_4  and  C_5
REMARK    3  A    between atoms: N_10  and  C_11
REMARK    4  A    between atoms: C_11  and  C_12
REMARK    5  A    between atoms: C_12  and  N_13
REMARK    6  A    between atoms: C_19  and  C_20
REMARK                            x       y       z     vdW  Elec       q    Type
REMARK                         _______ _______ _______ _____ _____    ______ ____
ROOT
ATOM      1  C   UNL     1       7.558   5.165  12.010  0.00  0.00    +0.000 C 
ATOM      2  C   UNL     1       7.120   4.839  13.388  0.00  0.00    +0.000 A 
ATOM      3  N   UNL     1       7.758   5.375  14.471  0.00  0.00    +0.000 NA
ATOM      4  C   UNL     1       7.118   4.934  15.533  0.00  0.00    +0.000 A 
ATOM      5  N   UNL     1       6.071   4.085  15.157  0.00  0.00    +0.000 N 
ATOM      6  C   UNL     1       6.055   4.043  13.781  0.00  0.00    +0.000 A 
ATOM      7  C   UNL     1       5.106   3.352  12.869  0.00  0.00    +0.000 C 
ENDROOT
BRANCH   4   8
ATOM      8  C   UNL     1       7.424   5.373  16.881  0.00  0.00    +0.000 A 
ATOM      9  C   UNL     1       7.798   4.631  17.987  0.00  0.00    +0.000 A 
ATOM     10  C   UNL     1       7.892   5.410  19.179  0.00  0.00    +0.000 A 
ATOM     11  C   UNL     1       7.673   6.744  18.934  0.00  0.00    +0.000 A 
ATOM     12  S   UNL     1       7.339   7.046  17.285  0.00  0.00    +0.000 S 
ENDBRANCH   4   8
BRANCH   5  13
ATOM     13  C   UNL     1       5.180   3.507  16.149  0.00  0.00    +0.000 C 
BRANCH  13  14
ATOM     14  C   UNL     1       4.065   4.321  16.810  0.00  0.00    +0.000 C 
BRANCH  14  15
ATOM     15  N   UNL     1       2.894   3.485  17.153  0.00  0.00    +0.000 NA
ATOM     16  C   UNL     1       3.229   2.308  17.986  0.00  0.00    +0.000 C 
ATOM     17  C   UNL     1       3.596   2.652  19.444  0.00  0.00    +0.000 C 
ATOM     18  N   UNL     1       2.498   3.351  20.118  0.00  0.00    +0.000 NA
ATOM     19  C   UNL     1       2.115   4.546  19.356  0.00  0.00    +0.000 C 
ATOM     20  C   UNL     1       1.853   4.275  17.852  0.00  0.00    +0.000 C 
ATOM     21  H   UNL     1       2.782   3.616  21.059  0.00  0.00    +0.000 HD
ENDBRANCH  14  15
ENDBRANCH  13  14
ENDBRANCH   5  13
TORSDOF 4
ENDMDL
MODEL 8
REMARK VINA RESULT:      -6.7      3.389      6.650
REMARK  Name = 
REMARK  6 active torsions:
REMARK  status: ('A' for Active; 'I' for Inactive)
REMARK    1  A    between atoms: C_1  and  C_2
REMARK    2  A    between atoms: C_4  and  C_5
REMARK    3  A    between atoms: N_10  and  C_11
REMARK    4  A    between atoms: C_11  and  C_12
REMARK    5  A    between atoms: C_12  and  N_13
REMARK    6  A    between atoms: C_19  and  C_20
REMARK                            x       y       z     vdW  Elec       q    Type
REMARK                         _______ _______ _______ _____ _____    ______ ____
ROOT
ATOM      1  C   UNL     1       1.354   2.615  21.907  0.00  0.00    +0.000 C 
ATOM      2  C   UNL     1       1.957   3.591  20.969  0.00  0.00    +0.000 A 
ATOM      3  N   UNL     1       1.371   4.806  20.750  0.00  0.00    +0.000 NA
ATOM      4  C   UNL     1       2.156   5.450  19.913  0.00  0.00    +0.000 A 
ATOM      5  N   UNL     1       3.251   4.654  19.556  0.00  0.00    +0.000 N 
ATOM      6  C   UNL     1       3.137   3.471  20.252  0.00  0.00    +0.000 A 
ATOM      7  C   UNL     1       4.065   2.310  20.297  0.00  0.00    +0.000 C 
ENDROOT
BRANCH   4   8
ATOM      8  C   UNL     1       1.935   6.828  19.521  0.00  0.00    +0.000 A 
ATOM      9  C   UNL     1       2.088   7.430  18.284  0.00  0.00    +0.000 A 
ATOM     10  C   UNL     1       1.894   8.842  18.320  0.00  0.00    +0.000 A 
ATOM     11  C   UNL     1       1.511   9.272  19.568  0.00  0.00    +0.000 A 
ATOM     12  S   UNL     1       1.406   7.983  20.685  0.00  0.00    +0.000 S 
ENDBRANCH   4   8
BRANCH   5  13
ATOM     13  C   UNL     1       4.292   5.159  18.678  0.00  0.00    +0.000 C 
BRANCH  13  14
ATOM     14  C   UNL     1       4.377   4.756  17.204  0.00  0.00    +0.000 C 
BRANCH  14  15
ATOM     15  N   UNL     1       5.592   3.964  16.912  0.00  0.00    +0.000 NA
ATOM     16  C   UNL     1       5.806   3.715  15.470  0.00  0.00    +0.000 C 
ATOM     17  C   UNL     1       6.248   4.959  14.673  0.00  0.00    +0.000 C 
ATOM     18  N   UNL     1       7.501   5.509  15.200  0.00  0.00    +0.000 NA
ATOM     19  C   UNL     1       7.364   5.798  16.633  0.00  0.00    +0.000 C 
ATOM     20  C   UNL     1       6.805   4.614  17.462  0.00  0.00    +0.000 C 
ATOM     21  H   UNL     1       7.745   6.360  14.697  0.00  0.00    +0.000 HD
ENDBRANCH  14  15
ENDBRANCH  13  14
ENDBRANCH   5  13
TORSDOF 4
ENDMDL
MODEL 9
REMARK VINA RESULT:      -6.7      3.684      6.627
REMARK  Name = 
REMARK  6 active torsions:
REMARK  status: ('A' for Active; 'I' for Inactive)
REMARK    1  A    between atoms: C_1  and  C_2
REMARK    2  A    between atoms: C_4  and  C_5
REMARK    3  A    between atoms: N_10  and  C_11
REMARK    4  A    between atoms: C_11  and  C_12
REMARK    5  A    between atoms: C_12  and  N_13
REMARK    6  A    between atoms: C_19  and  C_20
REMARK                            x       y       z     vdW  Elec       q    Type
REMARK                         _______ _______ _______ _____ _____    ______ ____
ROOT
ATOM      1  C   UNL     1       1.861   2.798  21.114  0.00  0.00    +0.000 C 
ATOM      2  C   UNL     1       2.342   3.975  20.352  0.00  0.00    +0.000 A 
ATOM      3  N   UNL     1       1.605   5.125  20.301  0.00  0.00    +0.000 NA
ATOM      4  C   UNL     1       2.308   5.984  19.595  0.00  0.00    +0.000 A 
ATOM      5  N   UNL     1       3.500   5.397  19.155  0.00  0.00    +0.000 N 
ATOM      6  C   UNL     1       3.535   4.117  19.661  0.00  0.00    +0.000 A 
ATOM      7  C   UNL     1       4.605   3.090  19.558  0.00  0.00    +0.000 C 
ENDROOT
BRANCH   4   8
ATOM      8  C   UNL     1       1.914   7.367  19.409  0.00  0.00    +0.000 A 
ATOM      9  C   UNL     1       1.940   8.146  18.266  0.00  0.00    +0.000 A 
ATOM     10  C   UNL     1       1.588   9.507  18.508  0.00  0.00    +0.000 A 
ATOM     11  C   UNL     1       1.217   9.713  19.814  0.00  0.00    +0.000 A 
ATOM     12  S   UNL     1       1.312   8.280  20.741  0.00  0.00    +0.000 S 
ENDBRANCH   4   8
BRANCH   5  13
ATOM     13  C   UNL     1       4.476   6.160  18.395  0.00  0.00    +0.000 C 
BRANCH  13  14
ATOM     14  C   UNL     1       4.605   6.027  16.876  0.00  0.00    +0.000 C 
BRANCH  14  15
ATOM     15  N   UNL     1       5.956   6.391  16.397  0.00  0.00    +0.000 NA
ATOM     16  C   UNL     1       6.979   6.409  17.466  0.00  0.00    +0.000 C 
ATOM     17  C   UNL     1       7.378   5.011  17.981  0.00  0.00    +0.000 C 
ATOM     18  N   UNL     1       7.909   4.178  16.898  0.00  0.00    +0.000 NA
ATOM     19  C   UNL     1       6.940   4.098  15.798  0.00  0.00    +0.000 C 
ATOM     20  C   UNL     1       6.413   5.477  15.324  0.00  0.00    +0.000 C 
ATOM     21  H   UNL     1       8.114   3.244  17.248  0.00  0.00    +0.000 HD
ENDBRANCH  14  15
ENDBRANCH  13  14
ENDBRANCH   5  13
TORSDOF 4
ENDMDL
