MODEL 1
REMARK VINA RESULT:      -7.1      0.000      0.000
REMARK  Name = 
REMARK  12 active torsions:
REMARK  status: ('A' for Active; 'I' for Inactive)
REMARK    1  A    between atoms: C_1  and  C_2
REMARK    2  A    between atoms: C_2  and  C_3
REMARK    3  A    between atoms: N_5  and  C_6
REMARK    4  A    between atoms: N_5  and  C_12
REMARK    5  A    between atoms: C_12  and  C_13
REMARK    6  A    between atoms: C_13  and  O_15
REMARK    7  A    between atoms: O_15  and  C_16
REMARK    8  A    between atoms: N_19  and  C_20
REMARK    9  A    between atoms: C_20  and  C_21
REMARK   10  A    between atoms: C_21  and  N_22
REMARK   11  A    between atoms: N_27  and  C_28
REMARK   12  A    between atoms: C_28  and  C_29
REMARK                            x       y       z     vdW  Elec       q    Type
REMARK                         _______ _______ _______ _____ _____    ______ ____
ROOT
ATOM      1  C   UNL     1       3.812   4.562  18.805  0.00  0.00    +0.000 C 
ATOM      2  C   UNL     1       2.322   4.580  18.363  0.00  0.00    +0.000 C 
ATOM      3  C   UNL     1       1.912   5.880  17.692  0.00  0.00    +0.000 C 
ATOM      4  N   UNL     1       2.119   7.028  18.590  0.00  0.00    +0.000 NA
ATOM      5  C   UNL     1       3.520   7.086  19.043  0.00  0.00    +0.000 C 
ATOM      6  C   UNL     1       3.943   5.791  19.751  0.00  0.00    +0.000 C 
ENDROOT
BRANCH   1   9
ATOM      7  C   UNL     1       4.819   3.734  16.596  0.00  0.00    +0.000 C 
ATOM      8  O   UNL     1       3.880   2.954  16.418  0.00  0.00    +0.000 OA
ATOM      9  N   UNL     1       4.860   4.617  17.688  0.00  0.00    +0.000 N 
BRANCH   9  10
ATOM     10  C   UNL     1       6.006   5.467  17.910  0.00  0.00    +0.000 A 
ATOM     11  C   UNL     1       6.147   6.658  17.184  0.00  0.00    +0.000 A 
ATOM     12  C   UNL     1       7.203   7.538  17.443  0.00  0.00    +0.000 A 
ATOM     13  C   UNL     1       8.129   7.247  18.442  0.00  0.00    +0.000 A 
ATOM     14  C   UNL     1       8.002   6.073  19.176  0.00  0.00    +0.000 A 
ATOM     15  C   UNL     1       6.949   5.190  18.910  0.00  0.00    +0.000 A 
ENDBRANCH   9  10
BRANCH   7  17
ATOM     16  C   UNL     1       5.572   4.302  14.261  0.00  0.00    +0.000 C 
ATOM     17  C   UNL     1       5.978   3.710  15.608  0.00  0.00    +0.000 C 
ENDBRANCH   7  17
ENDBRANCH   1   9
BRANCH   1  18
ATOM     18  C   UNL     1       3.896   3.237  19.600  0.00  0.00    +0.000 C 
ATOM     19  O   UNL     1       4.943   2.669  19.888  0.00  0.00    +0.000 OA
BRANCH  18  20
ATOM     20  O   UNL     1       2.669   2.841  20.050  0.00  0.00    +0.000 OA
ATOM     21  C   UNL     1       2.512   2.782  21.469  0.00  0.00    +0.000 C 
ENDBRANCH  18  20
ENDBRANCH   1  18
BRANCH   4  22
ATOM     22  C   UNL     1       1.757   8.290  17.907  0.00  0.00    +0.000 C 
BRANCH  22  23
ATOM     23  C   UNL     1       1.513   9.475  18.863  0.00  0.00    +0.000 C 
BRANCH  23  24
ATOM     24  N   UNL     1       0.188  10.071  18.678  0.00  0.00    +0.000 N 
ATOM     25  C   UNL     1      -0.617   9.617  17.664  0.00  0.00    +0.000 A 
ATOM     26  C   UNL     1      -1.837  10.111  17.472  0.00  0.00    +0.000 A 
ATOM     27  C   UNL     1      -2.307  11.221  18.320  0.00  0.00    +0.000 A 
ATOM     28  O   UNL     1      -3.442  11.670  18.139  0.00  0.00    +0.000 OA
ATOM     29  N   UNL     1      -1.411  11.703  19.254  0.00  0.00    +0.000 N 
ATOM     30  C   UNL     1      -0.213  11.069  19.567  0.00  0.00    +0.000 A 
ATOM     31  O   UNL     1       0.456  11.369  20.558  0.00  0.00    +0.000 OA
BRANCH  29  32
ATOM     32  C   UNL     1      -1.754  12.910  19.993  0.00  0.00    +0.000 C 
ATOM     33  C   UNL     1      -2.575  12.643  21.245  0.00  0.00    +0.000 C 
ENDBRANCH  29  32
ENDBRANCH  23  24
ENDBRANCH  22  23
ENDBRANCH   4  22
TORSDOF 9
ENDMDL
MODEL 2
REMARK VINA RESULT:      -6.9      1.361      1.757
REMARK  Name = 
REMARK  12 active torsions:
REMARK  status: ('A' for Active; 'I' for Inactive)
REMARK    1  A    between atoms: C_1  and  C_2
REMARK    2  A    between atoms: C_2  and  C_3
REMARK    3  A    between atoms: N_5  and  C_6
REMARK    4  A    between atoms: N_5  and  C_12
REMARK    5  A    between atoms: C_12  and  C_13
REMARK    6  A    between atoms: C_13  and  O_15
REMARK    7  A    between atoms: O_15  and  C_16
REMARK    8  A    between atoms: N_19  and  C_20
REMARK    9  A    between atoms: C_20  and  C_21
REMARK   10  A    between atoms: C_21  and  N_22
REMARK   11  A    between atoms: N_27  and  C_28
REMARK   12  A    between atoms: C_28  and  C_29
REMARK                            x       y       z     vdW  Elec       q    Type
REMARK                         _______ _______ _______ _____ _____    ______ ____
ROOT
ATOM      1  C   UNL     1       3.725   4.524  18.845  0.00  0.00    +0.000 C 
ATOM      2  C   UNL     1       2.247   4.470  18.367  0.00  0.00    +0.000 C 
ATOM      3  C   UNL     1       1.789   5.750  17.689  0.00  0.00    +0.000 C 
ATOM      4  N   UNL     1       1.918   6.904  18.594  0.00  0.00    +0.000 NA
ATOM      5  C   UNL     1       3.303   7.029  19.081  0.00  0.00    +0.000 C 
ATOM      6  C   UNL     1       3.773   5.755  19.796  0.00  0.00    +0.000 C 
ENDROOT
BRANCH   1   9
ATOM      7  C   UNL     1       4.833   3.743  16.667  0.00  0.00    +0.000 C 
ATOM      8  O   UNL     1       3.946   2.909  16.473  0.00  0.00    +0.000 OA
ATOM      9  N   UNL     1       4.796   4.634  17.754  0.00  0.00    +0.000 N 
BRANCH   9  10
ATOM     10  C   UNL     1       5.884   5.551  17.998  0.00  0.00    +0.000 A 
ATOM     11  C   UNL     1       6.870   5.233  18.942  0.00  0.00    +0.000 A 
ATOM     12  C   UNL     1       7.978   6.066  19.134  0.00  0.00    +0.000 A 
ATOM     13  C   UNL     1       8.123   7.225  18.375  0.00  0.00    +0.000 A 
ATOM     14  C   UNL     1       7.157   7.553  17.430  0.00  0.00    +0.000 A 
ATOM     15  C   UNL     1       6.047   6.722  17.244  0.00  0.00    +0.000 A 
ENDBRANCH   9  10
BRANCH   7  17
ATOM     16  C   UNL     1       5.614   4.356  14.353  0.00  0.00    +0.000 C 
ATOM     17  C   UNL     1       6.016   3.781  15.709  0.00  0.00    +0.000 C 
ENDBRANCH   7  17
ENDBRANCH   1   9
BRANCH   1  18
ATOM     18  C   UNL     1       3.854   3.202  19.640  0.00  0.00    +0.000 C 
ATOM     19  O   UNL     1       4.921   2.667  19.923  0.00  0.00    +0.000 OA
BRANCH  18  20
ATOM     20  O   UNL     1       2.643   2.767  20.094  0.00  0.00    +0.000 OA
ATOM     21  C   UNL     1       2.485   2.727  21.514  0.00  0.00    +0.000 C 
ENDBRANCH  18  20
ENDBRANCH   1  18
BRANCH   4  22
ATOM     22  C   UNL     1       1.510   8.149  17.905  0.00  0.00    +0.000 C 
BRANCH  22  23
ATOM     23  C   UNL     1       2.053   9.436  18.558  0.00  0.00    +0.000 C 
BRANCH  23  24
ATOM     24  N   UNL     1       1.094  10.028  19.492  0.00  0.00    +0.000 N 
ATOM     25  C   UNL     1       0.636   9.282  20.549  0.00  0.00    +0.000 A 
ATOM     26  C   UNL     1      -0.218   9.786  21.436  0.00  0.00    +0.000 A 
ATOM     27  C   UNL     1      -0.742  11.149  21.240  0.00  0.00    +0.000 A 
ATOM     28  O   UNL     1      -1.529  11.610  22.070  0.00  0.00    +0.000 OA
ATOM     29  N   UNL     1      -0.323  11.810  20.102  0.00  0.00    +0.000 N 
ATOM     30  C   UNL     1       0.700  11.350  19.279  0.00  0.00    +0.000 A 
ATOM     31  O   UNL     1       1.223  12.056  18.415  0.00  0.00    +0.000 OA
BRANCH  29  32
ATOM     32  C   UNL     1      -0.945  13.083  19.764  0.00  0.00    +0.000 C 
ATOM     33  C   UNL     1      -0.283  14.278  20.433  0.00  0.00    +0.000 C 
ENDBRANCH  29  32
ENDBRANCH  23  24
ENDBRANCH  22  23
ENDBRANCH   4  22
TORSDOF 9
ENDMDL
MODEL 3
REMARK VINA RESULT:      -6.9      2.212      3.951
REMARK  Name = 
REMARK  12 active torsions:
REMARK  status: ('A' for Active; 'I' for Inactive)
REMARK    1  A    between atoms: C_1  and  C_2
REMARK    2  A    between atoms: C_2  and  C_3
REMARK    3  A    between atoms: N_5  and  C_6
REMARK    4  A    between atoms: N_5  and  C_12
REMARK    5  A    between atoms: C_12  and  C_13
REMARK    6  A    between atoms: C_13  and  O_15
REMARK    7  A    between atoms: O_15  and  C_16
REMARK    8  A    between atoms: N_19  and  C_20
REMARK    9  A    between atoms: C_20  and  C_21
REMARK   10  A    between atoms: C_21  and  N_22
REMARK   11  A    between atoms: N_27  and  C_28
REMARK   12  A    between atoms: C_28  and  C_29
REMARK                            x       y       z     vdW  Elec       q    Type
REMARK                         _______ _______ _______ _____ _____    ______ ____
ROOT
ATOM      1  C   UNL     1       5.840   5.725  17.744  0.00  0.00    +0.000 C 
ATOM      2  C   UNL     1       5.240   5.675  19.176  0.00  0.00    +0.000 C 
ATOM      3  C   UNL     1       3.744   5.944  19.209  0.00  0.00    +0.000 C 
ATOM      4  N   UNL     1       3.432   7.268  18.647  0.00  0.00    +0.000 NA
ATOM      5  C   UNL     1       3.961   7.386  17.276  0.00  0.00    +0.000 C 
ATOM      6  C   UNL     1       5.477   7.148  17.228  0.00  0.00    +0.000 C 
ENDROOT
BRANCH   1   9
ATOM      7  C   UNL     1       5.764   4.652  15.415  0.00  0.00    +0.000 C 
ATOM      8  O   UNL     1       6.606   5.444  14.984  0.00  0.00    +0.000 OA
ATOM      9  N   UNL     1       5.363   4.649  16.762  0.00  0.00    +0.000 N 
BRANCH   9  10
ATOM     10  C   UNL     1       4.323   3.760  17.223  0.00  0.00    +0.000 A 
ATOM     11  C   UNL     1       2.979   4.054  16.953  0.00  0.00    +0.000 A 
ATOM     12  C   UNL     1       1.961   3.165  17.315  0.00  0.00    +0.000 A 
ATOM     13  C   UNL     1       2.272   1.961  17.943  0.00  0.00    +0.000 A 
ATOM     14  C   UNL     1       3.600   1.650  18.213  0.00  0.00    +0.000 A 
ATOM     15  C   UNL     1       4.617   2.544  17.856  0.00  0.00    +0.000 A 
ENDBRANCH   9  10
BRANCH   7  17
ATOM     16  C   UNL     1       5.884   3.630  13.117  0.00  0.00    +0.000 C 
ATOM     17  C   UNL     1       5.125   3.672  14.441  0.00  0.00    +0.000 C 
ENDBRANCH   7  17
ENDBRANCH   1   9
BRANCH   1  18
ATOM     18  C   UNL     1       7.357   5.608  18.026  0.00  0.00    +0.000 C 
ATOM     19  O   UNL     1       7.904   4.598  18.458  0.00  0.00    +0.000 OA
BRANCH  18  20
ATOM     20  O   UNL     1       8.033   6.722  17.621  0.00  0.00    +0.000 OA
ATOM     21  C   UNL     1       8.398   7.642  18.652  0.00  0.00    +0.000 C 
ENDBRANCH  18  20
ENDBRANCH   1  18
BRANCH   4  22
ATOM     22  C   UNL     1       1.969   7.496  18.645  0.00  0.00    +0.000 C 
BRANCH  22  23
ATOM     23  C   UNL     1       1.565   8.983  18.574  0.00  0.00    +0.000 C 
BRANCH  23  24
ATOM     24  N   UNL     1       1.028   9.470  19.845  0.00  0.00    +0.000 N 
ATOM     25  C   UNL     1       0.964   8.618  20.919  0.00  0.00    +0.000 A 
ATOM     26  C   UNL     1       0.505   9.024  22.101  0.00  0.00    +0.000 A 
ATOM     27  C   UNL     1      -0.014  10.395  22.241  0.00  0.00    +0.000 A 
ATOM     28  O   UNL     1      -0.432  10.764  23.341  0.00  0.00    +0.000 OA
ATOM     29  N   UNL     1      -0.019  11.170  21.098  0.00  0.00    +0.000 N 
ATOM     30  C   UNL     1       0.622  10.804  19.918  0.00  0.00    +0.000 A 
ATOM     31  O   UNL     1       0.815  11.597  18.996  0.00  0.00    +0.000 OA
BRANCH  29  32
ATOM     32  C   UNL     1      -0.683  12.466  21.135  0.00  0.00    +0.000 C 
ATOM     33  C   UNL     1      -2.142  12.412  20.708  0.00  0.00    +0.000 C 
ENDBRANCH  29  32
ENDBRANCH  23  24
ENDBRANCH  22  23
ENDBRANCH   4  22
TORSDOF 9
ENDMDL
MODEL 4
REMARK VINA RESULT:      -6.8      0.811      1.286
REMARK  Name = 
REMARK  12 active torsions:
REMARK  status: ('A' for Active; 'I' for Inactive)
REMARK    1  A    between atoms: C_1  and  C_2
REMARK    2  A    between atoms: C_2  and  C_3
REMARK    3  A    between atoms: N_5  and  C_6
REMARK    4  A    between atoms: N_5  and  C_12
REMARK    5  A    between atoms: C_12  and  C_13
REMARK    6  A    between atoms: C_13  and  O_15
REMARK    7  A    between atoms: O_15  and  C_16
REMARK    8  A    between atoms: N_19  and  C_20
REMARK    9  A    between atoms: C_20  and  C_21
REMARK   10  A    between atoms: C_21  and  N_22
REMARK   11  A    between atoms: N_27  and  C_28
REMARK   12  A    between atoms: C_28  and  C_29
REMARK                            x       y       z     vdW  Elec       q    Type
REMARK                         _______ _______ _______ _____ _____    ______ ____
ROOT
ATOM      1  C   UNL     1       3.887   4.597  18.302  0.00  0.00    +0.000 C 
ATOM      2  C   UNL     1       2.418   4.772  17.827  0.00  0.00    +0.000 C 
ATOM      3  C   UNL     1       2.050   6.218  17.537  0.00  0.00    +0.000 C 
ATOM      4  N   UNL     1       2.231   7.060  18.731  0.00  0.00    +0.000 NA
ATOM      5  C   UNL     1       3.612   6.956  19.234  0.00  0.00    +0.000 C 
ATOM      6  C   UNL     1       3.992   5.505  19.562  0.00  0.00    +0.000 C 
ENDROOT
BRANCH   1   9
ATOM      7  C   UNL     1       5.054   4.306  16.036  0.00  0.00    +0.000 C 
ATOM      8  O   UNL     1       4.179   3.530  15.645  0.00  0.00    +0.000 OA
ATOM      9  N   UNL     1       4.983   4.943  17.287  0.00  0.00    +0.000 N 
BRANCH   9  10
ATOM     10  C   UNL     1       6.057   5.789  17.749  0.00  0.00    +0.000 A 
ATOM     11  C   UNL     1       6.972   5.307  18.695  0.00  0.00    +0.000 A 
ATOM     12  C   UNL     1       8.069   6.079  19.094  0.00  0.00    +0.000 A 
ATOM     13  C   UNL     1       8.275   7.341  18.543  0.00  0.00    +0.000 A 
ATOM     14  C   UNL     1       7.380   7.834  17.599  0.00  0.00    +0.000 A 
ATOM     15  C   UNL     1       6.280   7.063  17.206  0.00  0.00    +0.000 A 
ENDBRANCH   9  10
BRANCH   7  17
ATOM     16  C   UNL     1       6.082   3.886  13.776  0.00  0.00    +0.000 C 
ATOM     17  C   UNL     1       6.258   4.553  15.138  0.00  0.00    +0.000 C 
ENDBRANCH   7  17
ENDBRANCH   1   9
BRANCH   1  18
ATOM     18  C   UNL     1       3.923   3.100  18.692  0.00  0.00    +0.000 C 
ATOM     19  O   UNL     1       3.198   2.240  18.204  0.00  0.00    +0.000 OA
BRANCH  18  20
ATOM     20  O   UNL     1       4.944   2.829  19.558  0.00  0.00    +0.000 OA
ATOM     21  C   UNL     1       4.676   1.836  20.550  0.00  0.00    +0.000 C 
ENDBRANCH  18  20
ENDBRANCH   1  18
BRANCH   4  22
ATOM     22  C   UNL     1       1.911   8.472  18.420  0.00  0.00    +0.000 C 
BRANCH  22  23
ATOM     23  C   UNL     1       1.260   9.240  19.588  0.00  0.00    +0.000 C 
BRANCH  23  24
ATOM     24  N   UNL     1       0.030   9.923  19.181  0.00  0.00    +0.000 N 
ATOM     25  C   UNL     1      -0.461   9.726  17.915  0.00  0.00    +0.000 A 
ATOM     26  C   UNL     1      -1.587  10.307  17.509  0.00  0.00    +0.000 A 
ATOM     27  C   UNL     1      -2.284  11.240  18.412  0.00  0.00    +0.000 A 
ATOM     28  O   UNL     1      -3.330  11.769  18.030  0.00  0.00    +0.000 OA
ATOM     29  N   UNL     1      -1.684  11.476  19.633  0.00  0.00    +0.000 N 
ATOM     30  C   UNL     1      -0.610  10.735  20.118  0.00  0.00    +0.000 A 
ATOM     31  O   UNL     1      -0.243  10.793  21.293  0.00  0.00    +0.000 OA
BRANCH  29  32
ATOM     32  C   UNL     1      -2.230  12.520  20.490  0.00  0.00    +0.000 C 
ATOM     33  C   UNL     1      -1.527  13.860  20.336  0.00  0.00    +0.000 C 
ENDBRANCH  29  32
ENDBRANCH  23  24
ENDBRANCH  22  23
ENDBRANCH   4  22
TORSDOF 9
ENDMDL
MODEL 5
REMARK VINA RESULT:      -6.8      1.108      1.728
REMARK  Name = 
REMARK  12 active torsions:
REMARK  status: ('A' for Active; 'I' for Inactive)
REMARK    1  A    between atoms: C_1  and  C_2
REMARK    2  A    between atoms: C_2  and  C_3
REMARK    3  A    between atoms: N_5  and  C_6
REMARK    4  A    between atoms: N_5  and  C_12
REMARK    5  A    between atoms: C_12  and  C_13
REMARK    6  A    between atoms: C_13  and  O_15
REMARK    7  A    between atoms: O_15  and  C_16
REMARK    8  A    between atoms: N_19  and  C_20
REMARK    9  A    between atoms: C_20  and  C_21
REMARK   10  A    between atoms: C_21  and  N_22
REMARK   11  A    between atoms: N_27  and  C_28
REMARK   12  A    between atoms: C_28  and  C_29
REMARK                            x       y       z     vdW  Elec       q    Type
REMARK                         _______ _______ _______ _____ _____    ______ ____
ROOT
ATOM      1  C   UNL     1       3.735   4.622  18.688  0.00  0.00    +0.000 C 
ATOM      2  C   UNL     1       2.268   4.837  18.223  0.00  0.00    +0.000 C 
ATOM      3  C   UNL     1       2.013   6.227  17.665  0.00  0.00    +0.000 C 
ATOM      4  N   UNL     1       2.314   7.263  18.667  0.00  0.00    +0.000 NA
ATOM      5  C   UNL     1       3.701   7.132  19.148  0.00  0.00    +0.000 C 
ATOM      6  C   UNL     1       3.968   5.742  19.743  0.00  0.00    +0.000 C 
ENDROOT
BRANCH   1   9
ATOM      7  C   UNL     1       4.767   3.809  16.485  0.00  0.00    +0.000 C 
ATOM      8  O   UNL     1       3.805   3.069  16.265  0.00  0.00    +0.000 OA
ATOM      9  N   UNL     1       4.813   4.664  17.599  0.00  0.00    +0.000 N 
BRANCH   9  10
ATOM     10  C   UNL     1       5.983   5.465  17.871  0.00  0.00    +0.000 A 
ATOM     11  C   UNL     1       6.182   6.671  17.184  0.00  0.00    +0.000 A 
ATOM     12  C   UNL     1       7.263   7.504  17.492  0.00  0.00    +0.000 A 
ATOM     13  C   UNL     1       8.157   7.150  18.500  0.00  0.00    +0.000 A 
ATOM     14  C   UNL     1       7.972   5.960  19.195  0.00  0.00    +0.000 A 
ATOM     15  C   UNL     1       6.894   5.125  18.881  0.00  0.00    +0.000 A 
ENDBRANCH   9  10
BRANCH   7  17
ATOM     16  C   UNL     1       5.600   4.400  14.183  0.00  0.00    +0.000 C 
ATOM     17  C   UNL     1       5.950   3.764  15.526  0.00  0.00    +0.000 C 
ENDBRANCH   7  17
ENDBRANCH   1   9
BRANCH   1  18
ATOM     18  C   UNL     1       3.659   3.231  19.361  0.00  0.00    +0.000 C 
ATOM     19  O   UNL     1       4.629   2.616  19.789  0.00  0.00    +0.000 OA
BRANCH  18  20
ATOM     20  O   UNL     1       2.367   2.824  19.533  0.00  0.00    +0.000 OA
ATOM     21  C   UNL     1       1.935   2.668  20.887  0.00  0.00    +0.000 C 
ENDBRANCH  18  20
ENDBRANCH   1  18
BRANCH   4  22
ATOM     22  C   UNL     1       2.103   8.612  18.095  0.00  0.00    +0.000 C 
BRANCH  22  23
ATOM     23  C   UNL     1       0.648   9.113  18.186  0.00  0.00    +0.000 C 
BRANCH  23  24
ATOM     24  N   UNL     1       0.360   9.742  19.477  0.00  0.00    +0.000 N 
ATOM     25  C   UNL     1       0.567   9.030  20.632  0.00  0.00    +0.000 A 
ATOM     26  C   UNL     1       0.342   9.567  21.828  0.00  0.00    +0.000 A 
ATOM     27  C   UNL     1      -0.210  10.930  21.914  0.00  0.00    +0.000 A 
ATOM     28  O   UNL     1      -0.410  11.423  23.027  0.00  0.00    +0.000 OA
ATOM     29  N   UNL     1      -0.494  11.555  20.716  0.00  0.00    +0.000 N 
ATOM     30  C   UNL     1      -0.093  11.061  19.478  0.00  0.00    +0.000 A 
ATOM     31  O   UNL     1      -0.139  11.738  18.449  0.00  0.00    +0.000 OA
BRANCH  29  32
ATOM     32  C   UNL     1      -1.206  12.826  20.741  0.00  0.00    +0.000 C 
ATOM     33  C   UNL     1      -2.715  12.678  20.635  0.00  0.00    +0.000 C 
ENDBRANCH  29  32
ENDBRANCH  23  24
ENDBRANCH  22  23
ENDBRANCH   4  22
TORSDOF 9
ENDMDL
MODEL 6
REMARK VINA RESULT:      -6.7      2.172      3.873
REMARK  Name = 
REMARK  12 active torsions:
REMARK  status: ('A' for Active; 'I' for Inactive)
REMARK    1  A    between atoms: C_1  and  C_2
REMARK    2  A    between atoms: C_2  and  C_3
REMARK    3  A    between atoms: N_5  and  C_6
REMARK    4  A    between atoms: N_5  and  C_12
REMARK    5  A    between atoms: C_12  and  C_13
REMARK    6  A    between atoms: C_13  and  O_15
REMARK    7  A    between atoms: O_15  and  C_16
REMARK    8  A    between atoms: N_19  and  C_20
REMARK    9  A    between atoms: C_20  and  C_21
REMARK   10  A    between atoms: C_21  and  N_22
REMARK   11  A    between atoms: N_27  and  C_28
REMARK   12  A    between atoms: C_28  and  C_29
REMARK                            x       y       z     vdW  Elec       q    Type
REMARK                         _______ _______ _______ _____ _____    ______ ____
ROOT
ATOM      1  C   UNL     1       6.022   5.997  18.014  0.00  0.00    +0.000 C 
ATOM      2  C   UNL     1       5.168   6.082  19.309  0.00  0.00    +0.000 C 
ATOM      3  C   UNL     1       3.681   6.243  19.038  0.00  0.00    +0.000 C 
ATOM      4  N   UNL     1       3.416   7.461  18.254  0.00  0.00    +0.000 NA
ATOM      5  C   UNL     1       4.184   7.447  16.997  0.00  0.00    +0.000 C 
ATOM      6  C   UNL     1       5.693   7.314  17.254  0.00  0.00    +0.000 C 
ENDROOT
BRANCH   1   9
ATOM      7  C   UNL     1       6.447   4.633  15.883  0.00  0.00    +0.000 C 
ATOM      8  O   UNL     1       7.325   5.416  15.514  0.00  0.00    +0.000 OA
ATOM      9  N   UNL     1       5.789   4.775  17.117  0.00  0.00    +0.000 N 
BRANCH   9  10
ATOM     10  C   UNL     1       4.714   3.887  17.491  0.00  0.00    +0.000 A 
ATOM     11  C   UNL     1       4.874   3.008  18.571  0.00  0.00    +0.000 A 
ATOM     12  C   UNL     1       3.818   2.200  19.004  0.00  0.00    +0.000 A 
ATOM     13  C   UNL     1       2.579   2.267  18.371  0.00  0.00    +0.000 A 
ATOM     14  C   UNL     1       2.400   3.137  17.301  0.00  0.00    +0.000 A 
ATOM     15  C   UNL     1       3.460   3.940  16.865  0.00  0.00    +0.000 A 
ENDBRANCH   9  10
BRANCH   7  17
ATOM     16  C   UNL     1       5.687   4.017  13.563  0.00  0.00    +0.000 C 
ATOM     17  C   UNL     1       6.050   3.496  14.951  0.00  0.00    +0.000 C 
ENDBRANCH   7  17
ENDBRANCH   1   9
BRANCH   1  18
ATOM     18  C   UNL     1       7.463   6.025  18.576  0.00  0.00    +0.000 C 
ATOM     19  O   UNL     1       8.241   6.963  18.437  0.00  0.00    +0.000 OA
BRANCH  18  20
ATOM     20  O   UNL     1       7.723   4.932  19.352  0.00  0.00    +0.000 OA
ATOM     21  C   UNL     1       8.519   5.166  20.516  0.00  0.00    +0.000 C 
ENDBRANCH  18  20
ENDBRANCH   1  18
BRANCH   4  22
ATOM     22  C   UNL     1       1.970   7.581  17.961  0.00  0.00    +0.000 C 
BRANCH  22  23
ATOM     23  C   UNL     1       1.422   9.018  18.077  0.00  0.00    +0.000 C 
BRANCH  23  24
ATOM     24  N   UNL     1       1.073   9.366  19.455  0.00  0.00    +0.000 N 
ATOM     25  C   UNL     1       1.105   8.394  20.423  0.00  0.00    +0.000 A 
ATOM     26  C   UNL     1       0.819   8.668  21.693  0.00  0.00    +0.000 A 
ATOM     27  C   UNL     1       0.387  10.029  22.057  0.00  0.00    +0.000 A 
ATOM     28  O   UNL     1       0.129  10.277  23.237  0.00  0.00    +0.000 OA
ATOM     29  N   UNL     1       0.275  10.936  21.021  0.00  0.00    +0.000 N 
ATOM     30  C   UNL     1       0.744  10.693  19.733  0.00  0.00    +0.000 A 
ATOM     31  O   UNL     1       0.856  11.585  18.891  0.00  0.00    +0.000 OA
BRANCH  29  32
ATOM     32  C   UNL     1      -0.317  12.239  21.294  0.00  0.00    +0.000 C 
ATOM     33  C   UNL     1      -1.824  12.274  21.091  0.00  0.00    +0.000 C 
ENDBRANCH  29  32
ENDBRANCH  23  24
ENDBRANCH  22  23
ENDBRANCH   4  22
TORSDOF 9
ENDMDL
MODEL 7
REMARK VINA RESULT:      -6.7      1.391      2.181
REMARK  Name = 
REMARK  12 active torsions:
REMARK  status: ('A' for Active; 'I' for Inactive)
REMARK    1  A    between atoms: C_1  and  C_2
REMARK    2  A    between atoms: C_2  and  C_3
REMARK    3  A    between atoms: N_5  and  C_6
REMARK    4  A    between atoms: N_5  and  C_12
REMARK    5  A    between atoms: C_12  and  C_13
REMARK    6  A    between atoms: C_13  and  O_15
REMARK    7  A    between atoms: O_15  and  C_16
REMARK    8  A    between atoms: N_19  and  C_20
REMARK    9  A    between atoms: C_20  and  C_21
REMARK   10  A    between atoms: C_21  and  N_22
REMARK   11  A    between atoms: N_27  and  C_28
REMARK   12  A    between atoms: C_28  and  C_29
REMARK                            x       y       z     vdW  Elec       q    Type
REMARK                         _______ _______ _______ _____ _____    ______ ____
ROOT
ATOM      1  C   UNL     1       3.357   4.950  18.830  0.00  0.00    +0.000 C 
ATOM      2  C   UNL     1       1.928   5.135  18.249  0.00  0.00    +0.000 C 
ATOM      3  C   UNL     1       1.745   6.452  17.515  0.00  0.00    +0.000 C 
ATOM      4  N   UNL     1       2.010   7.595  18.404  0.00  0.00    +0.000 NA
ATOM      5  C   UNL     1       3.361   7.497  18.986  0.00  0.00    +0.000 C 
ATOM      6  C   UNL     1       3.554   6.184  19.758  0.00  0.00    +0.000 C 
ENDROOT
BRANCH   1   9
ATOM      7  C   UNL     1       4.469   3.907  16.767  0.00  0.00    +0.000 C 
ATOM      8  O   UNL     1       3.474   3.213  16.538  0.00  0.00    +0.000 OA
ATOM      9  N   UNL     1       4.502   4.841  17.816  0.00  0.00    +0.000 N 
BRANCH   9  10
ATOM     10  C   UNL     1       5.704   5.587  18.106  0.00  0.00    +0.000 A 
ATOM     11  C   UNL     1       6.552   5.173  19.142  0.00  0.00    +0.000 A 
ATOM     12  C   UNL     1       7.764   5.829  19.386  0.00  0.00    +0.000 A 
ATOM     13  C   UNL     1       8.153   6.903  18.588  0.00  0.00    +0.000 A 
ATOM     14  C   UNL     1       7.325   7.324  17.553  0.00  0.00    +0.000 A 
ATOM     15  C   UNL     1       6.111   6.670  17.315  0.00  0.00    +0.000 A 
ENDBRANCH   9  10
BRANCH   7  17
ATOM     16  C   UNL     1       5.509   4.334  14.514  0.00  0.00    +0.000 C 
ATOM     17  C   UNL     1       5.703   3.715  15.896  0.00  0.00    +0.000 C 
ENDBRANCH   7  17
ENDBRANCH   1   9
BRANCH   1  18
ATOM     18  C   UNL     1       3.203   3.652  19.658  0.00  0.00    +0.000 C 
ATOM     19  O   UNL     1       4.057   2.775  19.735  0.00  0.00    +0.000 OA
BRANCH  18  20
ATOM     20  O   UNL     1       2.052   3.656  20.392  0.00  0.00    +0.000 OA
ATOM     21  C   UNL     1       1.818   2.497  21.195  0.00  0.00    +0.000 C 
ENDBRANCH  18  20
ENDBRANCH   1  18
BRANCH   4  22
ATOM     22  C   UNL     1       1.871   8.869  17.663  0.00  0.00    +0.000 C 
BRANCH  22  23
ATOM     23  C   UNL     1       0.528   9.590  17.898  0.00  0.00    +0.000 C 
BRANCH  23  24
ATOM     24  N   UNL     1       0.619  10.598  18.955  0.00  0.00    +0.000 N 
ATOM     25  C   UNL     1       1.535  11.614  18.838  0.00  0.00    +0.000 A 
ATOM     26  C   UNL     1       1.638  12.566  19.761  0.00  0.00    +0.000 A 
ATOM     27  C   UNL     1       0.802  12.489  20.972  0.00  0.00    +0.000 A 
ATOM     28  O   UNL     1       0.900  13.379  21.821  0.00  0.00    +0.000 OA
ATOM     29  N   UNL     1      -0.024  11.388  21.079  0.00  0.00    +0.000 N 
ATOM     30  C   UNL     1      -0.257  10.497  20.036  0.00  0.00    +0.000 A 
ATOM     31  O   UNL     1      -1.168   9.669  20.064  0.00  0.00    +0.000 OA
BRANCH  29  32
ATOM     32  C   UNL     1      -0.736  11.168  22.331  0.00  0.00    +0.000 C 
ATOM     33  C   UNL     1      -0.240   9.957  23.106  0.00  0.00    +0.000 C 
ENDBRANCH  29  32
ENDBRANCH  23  24
ENDBRANCH  22  23
ENDBRANCH   4  22
TORSDOF 9
ENDMDL
MODEL 8
REMARK VINA RESULT:      -6.7      2.496      4.066
REMARK  Name = 
REMARK  12 active torsions:
REMARK  status: ('A' for Active; 'I' for Inactive)
REMARK    1  A    between atoms: C_1  and  C_2
REMARK    2  A    between atoms: C_2  and  C_3
REMARK    3  A    between atoms: N_5  and  C_6
REMARK    4  A    between atoms: N_5  and  C_12
REMARK    5  A    between atoms: C_12  and  C_13
REMARK    6  A    between atoms: C_13  and  O_15
REMARK    7  A    between atoms: O_15  and  C_16
REMARK    8  A    between atoms: N_19  and  C_20
REMARK    9  A    between atoms: C_20  and  C_21
REMARK   10  A    between atoms: C_21  and  N_22
REMARK   11  A    between atoms: N_27  and  C_28
REMARK   12  A    between atoms: C_28  and  C_29
REMARK                            x       y       z     vdW  Elec       q    Type
REMARK                         _______ _______ _______ _____ _____    ______ ____
ROOT
ATOM      1  C   UNL     1       5.854   5.574  17.846  0.00  0.00    +0.000 C 
ATOM      2  C   UNL     1       5.083   5.556  19.195  0.00  0.00    +0.000 C 
ATOM      3  C   UNL     1       3.622   5.949  19.055  0.00  0.00    +0.000 C 
ATOM      4  N   UNL     1       3.489   7.301  18.489  0.00  0.00    +0.000 NA
ATOM      5  C   UNL     1       4.187   7.393  17.195  0.00  0.00    +0.000 C 
ATOM      6  C   UNL     1       5.673   7.029  17.323  0.00  0.00    +0.000 C 
ENDROOT
BRANCH   1   9
ATOM      7  C   UNL     1       5.874   4.623  15.464  0.00  0.00    +0.000 C 
ATOM      8  O   UNL     1       6.740   5.428  15.111  0.00  0.00    +0.000 OA
ATOM      9  N   UNL     1       5.414   4.554  16.790  0.00  0.00    +0.000 N 
BRANCH   9  10
ATOM     10  C   UNL     1       4.348   3.652  17.159  0.00  0.00    +0.000 A 
ATOM     11  C   UNL     1       4.631   2.502  17.908  0.00  0.00    +0.000 A 
ATOM     12  C   UNL     1       3.604   1.660  18.349  0.00  0.00    +0.000 A 
ATOM     13  C   UNL     1       2.276   1.961  18.058  0.00  0.00    +0.000 A 
ATOM     14  C   UNL     1       1.977   3.102  17.320  0.00  0.00    +0.000 A 
ATOM     15  C   UNL     1       3.005   3.939  16.874  0.00  0.00    +0.000 A 
ENDBRANCH   9  10
BRANCH   7  17
ATOM     16  C   UNL     1       6.124   3.667  13.148  0.00  0.00    +0.000 C 
ATOM     17  C   UNL     1       5.272   3.699  14.414  0.00  0.00    +0.000 C 
ENDBRANCH   7  17
ENDBRANCH   1   9
BRANCH   1  18
ATOM     18  C   UNL     1       7.311   5.327  18.305  0.00  0.00    +0.000 C 
ATOM     19  O   UNL     1       8.024   4.422  17.885  0.00  0.00    +0.000 OA
BRANCH  18  20
ATOM     20  O   UNL     1       7.750   6.311  19.144  0.00  0.00    +0.000 OA
ATOM     21  C   UNL     1       8.303   7.469  18.514  0.00  0.00    +0.000 C 
ENDBRANCH  18  20
ENDBRANCH   1  18
BRANCH   4  22
ATOM     22  C   UNL     1       2.060   7.651  18.317  0.00  0.00    +0.000 C 
BRANCH  22  23
ATOM     23  C   UNL     1       1.822   9.084  17.799  0.00  0.00    +0.000 C 
BRANCH  23  24
ATOM     24  N   UNL     1       1.441  10.003  18.873  0.00  0.00    +0.000 N 
ATOM     25  C   UNL     1       0.747   9.523  19.955  0.00  0.00    +0.000 A 
ATOM     26  C   UNL     1       0.400  10.315  20.966  0.00  0.00    +0.000 A 
ATOM     27  C   UNL     1       0.702  11.755  20.889  0.00  0.00    +0.000 A 
ATOM     28  O   UNL     1       0.382  12.482  21.832  0.00  0.00    +0.000 OA
ATOM     29  N   UNL     1       1.308  12.195  19.729  0.00  0.00    +0.000 N 
ATOM     30  C   UNL     1       1.826  11.340  18.760  0.00  0.00    +0.000 A 
ATOM     31  O   UNL     1       2.569  11.732  17.859  0.00  0.00    +0.000 OA
BRANCH  29  32
ATOM     32  C   UNL     1       1.467  13.628  19.522  0.00  0.00    +0.000 C 
ATOM     33  C   UNL     1       2.737  14.193  20.138  0.00  0.00    +0.000 C 
ENDBRANCH  29  32
ENDBRANCH  23  24
ENDBRANCH  22  23
ENDBRANCH   4  22
TORSDOF 9
ENDMDL
MODEL 9
REMARK VINA RESULT:      -6.6      0.998      1.149
REMARK  Name = 
REMARK  12 active torsions:
REMARK  status: ('A' for Active; 'I' for Inactive)
REMARK    1  A    between atoms: C_1  and  C_2
REMARK    2  A    between atoms: C_2  and  C_3
REMARK    3  A    between atoms: N_5  and  C_6
REMARK    4  A    between atoms: N_5  and  C_12
REMARK    5  A    between atoms: C_12  and  C_13
REMARK    6  A    between atoms: C_13  and  O_15
REMARK    7  A    between atoms: O_15  and  C_16
REMARK    8  A    between atoms: N_19  and  C_20
REMARK    9  A    between atoms: C_20  and  C_21
REMARK   10  A    between atoms: C_21  and  N_22
REMARK   11  A    between atoms: N_27  and  C_28
REMARK   12  A    between atoms: C_28  and  C_29
REMARK                            x       y       z     vdW  Elec       q    Type
REMARK                         _______ _______ _______ _____ _____    ______ ____
ROOT
ATOM      1  C   UNL     1       4.073   4.710  18.401  0.00  0.00    +0.000 C 
ATOM      2  C   UNL     1       2.583   4.625  17.969  0.00  0.00    +0.000 C 
ATOM      3  C   UNL     1       2.017   5.956  17.505  0.00  0.00    +0.000 C 
ATOM      4  N   UNL     1       2.110   6.971  18.567  0.00  0.00    +0.000 NA
ATOM      5  C   UNL     1       3.504   7.119  19.021  0.00  0.00    +0.000 C 
ATOM      6  C   UNL     1       4.084   5.789  19.523  0.00  0.00    +0.000 C 
ENDROOT
BRANCH   1   9
ATOM      7  C   UNL     1       5.036   4.445  16.038  0.00  0.00    +0.000 C 
ATOM      8  O   UNL     1       4.110   3.700  15.706  0.00  0.00    +0.000 OA
ATOM      9  N   UNL     1       5.088   5.053  17.304  0.00  0.00    +0.000 N 
BRANCH   9  10
ATOM     10  C   UNL     1       6.219   5.862  17.691  0.00  0.00    +0.000 A 
ATOM     11  C   UNL     1       6.380   7.146  17.152  0.00  0.00    +0.000 A 
ATOM     12  C   UNL     1       7.420   7.980  17.577  0.00  0.00    +0.000 A 
ATOM     13  C   UNL     1       8.310   7.547  18.557  0.00  0.00    +0.000 A 
ATOM     14  C   UNL     1       8.163   6.278  19.106  0.00  0.00    +0.000 A 
ATOM     15  C   UNL     1       7.125   5.443  18.676  0.00  0.00    +0.000 A 
ENDBRANCH   9  10
BRANCH   7  17
ATOM     16  C   UNL     1       6.037   3.773  13.827  0.00  0.00    +0.000 C 
ATOM     17  C   UNL     1       6.166   4.684  15.046  0.00  0.00    +0.000 C 
ENDBRANCH   7  17
ENDBRANCH   1   9
BRANCH   1  18
ATOM     18  C   UNL     1       4.321   3.299  18.985  0.00  0.00    +0.000 C 
ATOM     19  O   UNL     1       5.236   3.018  19.751  0.00  0.00    +0.000 OA
BRANCH  18  20
ATOM     20  O   UNL     1       3.325   2.430  18.642  0.00  0.00    +0.000 OA
ATOM     21  C   UNL     1       3.727   1.078  18.409  0.00  0.00    +0.000 C 
ENDBRANCH  18  20
ENDBRANCH   1  18
BRANCH   4  22
ATOM     22  C   UNL     1       1.596   8.273  18.085  0.00  0.00    +0.000 C 
BRANCH  22  23
ATOM     23  C   UNL     1       1.718   9.417  19.112  0.00  0.00    +0.000 C 
BRANCH  23  24
ATOM     24  N   UNL     1       0.484  10.197  19.219  0.00  0.00    +0.000 N 
ATOM     25  C   UNL     1      -0.460  10.101  18.228  0.00  0.00    +0.000 A 
ATOM     26  C   UNL     1      -1.606  10.773  18.294  0.00  0.00    +0.000 A 
ATOM     27  C   UNL     1      -1.837  11.698  19.418  0.00  0.00    +0.000 A 
ATOM     28  O   UNL     1      -2.905  12.313  19.474  0.00  0.00    +0.000 OA
ATOM     29  N   UNL     1      -0.806  11.828  20.327  0.00  0.00    +0.000 N 
ATOM     30  C   UNL     1       0.309  10.995  20.350  0.00  0.00    +0.000 A 
ATOM     31  O   UNL     1       1.093  10.966  21.300  0.00  0.00    +0.000 OA
BRANCH  29  32
ATOM     32  C   UNL     1      -0.906  12.857  21.354  0.00  0.00    +0.000 C 
ATOM     33  C   UNL     1      -0.270  14.178  20.953  0.00  0.00    +0.000 C 
ENDBRANCH  29  32
ENDBRANCH  23  24
ENDBRANCH  22  23
ENDBRANCH   4  22
TORSDOF 9
ENDMDL
