MODEL 1
REMARK VINA RESULT:      -6.4      0.000      0.000
REMARK  Name = 
REMARK  12 active torsions:
REMARK  status: ('A' for Active; 'I' for Inactive)
REMARK    1  A    between atoms: C_1  and  C_2
REMARK    2  A    between atoms: C_2  and  O_3
REMARK    3  A    between atoms: O_3  and  C_4
REMARK    4  A    between atoms: C_4  and  C_5
REMARK    5  A    between atoms: C_4  and  O_17
REMARK    6  A    between atoms: C_5  and  P_6
REMARK    7  A    between atoms: P_6  and  O_8
REMARK    8  A    between atoms: P_6  and  C_11
REMARK    9  A    between atoms: O_8  and  C_9
REMARK   10  A    between atoms: C_9  and  C_10
REMARK   11  A    between atoms: O_17  and  C_18
REMARK   12  A    between atoms: C_18  and  C_19
REMARK                            x       y       z     vdW  Elec       q    Type
REMARK                         _______ _______ _______ _____ _____    ______ ____
ROOT
ATOM      1  P   UNL     1       4.951   4.348  18.363  0.00  0.00    +0.000 P 
ATOM      2  O   UNL     1       5.625   3.820  19.650  0.00  0.00    +0.000 OA
ENDROOT
BRANCH   1   3
ATOM      3  C   UNL     1       3.323   3.699  18.890  0.00  0.00    +0.000 A 
ATOM      4  C   UNL     1       2.487   3.082  17.952  0.00  0.00    +0.000 A 
ATOM      5  C   UNL     1       1.189   2.712  18.309  0.00  0.00    +0.000 A 
ATOM      6  C   UNL     1       0.717   2.952  19.602  0.00  0.00    +0.000 A 
ATOM      7  C   UNL     1       1.546   3.550  20.546  0.00  0.00    +0.000 A 
ATOM      8  C   UNL     1       2.841   3.921  20.193  0.00  0.00    +0.000 A 
ENDBRANCH   1   3
BRANCH   1   9
ATOM      9  C   UNL     1       6.580   4.997  17.837  0.00  0.00    +0.000 C 
BRANCH   9  10
ATOM     10  C   UNL     1       6.502   5.569  16.428  0.00  0.00    +0.000 C 
BRANCH  10  11
ATOM     11  O   UNL     1       7.471   4.955  15.571  0.00  0.00    +0.000 OA
BRANCH  11  13
ATOM     12  C   UNL     1       5.735   4.124  14.150  0.00  0.00    +0.000 C 
ATOM     13  C   UNL     1       7.052   4.873  14.211  0.00  0.00    +0.000 C 
ENDBRANCH  11  13
ENDBRANCH  10  11
BRANCH  10  14
ATOM     14  O   UNL     1       6.792   6.972  16.537  0.00  0.00    +0.000 OA
BRANCH  14  15
ATOM     15  C   UNL     1       7.638   7.243  17.658  0.00  0.00    +0.000 C 
ATOM     16  C   UNL     1       7.973   8.723  17.670  0.00  0.00    +0.000 C 
ENDBRANCH  14  15
ENDBRANCH  10  14
ENDBRANCH   9  10
ENDBRANCH   1   9
BRANCH   1  17
ATOM     17  O   UNL     1       4.478   5.913  18.683  0.00  0.00    +0.000 OA
BRANCH  17  18
ATOM     18  C   UNL     1       3.524   6.529  17.831  0.00  0.00    +0.000 C 
ATOM     19  C   UNL     1       2.501   7.238  18.697  0.00  0.00    +0.000 C 
ENDBRANCH  17  18
ENDBRANCH   1  17
TORSDOF 9
ENDMDL
MODEL 2
REMARK VINA RESULT:      -6.4      0.382      1.143
REMARK  Name = 
REMARK  12 active torsions:
REMARK  status: ('A' for Active; 'I' for Inactive)
REMARK    1  A    between atoms: C_1  and  C_2
REMARK    2  A    between atoms: C_2  and  O_3
REMARK    3  A    between atoms: O_3  and  C_4
REMARK    4  A    between atoms: C_4  and  C_5
REMARK    5  A    between atoms: C_4  and  O_17
REMARK    6  A    between atoms: C_5  and  P_6
REMARK    7  A    between atoms: P_6  and  O_8
REMARK    8  A    between atoms: P_6  and  C_11
REMARK    9  A    between atoms: O_8  and  C_9
REMARK   10  A    between atoms: C_9  and  C_10
REMARK   11  A    between atoms: O_17  and  C_18
REMARK   12  A    between atoms: C_18  and  C_19
REMARK                            x       y       z     vdW  Elec       q    Type
REMARK                         _______ _______ _______ _____ _____    ______ ____
ROOT
ATOM      1  P   UNL     1       4.926   4.572  18.322  0.00  0.00    +0.000 P 
ATOM      2  O   UNL     1       5.473   4.028  19.660  0.00  0.00    +0.000 OA
ENDROOT
BRANCH   1   3
ATOM      3  C   UNL     1       3.238   3.985  18.715  0.00  0.00    +0.000 A 
ATOM      4  C   UNL     1       2.592   4.453  19.866  0.00  0.00    +0.000 A 
ATOM      5  C   UNL     1       1.366   3.907  20.250  0.00  0.00    +0.000 A 
ATOM      6  C   UNL     1       0.775   2.894  19.491  0.00  0.00    +0.000 A 
ATOM      7  C   UNL     1       1.401   2.433  18.336  0.00  0.00    +0.000 A 
ATOM      8  C   UNL     1       2.624   2.976  17.951  0.00  0.00    +0.000 A 
ENDBRANCH   1   3
BRANCH   1   9
ATOM      9  C   UNL     1       6.614   5.159  17.929  0.00  0.00    +0.000 C 
BRANCH   9  10
ATOM     10  C   UNL     1       6.697   5.634  16.484  0.00  0.00    +0.000 C 
BRANCH  10  11
ATOM     11  O   UNL     1       7.431   4.705  15.679  0.00  0.00    +0.000 OA
BRANCH  11  13
ATOM     12  C   UNL     1       5.684   4.131  14.149  0.00  0.00    +0.000 C 
ATOM     13  C   UNL     1       7.066   4.737  14.302  0.00  0.00    +0.000 C 
ENDBRANCH  11  13
ENDBRANCH  10  11
BRANCH  10  14
ATOM     14  O   UNL     1       7.392   6.891  16.504  0.00  0.00    +0.000 OA
BRANCH  14  15
ATOM     15  C   UNL     1       7.735   7.276  17.838  0.00  0.00    +0.000 C 
ATOM     16  C   UNL     1       8.096   8.749  17.844  0.00  0.00    +0.000 C 
ENDBRANCH  14  15
ENDBRANCH  10  14
ENDBRANCH   9  10
ENDBRANCH   1   9
BRANCH   1  17
ATOM     17  O   UNL     1       4.485   6.154  18.597  0.00  0.00    +0.000 OA
BRANCH  17  18
ATOM     18  C   UNL     1       3.852   6.882  17.555  0.00  0.00    +0.000 C 
ATOM     19  C   UNL     1       2.794   7.776  18.173  0.00  0.00    +0.000 C 
ENDBRANCH  17  18
ENDBRANCH   1  17
TORSDOF 9
ENDMDL
MODEL 3
REMARK VINA RESULT:      -6.4      1.078      2.869
REMARK  Name = 
REMARK  12 active torsions:
REMARK  status: ('A' for Active; 'I' for Inactive)
REMARK    1  A    between atoms: C_1  and  C_2
REMARK    2  A    between atoms: C_2  and  O_3
REMARK    3  A    between atoms: O_3  and  C_4
REMARK    4  A    between atoms: C_4  and  C_5
REMARK    5  A    between atoms: C_4  and  O_17
REMARK    6  A    between atoms: C_5  and  P_6
REMARK    7  A    between atoms: P_6  and  O_8
REMARK    8  A    between atoms: P_6  and  C_11
REMARK    9  A    between atoms: O_8  and  C_9
REMARK   10  A    between atoms: C_9  and  C_10
REMARK   11  A    between atoms: O_17  and  C_18
REMARK   12  A    between atoms: C_18  and  C_19
REMARK                            x       y       z     vdW  Elec       q    Type
REMARK                         _______ _______ _______ _____ _____    ______ ____
ROOT
ATOM      1  P   UNL     1       3.935   5.594  17.776  0.00  0.00    +0.000 P 
ATOM      2  O   UNL     1       5.146   5.148  18.628  0.00  0.00    +0.000 OA
ENDROOT
BRANCH   1   3
ATOM      3  C   UNL     1       2.806   4.509  18.723  0.00  0.00    +0.000 A 
ATOM      4  C   UNL     1       1.897   3.691  18.040  0.00  0.00    +0.000 A 
ATOM      5  C   UNL     1       0.937   2.968  18.751  0.00  0.00    +0.000 A 
ATOM      6  C   UNL     1       0.878   3.053  20.144  0.00  0.00    +0.000 A 
ATOM      7  C   UNL     1       1.787   3.850  20.833  0.00  0.00    +0.000 A 
ATOM      8  C   UNL     1       2.745   4.573  20.127  0.00  0.00    +0.000 A 
ENDBRANCH   1   3
BRANCH   1   9
ATOM      9  C   UNL     1       5.065   6.680  16.831  0.00  0.00    +0.000 C 
BRANCH   9  10
ATOM     10  C   UNL     1       6.312   5.918  16.402  0.00  0.00    +0.000 C 
BRANCH  10  11
ATOM     11  O   UNL     1       7.484   6.726  16.550  0.00  0.00    +0.000 OA
BRANCH  11  13
ATOM     12  C   UNL     1       8.044   8.694  17.790  0.00  0.00    +0.000 C 
ATOM     13  C   UNL     1       7.662   7.228  17.872  0.00  0.00    +0.000 C 
ENDBRANCH  11  13
ENDBRANCH  10  11
BRANCH  10  14
ATOM     14  O   UNL     1       6.137   5.594  15.013  0.00  0.00    +0.000 OA
BRANCH  14  15
ATOM     15  C   UNL     1       6.685   4.309  14.705  0.00  0.00    +0.000 C 
ATOM     16  C   UNL     1       6.040   3.795  13.432  0.00  0.00    +0.000 C 
ENDBRANCH  14  15
ENDBRANCH  10  14
ENDBRANCH   9  10
ENDBRANCH   1   9
BRANCH   1  17
ATOM     17  O   UNL     1       3.313   6.953  18.511  0.00  0.00    +0.000 OA
BRANCH  17  18
ATOM     18  C   UNL     1       2.113   7.518  18.007  0.00  0.00    +0.000 C 
ATOM     19  C   UNL     1       2.303   9.019  17.895  0.00  0.00    +0.000 C 
ENDBRANCH  17  18
ENDBRANCH   1  17
TORSDOF 9
ENDMDL
MODEL 4
REMARK VINA RESULT:      -6.2      0.963      2.967
REMARK  Name = 
REMARK  12 active torsions:
REMARK  status: ('A' for Active; 'I' for Inactive)
REMARK    1  A    between atoms: C_1  and  C_2
REMARK    2  A    between atoms: C_2  and  O_3
REMARK    3  A    between atoms: O_3  and  C_4
REMARK    4  A    between atoms: C_4  and  C_5
REMARK    5  A    between atoms: C_4  and  O_17
REMARK    6  A    between atoms: C_5  and  P_6
REMARK    7  A    between atoms: P_6  and  O_8
REMARK    8  A    between atoms: P_6  and  C_11
REMARK    9  A    between atoms: O_8  and  C_9
REMARK   10  A    between atoms: C_9  and  C_10
REMARK   11  A    between atoms: O_17  and  C_18
REMARK   12  A    between atoms: C_18  and  C_19
REMARK                            x       y       z     vdW  Elec       q    Type
REMARK                         _______ _______ _______ _____ _____    ______ ____
ROOT
ATOM      1  P   UNL     1       3.936   4.906  17.807  0.00  0.00    +0.000 P 
ATOM      2  O   UNL     1       5.106   4.165  18.492  0.00  0.00    +0.000 OA
ENDROOT
BRANCH   1   3
ATOM      3  C   UNL     1       2.731   4.209  18.995  0.00  0.00    +0.000 A 
ATOM      4  C   UNL     1       3.028   4.209  20.363  0.00  0.00    +0.000 A 
ATOM      5  C   UNL     1       2.183   3.554  21.262  0.00  0.00    +0.000 A 
ATOM      6  C   UNL     1       1.038   2.898  20.804  0.00  0.00    +0.000 A 
ATOM      7  C   UNL     1       0.726   2.905  19.447  0.00  0.00    +0.000 A 
ATOM      8  C   UNL     1       1.567   3.557  18.548  0.00  0.00    +0.000 A 
ENDBRANCH   1   3
BRANCH   1   9
ATOM      9  C   UNL     1       5.141   5.605  16.619  0.00  0.00    +0.000 C 
BRANCH   9  10
ATOM     10  C   UNL     1       6.495   4.923  16.761  0.00  0.00    +0.000 C 
BRANCH  10  11
ATOM     11  O   UNL     1       7.548   5.887  16.864  0.00  0.00    +0.000 OA
BRANCH  11  13
ATOM     12  C   UNL     1       7.751   8.170  17.551  0.00  0.00    +0.000 C 
ATOM     13  C   UNL     1       7.412   6.757  17.986  0.00  0.00    +0.000 C 
ENDBRANCH  11  13
ENDBRANCH  10  11
BRANCH  10  14
ATOM     14  O   UNL     1       6.688   4.141  15.571  0.00  0.00    +0.000 OA
BRANCH  14  15
ATOM     15  C   UNL     1       6.102   4.774  14.431  0.00  0.00    +0.000 C 
ATOM     16  C   UNL     1       5.944   3.745  13.328  0.00  0.00    +0.000 C 
ENDBRANCH  14  15
ENDBRANCH  10  14
ENDBRANCH   9  10
ENDBRANCH   1   9
BRANCH   1  17
ATOM     17  O   UNL     1       3.839   6.406  18.525  0.00  0.00    +0.000 OA
BRANCH  17  18
ATOM     18  C   UNL     1       2.597   7.093  18.514  0.00  0.00    +0.000 C 
ATOM     19  C   UNL     1       2.773   8.385  17.739  0.00  0.00    +0.000 C 
ENDBRANCH  17  18
ENDBRANCH   1  17
TORSDOF 9
ENDMDL
MODEL 5
REMARK VINA RESULT:      -6.2      1.154      1.262
REMARK  Name = 
REMARK  12 active torsions:
REMARK  status: ('A' for Active; 'I' for Inactive)
REMARK    1  A    between atoms: C_1  and  C_2
REMARK    2  A    between atoms: C_2  and  O_3
REMARK    3  A    between atoms: O_3  and  C_4
REMARK    4  A    between atoms: C_4  and  C_5
REMARK    5  A    between atoms: C_4  and  O_17
REMARK    6  A    between atoms: C_5  and  P_6
REMARK    7  A    between atoms: P_6  and  O_8
REMARK    8  A    between atoms: P_6  and  C_11
REMARK    9  A    between atoms: O_8  and  C_9
REMARK   10  A    between atoms: C_9  and  C_10
REMARK   11  A    between atoms: O_17  and  C_18
REMARK   12  A    between atoms: C_18  and  C_19
REMARK                            x       y       z     vdW  Elec       q    Type
REMARK                         _______ _______ _______ _____ _____    ______ ____
ROOT
ATOM      1  P   UNL     1       4.029   5.661  18.159  0.00  0.00    +0.000 P 
ATOM      2  O   UNL     1       4.947   5.438  19.383  0.00  0.00    +0.000 OA
ENDROOT
BRANCH   1   3
ATOM      3  C   UNL     1       2.781   4.497  18.820  0.00  0.00    +0.000 A 
ATOM      4  C   UNL     1       2.435   3.360  18.081  0.00  0.00    +0.000 A 
ATOM      5  C   UNL     1       1.385   2.543  18.506  0.00  0.00    +0.000 A 
ATOM      6  C   UNL     1       0.676   2.852  19.669  0.00  0.00    +0.000 A 
ATOM      7  C   UNL     1       1.023   3.973  20.419  0.00  0.00    +0.000 A 
ATOM      8  C   UNL     1       2.069   4.790  19.997  0.00  0.00    +0.000 A 
ENDBRANCH   1   3
BRANCH   1   9
ATOM      9  C   UNL     1       5.277   6.826  17.499  0.00  0.00    +0.000 C 
BRANCH   9  10
ATOM     10  C   UNL     1       6.146   6.147  16.449  0.00  0.00    +0.000 C 
BRANCH  10  11
ATOM     11  O   UNL     1       6.188   4.730  16.654  0.00  0.00    +0.000 OA
BRANCH  11  13
ATOM     12  C   UNL     1       5.502   4.342  14.396  0.00  0.00    +0.000 C 
ATOM     13  C   UNL     1       6.510   3.996  15.475  0.00  0.00    +0.000 C 
ENDBRANCH  11  13
ENDBRANCH  10  11
BRANCH  10  14
ATOM     14  O   UNL     1       7.470   6.684  16.601  0.00  0.00    +0.000 OA
BRANCH  14  15
ATOM     15  C   UNL     1       7.669   7.216  17.913  0.00  0.00    +0.000 C 
ATOM     16  C   UNL     1       8.138   8.654  17.791  0.00  0.00    +0.000 C 
ENDBRANCH  14  15
ENDBRANCH  10  14
ENDBRANCH   9  10
ENDBRANCH   1   9
BRANCH   1  17
ATOM     17  O   UNL     1       3.063   6.969  18.522  0.00  0.00    +0.000 OA
BRANCH  17  18
ATOM     18  C   UNL     1       2.886   7.983  17.545  0.00  0.00    +0.000 C 
ATOM     19  C   UNL     1       1.757   8.889  17.999  0.00  0.00    +0.000 C 
ENDBRANCH  17  18
ENDBRANCH   1  17
TORSDOF 9
ENDMDL
MODEL 6
REMARK VINA RESULT:      -6.2      1.313      2.698
REMARK  Name = 
REMARK  12 active torsions:
REMARK  status: ('A' for Active; 'I' for Inactive)
REMARK    1  A    between atoms: C_1  and  C_2
REMARK    2  A    between atoms: C_2  and  O_3
REMARK    3  A    between atoms: O_3  and  C_4
REMARK    4  A    between atoms: C_4  and  C_5
REMARK    5  A    between atoms: C_4  and  O_17
REMARK    6  A    between atoms: C_5  and  P_6
REMARK    7  A    between atoms: P_6  and  O_8
REMARK    8  A    between atoms: P_6  and  C_11
REMARK    9  A    between atoms: O_8  and  C_9
REMARK   10  A    between atoms: C_9  and  C_10
REMARK   11  A    between atoms: O_17  and  C_18
REMARK   12  A    between atoms: C_18  and  C_19
REMARK                            x       y       z     vdW  Elec       q    Type
REMARK                         _______ _______ _______ _____ _____    ______ ____
ROOT
ATOM      1  P   UNL     1       3.622   5.689  17.951  0.00  0.00    +0.000 P 
ATOM      2  O   UNL     1       4.398   5.941  19.263  0.00  0.00    +0.000 OA
ENDROOT
BRANCH   1   3
ATOM      3  C   UNL     1       2.522   4.480  18.774  0.00  0.00    +0.000 A 
ATOM      4  C   UNL     1       2.000   3.407  18.042  0.00  0.00    +0.000 A 
ATOM      5  C   UNL     1       1.050   2.563  18.620  0.00  0.00    +0.000 A 
ATOM      6  C   UNL     1       0.616   2.781  19.931  0.00  0.00    +0.000 A 
ATOM      7  C   UNL     1       1.141   3.835  20.672  0.00  0.00    +0.000 A 
ATOM      8  C   UNL     1       2.088   4.679  20.098  0.00  0.00    +0.000 A 
ENDBRANCH   1   3
BRANCH   1   9
ATOM      9  C   UNL     1       4.722   6.898  17.127  0.00  0.00    +0.000 C 
BRANCH   9  10
ATOM     10  C   UNL     1       5.953   6.206  16.557  0.00  0.00    +0.000 C 
BRANCH  10  11
ATOM     11  O   UNL     1       7.138   6.964  16.822  0.00  0.00    +0.000 OA
BRANCH  11  13
ATOM     12  C   UNL     1       7.762   5.325  18.448  0.00  0.00    +0.000 C 
ATOM     13  C   UNL     1       7.626   6.806  18.152  0.00  0.00    +0.000 C 
ENDBRANCH  11  13
ENDBRANCH  10  11
BRANCH  10  14
ATOM     14  O   UNL     1       5.755   6.122  15.136  0.00  0.00    +0.000 OA
BRANCH  14  15
ATOM     15  C   UNL     1       5.435   4.788  14.733  0.00  0.00    +0.000 C 
ATOM     16  C   UNL     1       6.296   3.819  15.522  0.00  0.00    +0.000 C 
ENDBRANCH  14  15
ENDBRANCH  10  14
ENDBRANCH   9  10
ENDBRANCH   1   9
BRANCH   1  17
ATOM     17  O   UNL     1       2.403   6.823  17.894  0.00  0.00    +0.000 OA
BRANCH  17  18
ATOM     18  C   UNL     1       2.746   8.200  17.907  0.00  0.00    +0.000 C 
ATOM     19  C   UNL     1       1.650   8.956  18.634  0.00  0.00    +0.000 C 
ENDBRANCH  17  18
ENDBRANCH   1  17
TORSDOF 9
ENDMDL
MODEL 7
REMARK VINA RESULT:      -6.1      1.407      3.084
REMARK  Name = 
REMARK  12 active torsions:
REMARK  status: ('A' for Active; 'I' for Inactive)
REMARK    1  A    between atoms: C_1  and  C_2
REMARK    2  A    between atoms: C_2  and  O_3
REMARK    3  A    between atoms: O_3  and  C_4
REMARK    4  A    between atoms: C_4  and  C_5
REMARK    5  A    between atoms: C_4  and  O_17
REMARK    6  A    between atoms: C_5  and  P_6
REMARK    7  A    between atoms: P_6  and  O_8
REMARK    8  A    between atoms: P_6  and  C_11
REMARK    9  A    between atoms: O_8  and  C_9
REMARK   10  A    between atoms: C_9  and  C_10
REMARK   11  A    between atoms: O_17  and  C_18
REMARK   12  A    between atoms: C_18  and  C_19
REMARK                            x       y       z     vdW  Elec       q    Type
REMARK                         _______ _______ _______ _____ _____    ______ ____
ROOT
ATOM      1  P   UNL     1       3.613   5.278  18.056  0.00  0.00    +0.000 P 
ATOM      2  O   UNL     1       4.518   5.789  19.199  0.00  0.00    +0.000 OA
ENDROOT
BRANCH   1   3
ATOM      3  C   UNL     1       2.529   4.397  19.239  0.00  0.00    +0.000 A 
ATOM      4  C   UNL     1       2.807   4.458  20.610  0.00  0.00    +0.000 A 
ATOM      5  C   UNL     1       2.074   3.678  21.506  0.00  0.00    +0.000 A 
ATOM      6  C   UNL     1       1.060   2.835  21.043  0.00  0.00    +0.000 A 
ATOM      7  C   UNL     1       0.765   2.780  19.684  0.00  0.00    +0.000 A 
ATOM      8  C   UNL     1       1.495   3.557  18.787  0.00  0.00    +0.000 A 
ENDBRANCH   1   3
BRANCH   1   9
ATOM      9  C   UNL     1       4.697   6.158  16.873  0.00  0.00    +0.000 C 
BRANCH   9  10
ATOM     10  C   UNL     1       5.791   5.236  16.353  0.00  0.00    +0.000 C 
BRANCH  10  11
ATOM     11  O   UNL     1       7.083   5.676  16.785  0.00  0.00    +0.000 OA
BRANCH  11  13
ATOM     12  C   UNL     1       7.898   5.846  19.027  0.00  0.00    +0.000 C 
ATOM     13  C   UNL     1       7.610   4.913  17.867  0.00  0.00    +0.000 C 
ENDBRANCH  11  13
ENDBRANCH  10  11
BRANCH  10  14
ATOM     14  O   UNL     1       5.729   5.291  14.919  0.00  0.00    +0.000 OA
BRANCH  14  15
ATOM     15  C   UNL     1       6.609   4.335  14.322  0.00  0.00    +0.000 C 
ATOM     16  C   UNL     1       5.929   3.740  13.103  0.00  0.00    +0.000 C 
ENDBRANCH  14  15
ENDBRANCH  10  14
ENDBRANCH   9  10
ENDBRANCH   1   9
BRANCH   1  17
ATOM     17  O   UNL     1       2.457   6.450  17.804  0.00  0.00    +0.000 OA
BRANCH  17  18
ATOM     18  C   UNL     1       2.437   7.588  18.651  0.00  0.00    +0.000 C 
ATOM     19  C   UNL     1       2.147   8.810  17.800  0.00  0.00    +0.000 C 
ENDBRANCH  17  18
ENDBRANCH   1  17
TORSDOF 9
ENDMDL
MODEL 8
REMARK VINA RESULT:      -6.0      1.077      2.691
REMARK  Name = 
REMARK  12 active torsions:
REMARK  status: ('A' for Active; 'I' for Inactive)
REMARK    1  A    between atoms: C_1  and  C_2
REMARK    2  A    between atoms: C_2  and  O_3
REMARK    3  A    between atoms: O_3  and  C_4
REMARK    4  A    between atoms: C_4  and  C_5
REMARK    5  A    between atoms: C_4  and  O_17
REMARK    6  A    between atoms: C_5  and  P_6
REMARK    7  A    between atoms: P_6  and  O_8
REMARK    8  A    between atoms: P_6  and  C_11
REMARK    9  A    between atoms: O_8  and  C_9
REMARK   10  A    between atoms: C_9  and  C_10
REMARK   11  A    between atoms: O_17  and  C_18
REMARK   12  A    between atoms: C_18  and  C_19
REMARK                            x       y       z     vdW  Elec       q    Type
REMARK                         _______ _______ _______ _____ _____    ______ ____
ROOT
ATOM      1  P   UNL     1       4.369   4.596  17.059  0.00  0.00    +0.000 P 
ATOM      2  O   UNL     1       5.555   4.511  18.046  0.00  0.00    +0.000 OA
ENDROOT
BRANCH   1   3
ATOM      3  C   UNL     1       3.302   3.619  18.180  0.00  0.00    +0.000 A 
ATOM      4  C   UNL     1       1.946   3.450  17.874  0.00  0.00    +0.000 A 
ATOM      5  C   UNL     1       1.094   2.829  18.790  0.00  0.00    +0.000 A 
ATOM      6  C   UNL     1       1.588   2.372  20.015  0.00  0.00    +0.000 A 
ATOM      7  C   UNL     1       2.938   2.520  20.321  0.00  0.00    +0.000 A 
ATOM      8  C   UNL     1       3.789   3.139  19.410  0.00  0.00    +0.000 A 
ENDBRANCH   1   3
BRANCH   1   9
ATOM      9  C   UNL     1       5.435   5.573  15.938  0.00  0.00    +0.000 C 
BRANCH   9  10
ATOM     10  C   UNL     1       6.900   5.429  16.327  0.00  0.00    +0.000 C 
BRANCH  10  11
ATOM     11  O   UNL     1       7.557   6.701  16.337  0.00  0.00    +0.000 OA
BRANCH  11  13
ATOM     12  C   UNL     1       8.051   6.739  18.677  0.00  0.00    +0.000 C 
ATOM     13  C   UNL     1       7.341   7.441  17.536  0.00  0.00    +0.000 C 
ENDBRANCH  11  13
ENDBRANCH  10  11
BRANCH  10  14
ATOM     14  O   UNL     1       7.510   4.592  15.330  0.00  0.00    +0.000 OA
BRANCH  14  15
ATOM     15  C   UNL     1       6.839   4.707  14.073  0.00  0.00    +0.000 C 
ATOM     16  C   UNL     1       7.830   5.193  13.032  0.00  0.00    +0.000 C 
ENDBRANCH  14  15
ENDBRANCH  10  14
ENDBRANCH   9  10
ENDBRANCH   1   9
BRANCH   1  17
ATOM     17  O   UNL     1       3.544   5.995  17.426  0.00  0.00    +0.000 OA
BRANCH  17  18
ATOM     18  C   UNL     1       3.786   6.628  18.673  0.00  0.00    +0.000 C 
ATOM     19  C   UNL     1       2.448   6.946  19.313  0.00  0.00    +0.000 C 
ENDBRANCH  17  18
ENDBRANCH   1  17
TORSDOF 9
ENDMDL
MODEL 9
REMARK VINA RESULT:      -6.0      1.650      6.070
REMARK  Name = 
REMARK  12 active torsions:
REMARK  status: ('A' for Active; 'I' for Inactive)
REMARK    1  A    between atoms: C_1  and  C_2
REMARK    2  A    between atoms: C_2  and  O_3
REMARK    3  A    between atoms: O_3  and  C_4
REMARK    4  A    between atoms: C_4  and  C_5
REMARK    5  A    between atoms: C_4  and  O_17
REMARK    6  A    between atoms: C_5  and  P_6
REMARK    7  A    between atoms: P_6  and  O_8
REMARK    8  A    between atoms: P_6  and  C_11
REMARK    9  A    between atoms: O_8  and  C_9
REMARK   10  A    between atoms: C_9  and  C_10
REMARK   11  A    between atoms: O_17  and  C_18
REMARK   12  A    between atoms: C_18  and  C_19
REMARK                            x       y       z     vdW  Elec       q    Type
REMARK                         _______ _______ _______ _____ _____    ______ ____
ROOT
ATOM      1  P   UNL     1       5.769   4.874  16.302  0.00  0.00    +0.000 P 
ATOM      2  O   UNL     1       5.010   6.133  15.826  0.00  0.00    +0.000 OA
ENDROOT
BRANCH   1   3
ATOM      3  C   UNL     1       6.369   4.532  14.607  0.00  0.00    +0.000 A 
ATOM      4  C   UNL     1       7.439   5.271  14.089  0.00  0.00    +0.000 A 
ATOM      5  C   UNL     1       7.812   5.118  12.752  0.00  0.00    +0.000 A 
ATOM      6  C   UNL     1       7.124   4.227  11.925  0.00  0.00    +0.000 A 
ATOM      7  C   UNL     1       6.069   3.475  12.436  0.00  0.00    +0.000 A 
ATOM      8  C   UNL     1       5.694   3.627  13.768  0.00  0.00    +0.000 A 
ENDBRANCH   1   3
BRANCH   1   9
ATOM      9  C   UNL     1       5.170   5.216  17.997  0.00  0.00    +0.000 C 
BRANCH   9  10
ATOM     10  C   UNL     1       3.980   4.329  18.338  0.00  0.00    +0.000 C 
BRANCH  10  11
ATOM     11  O   UNL     1       3.507   3.636  17.178  0.00  0.00    +0.000 OA
BRANCH  11  13
ATOM     12  C   UNL     1       3.472   1.638  18.492  0.00  0.00    +0.000 C 
ATOM     13  C   UNL     1       2.721   2.487  17.485  0.00  0.00    +0.000 C 
ENDBRANCH  11  13
ENDBRANCH  10  11
BRANCH  10  14
ATOM     14  O   UNL     1       2.944   5.199  18.822  0.00  0.00    +0.000 OA
BRANCH  14  15
ATOM     15  C   UNL     1       2.705   4.997  20.217  0.00  0.00    +0.000 C 
ATOM     16  C   UNL     1       1.332   4.376  20.393  0.00  0.00    +0.000 C 
ENDBRANCH  14  15
ENDBRANCH  10  14
ENDBRANCH   9  10
ENDBRANCH   1   9
BRANCH   1  17
ATOM     17  O   UNL     1       7.282   5.383  16.780  0.00  0.00    +0.000 OA
BRANCH  17  18
ATOM     18  C   UNL     1       7.401   6.175  17.951  0.00  0.00    +0.000 C 
ATOM     19  C   UNL     1       7.711   7.600  17.533  0.00  0.00    +0.000 C 
ENDBRANCH  17  18
ENDBRANCH   1  17
TORSDOF 9
ENDMDL
