MODEL 1
REMARK VINA RESULT:      -8.1      0.000      0.000
REMARK  Name = 
REMARK  3 active torsions:
REMARK  status: ('A' for Active; 'I' for Inactive)
REMARK    1  A    between atoms: C_5  and  C_6
REMARK    2  A    between atoms: N_8  and  C_9
REMARK    3  A    between atoms: C_14  and  N_15
REMARK                            x       y       z     vdW  Elec       q    Type
REMARK                         _______ _______ _______ _____ _____    ______ ____
ROOT
ATOM      1  C   UNL     1       5.063   4.284  17.891  0.00  0.00    +0.000 C 
ATOM      2  O   UNL     1       5.667   3.986  18.914  0.00  0.00    +0.000 OA
ATOM      3  N   UNL     1       3.698   4.300  17.707  0.00  0.00    +0.000 N 
ATOM      4  H   UNL     1       3.345   4.236  16.755  0.00  0.00    +0.000 HD
ENDROOT
BRANCH   1   9
ATOM      5  O   UNL     1       8.220   5.530  13.519  0.00  0.00    +0.000 OA
ATOM      6  C   UNL     1       7.422   5.270  14.416  0.00  0.00    +0.000 C 
ATOM      7  C   UNL     1       6.266   4.332  14.202  0.00  0.00    +0.000 C 
ATOM      8  C   UNL     1       5.727   3.740  15.481  0.00  0.00    +0.000 C 
ATOM      9  C   UNL     1       5.884   4.654  16.665  0.00  0.00    +0.000 C 
ATOM     10  N   UNL     1       6.717   5.647  16.725  0.00  0.00    +0.000 NA
ATOM     11  N   UNL     1       7.493   5.892  15.634  0.00  0.00    +0.000 N 
ATOM     12  H   UNL     1       8.236   6.577  15.745  0.00  0.00    +0.000 HD
ENDBRANCH   1   9
BRANCH   3  13
ATOM     13  C   UNL     1       2.776   4.022  18.739  0.00  0.00    +0.000 A 
ATOM     14  C   UNL     1       2.372   2.695  18.964  0.00  0.00    +0.000 A 
ATOM     15  C   UNL     1       1.501   2.387  20.001  0.00  0.00    +0.000 A 
ATOM     16  C   UNL     1       1.013   3.407  20.805  0.00  0.00    +0.000 A 
ATOM     17  C   UNL     1       1.409   4.732  20.584  0.00  0.00    +0.000 A 
ATOM     18  C   UNL     1       2.311   5.080  19.561  0.00  0.00    +0.000 A 
BRANCH  18  19
ATOM     19  N   UNL     1       2.690   6.411  19.294  0.00  0.00    +0.000 N 
ATOM     20  C   UNL     1       2.282   7.505  20.194  0.00  0.00    +0.000 C 
ATOM     21  C   UNL     1       1.437   8.436  19.333  0.00  0.00    +0.000 C 
ATOM     22  C   UNL     1       2.060   8.293  17.959  0.00  0.00    +0.000 C 
ATOM     23  C   UNL     1       2.446   6.820  17.892  0.00  0.00    +0.000 C 
ENDBRANCH  18  19
ENDBRANCH   3  13
TORSDOF 3
ENDMDL
MODEL 2
REMARK VINA RESULT:      -8.1      2.511      6.426
REMARK  Name = 
REMARK  3 active torsions:
REMARK  status: ('A' for Active; 'I' for Inactive)
REMARK    1  A    between atoms: C_5  and  C_6
REMARK    2  A    between atoms: N_8  and  C_9
REMARK    3  A    between atoms: C_14  and  N_15
REMARK                            x       y       z     vdW  Elec       q    Type
REMARK                         _______ _______ _______ _____ _____    ______ ____
ROOT
ATOM      1  C   UNL     1       3.737   4.371  17.752  0.00  0.00    +0.000 C 
ATOM      2  O   UNL     1       3.257   5.388  17.264  0.00  0.00    +0.000 OA
ATOM      3  N   UNL     1       4.806   3.646  17.276  0.00  0.00    +0.000 N 
ATOM      4  H   UNL     1       4.888   2.674  17.564  0.00  0.00    +0.000 HD
ENDROOT
BRANCH   1   9
ATOM      5  O   UNL     1       1.465   2.463  22.424  0.00  0.00    +0.000 OA
ATOM      6  C   UNL     1       1.872   2.839  21.328  0.00  0.00    +0.000 C 
ATOM      7  C   UNL     1       0.973   3.534  20.343  0.00  0.00    +0.000 C 
ATOM      8  C   UNL     1       1.719   4.360  19.326  0.00  0.00    +0.000 C 
ATOM      9  C   UNL     1       3.080   3.809  19.004  0.00  0.00    +0.000 C 
ATOM     10  N   UNL     1       3.738   2.980  19.755  0.00  0.00    +0.000 NA
ATOM     11  N   UNL     1       3.147   2.565  20.910  0.00  0.00    +0.000 N 
ATOM     12  H   UNL     1       3.725   2.032  21.555  0.00  0.00    +0.000 HD
ENDBRANCH   1   9
BRANCH   3  13
ATOM     13  C   UNL     1       5.562   4.033  16.148  0.00  0.00    +0.000 A 
ATOM     14  C   UNL     1       5.437   3.307  14.952  0.00  0.00    +0.000 A 
ATOM     15  C   UNL     1       6.135   3.693  13.814  0.00  0.00    +0.000 A 
ATOM     16  C   UNL     1       6.976   4.795  13.873  0.00  0.00    +0.000 A 
ATOM     17  C   UNL     1       7.106   5.521  15.064  0.00  0.00    +0.000 A 
ATOM     18  C   UNL     1       6.395   5.177  16.229  0.00  0.00    +0.000 A 
BRANCH  18  19
ATOM     19  N   UNL     1       6.545   5.869  17.448  0.00  0.00    +0.000 N 
ATOM     20  C   UNL     1       6.598   7.341  17.478  0.00  0.00    +0.000 C 
ATOM     21  C   UNL     1       7.965   7.679  18.061  0.00  0.00    +0.000 C 
ATOM     22  C   UNL     1       8.222   6.533  19.018  0.00  0.00    +0.000 C 
ATOM     23  C   UNL     1       7.627   5.327  18.301  0.00  0.00    +0.000 C 
ENDBRANCH  18  19
ENDBRANCH   3  13
TORSDOF 3
ENDMDL
MODEL 3
REMARK VINA RESULT:      -8.0      3.120      7.052
REMARK  Name = 
REMARK  3 active torsions:
REMARK  status: ('A' for Active; 'I' for Inactive)
REMARK    1  A    between atoms: C_5  and  C_6
REMARK    2  A    between atoms: N_8  and  C_9
REMARK    3  A    between atoms: C_14  and  N_15
REMARK                            x       y       z     vdW  Elec       q    Type
REMARK                         _______ _______ _______ _____ _____    ______ ____
ROOT
ATOM      1  C   UNL     1       2.096   8.070  18.713  0.00  0.00    +0.000 C 
ATOM      2  O   UNL     1       1.886   8.555  17.608  0.00  0.00    +0.000 OA
ATOM      3  N   UNL     1       2.861   6.962  19.001  0.00  0.00    +0.000 N 
ATOM      4  H   UNL     1       2.687   6.479  19.879  0.00  0.00    +0.000 HD
ENDROOT
BRANCH   1   9
ATOM      5  O   UNL     1      -0.136  10.524  23.143  0.00  0.00    +0.000 OA
ATOM      6  C   UNL     1       0.247   9.982  22.109  0.00  0.00    +0.000 C 
ATOM      7  C   UNL     1      -0.143  10.496  20.751  0.00  0.00    +0.000 C 
ATOM      8  C   UNL     1       0.795  10.063  19.652  0.00  0.00    +0.000 C 
ATOM      9  C   UNL     1       1.430   8.725  19.913  0.00  0.00    +0.000 C 
ATOM     10  N   UNL     1       1.516   8.164  21.080  0.00  0.00    +0.000 NA
ATOM     11  N   UNL     1       0.978   8.824  22.143  0.00  0.00    +0.000 N 
ATOM     12  H   UNL     1       1.176   8.445  23.065  0.00  0.00    +0.000 HD
ENDBRANCH   1   9
BRANCH   3  13
ATOM     13  C   UNL     1       3.584   6.246  18.022  0.00  0.00    +0.000 A 
ATOM     14  C   UNL     1       4.439   6.940  17.150  0.00  0.00    +0.000 A 
ATOM     15  C   UNL     1       5.196   6.256  16.208  0.00  0.00    +0.000 A 
ATOM     16  C   UNL     1       5.086   4.875  16.119  0.00  0.00    +0.000 A 
ATOM     17  C   UNL     1       4.233   4.177  16.985  0.00  0.00    +0.000 A 
ATOM     18  C   UNL     1       3.471   4.833  17.970  0.00  0.00    +0.000 A 
BRANCH  18  19
ATOM     19  N   UNL     1       2.575   4.155  18.821  0.00  0.00    +0.000 N 
ATOM     20  C   UNL     1       3.027   3.011  19.634  0.00  0.00    +0.000 C 
ATOM     21  C   UNL     1       2.189   1.830  19.160  0.00  0.00    +0.000 C 
ATOM     22  C   UNL     1       0.873   2.475  18.775  0.00  0.00    +0.000 C 
ATOM     23  C   UNL     1       1.293   3.809  18.167  0.00  0.00    +0.000 C 
ENDBRANCH  18  19
ENDBRANCH   3  13
TORSDOF 3
ENDMDL
MODEL 4
REMARK VINA RESULT:      -7.9      3.365      7.066
REMARK  Name = 
REMARK  3 active torsions:
REMARK  status: ('A' for Active; 'I' for Inactive)
REMARK    1  A    between atoms: C_5  and  C_6
REMARK    2  A    between atoms: N_8  and  C_9
REMARK    3  A    between atoms: C_14  and  N_15
REMARK                            x       y       z     vdW  Elec       q    Type
REMARK                         _______ _______ _______ _____ _____    ______ ____
ROOT
ATOM      1  C   UNL     1       1.951   8.266  18.732  0.00  0.00    +0.000 C 
ATOM      2  O   UNL     1       1.625   8.601  17.600  0.00  0.00    +0.000 OA
ATOM      3  N   UNL     1       2.788   7.231  19.084  0.00  0.00    +0.000 N 
ATOM      4  H   UNL     1       2.711   6.856  20.026  0.00  0.00    +0.000 HD
ENDROOT
BRANCH   1   9
ATOM      5  O   UNL     1      -0.399  11.051  22.898  0.00  0.00    +0.000 OA
ATOM      6  C   UNL     1       0.222  10.421  22.045  0.00  0.00    +0.000 C 
ATOM      7  C   UNL     1       0.968   9.158  22.378  0.00  0.00    +0.000 C 
ATOM      8  C   UNL     1       1.214   8.273  21.182  0.00  0.00    +0.000 C 
ATOM      9  C   UNL     1       1.359   9.043  19.899  0.00  0.00    +0.000 C 
ATOM     10  N   UNL     1       0.940  10.257  19.715  0.00  0.00    +0.000 NA
ATOM     11  N   UNL     1       0.340  10.886  20.762  0.00  0.00    +0.000 N 
ATOM     12  H   UNL     1      -0.108  11.778  20.566  0.00  0.00    +0.000 HD
ENDBRANCH   1   9
BRANCH   3  13
ATOM     13  C   UNL     1       3.458   6.424  18.139  0.00  0.00    +0.000 A 
ATOM     14  C   UNL     1       4.428   7.001  17.302  0.00  0.00    +0.000 A 
ATOM     15  C   UNL     1       5.134   6.221  16.395  0.00  0.00    +0.000 A 
ATOM     16  C   UNL     1       4.859   4.864  16.305  0.00  0.00    +0.000 A 
ATOM     17  C   UNL     1       3.890   4.283  17.135  0.00  0.00    +0.000 A 
ATOM     18  C   UNL     1       3.174   5.035  18.085  0.00  0.00    +0.000 A 
BRANCH  18  19
ATOM     19  N   UNL     1       2.166   4.479  18.898  0.00  0.00    +0.000 N 
ATOM     20  C   UNL     1       2.500   3.852  20.190  0.00  0.00    +0.000 C 
ATOM     21  C   UNL     1       2.054   2.402  20.057  0.00  0.00    +0.000 C 
ATOM     22  C   UNL     1       0.851   2.496  19.139  0.00  0.00    +0.000 C 
ATOM     23  C   UNL     1       1.234   3.598  18.158  0.00  0.00    +0.000 C 
ENDBRANCH  18  19
ENDBRANCH   3  13
TORSDOF 3
ENDMDL
MODEL 5
REMARK VINA RESULT:      -7.9      2.977      5.961
REMARK  Name = 
REMARK  3 active torsions:
REMARK  status: ('A' for Active; 'I' for Inactive)
REMARK    1  A    between atoms: C_5  and  C_6
REMARK    2  A    between atoms: N_8  and  C_9
REMARK    3  A    between atoms: C_14  and  N_15
REMARK                            x       y       z     vdW  Elec       q    Type
REMARK                         _______ _______ _______ _____ _____    ______ ____
ROOT
ATOM      1  C   UNL     1       2.139   6.990  19.260  0.00  0.00    +0.000 C 
ATOM      2  O   UNL     1       2.154   6.546  20.402  0.00  0.00    +0.000 OA
ATOM      3  N   UNL     1       2.389   6.297  18.097  0.00  0.00    +0.000 N 
ATOM      4  H   UNL     1       2.671   6.829  17.277  0.00  0.00    +0.000 HD
ENDROOT
BRANCH   1   9
ATOM      5  O   UNL     1       0.908  12.327  18.466  0.00  0.00    +0.000 OA
ATOM      6  C   UNL     1       1.237  11.177  18.747  0.00  0.00    +0.000 C 
ATOM      7  C   UNL     1       1.037  10.608  20.125  0.00  0.00    +0.000 C 
ATOM      8  C   UNL     1       1.002   9.100  20.154  0.00  0.00    +0.000 C 
ATOM      9  C   UNL     1       1.844   8.471  19.079  0.00  0.00    +0.000 C 
ATOM     10  N   UNL     1       2.241   9.078  18.002  0.00  0.00    +0.000 NA
ATOM     11  N   UNL     1       1.885  10.381  17.840  0.00  0.00    +0.000 N 
ATOM     12  H   UNL     1       2.078  10.800  16.934  0.00  0.00    +0.000 HD
ENDBRANCH   1   9
BRANCH   3  13
ATOM     13  C   UNL     1       2.645   4.909  18.064  0.00  0.00    +0.000 A 
ATOM     14  C   UNL     1       1.568   4.008  18.093  0.00  0.00    +0.000 A 
ATOM     15  C   UNL     1       1.789   2.638  18.017  0.00  0.00    +0.000 A 
ATOM     16  C   UNL     1       3.090   2.163  17.930  0.00  0.00    +0.000 A 
ATOM     17  C   UNL     1       4.168   3.057  17.903  0.00  0.00    +0.000 A 
ATOM     18  C   UNL     1       3.982   4.451  17.951  0.00  0.00    +0.000 A 
BRANCH  18  19
ATOM     19  N   UNL     1       5.055   5.366  17.968  0.00  0.00    +0.000 N 
ATOM     20  C   UNL     1       5.988   5.454  16.831  0.00  0.00    +0.000 C 
ATOM     21  C   UNL     1       7.354   5.098  17.406  0.00  0.00    +0.000 C 
ATOM     22  C   UNL     1       7.273   5.619  18.827  0.00  0.00    +0.000 C 
ATOM     23  C   UNL     1       5.830   5.339  19.230  0.00  0.00    +0.000 C 
ENDBRANCH  18  19
ENDBRANCH   3  13
TORSDOF 3
ENDMDL
MODEL 6
REMARK VINA RESULT:      -7.8      2.859      5.879
REMARK  Name = 
REMARK  3 active torsions:
REMARK  status: ('A' for Active; 'I' for Inactive)
REMARK    1  A    between atoms: C_5  and  C_6
REMARK    2  A    between atoms: N_8  and  C_9
REMARK    3  A    between atoms: C_14  and  N_15
REMARK                            x       y       z     vdW  Elec       q    Type
REMARK                         _______ _______ _______ _____ _____    ______ ____
ROOT
ATOM      1  C   UNL     1       2.129   6.625  19.477  0.00  0.00    +0.000 C 
ATOM      2  O   UNL     1       2.160   6.140  20.602  0.00  0.00    +0.000 OA
ATOM      3  N   UNL     1       2.386   5.980  18.288  0.00  0.00    +0.000 N 
ATOM      4  H   UNL     1       2.652   6.548  17.487  0.00  0.00    +0.000 HD
ENDROOT
BRANCH   1   9
ATOM      5  O   UNL     1       1.118  12.056  19.144  0.00  0.00    +0.000 OA
ATOM      6  C   UNL     1       1.273  10.837  19.117  0.00  0.00    +0.000 C 
ATOM      7  C   UNL     1       1.627  10.110  17.849  0.00  0.00    +0.000 C 
ATOM      8  C   UNL     1       2.271   8.767  18.086  0.00  0.00    +0.000 C 
ATOM      9  C   UNL     1       1.804   8.106  19.353  0.00  0.00    +0.000 C 
ATOM     10  N   UNL     1       1.241   8.725  20.345  0.00  0.00    +0.000 NA
ATOM     11  N   UNL     1       1.045  10.067  20.225  0.00  0.00    +0.000 N 
ATOM     12  H   UNL     1       0.736  10.561  21.059  0.00  0.00    +0.000 HD
ENDBRANCH   1   9
BRANCH   3  13
ATOM     13  C   UNL     1       2.669   4.600  18.202  0.00  0.00    +0.000 A 
ATOM     14  C   UNL     1       1.618   3.672  18.294  0.00  0.00    +0.000 A 
ATOM     15  C   UNL     1       1.863   2.311  18.168  0.00  0.00    +0.000 A 
ATOM     16  C   UNL     1       3.163   1.869  17.969  0.00  0.00    +0.000 A 
ATOM     17  C   UNL     1       4.216   2.789  17.879  0.00  0.00    +0.000 A 
ATOM     18  C   UNL     1       4.004   4.177  17.975  0.00  0.00    +0.000 A 
BRANCH  18  19
ATOM     19  N   UNL     1       5.054   5.117  17.930  0.00  0.00    +0.000 N 
ATOM     20  C   UNL     1       6.041   5.091  16.837  0.00  0.00    +0.000 C 
ATOM     21  C   UNL     1       7.383   4.847  17.517  0.00  0.00    +0.000 C 
ATOM     22  C   UNL     1       7.218   5.535  18.857  0.00  0.00    +0.000 C 
ATOM     23  C   UNL     1       5.763   5.266  19.221  0.00  0.00    +0.000 C 
ENDBRANCH  18  19
ENDBRANCH   3  13
TORSDOF 3
ENDMDL
MODEL 7
REMARK VINA RESULT:      -7.8      3.124      6.406
REMARK  Name = 
REMARK  3 active torsions:
REMARK  status: ('A' for Active; 'I' for Inactive)
REMARK    1  A    between atoms: C_5  and  C_6
REMARK    2  A    between atoms: N_8  and  C_9
REMARK    3  A    between atoms: C_14  and  N_15
REMARK                            x       y       z     vdW  Elec       q    Type
REMARK                         _______ _______ _______ _____ _____    ______ ____
ROOT
ATOM      1  C   UNL     1       2.005   6.642  20.014  0.00  0.00    +0.000 C 
ATOM      2  O   UNL     1       1.879   5.774  20.870  0.00  0.00    +0.000 OA
ATOM      3  N   UNL     1       2.512   6.487  18.743  0.00  0.00    +0.000 N 
ATOM      4  H   UNL     1       2.867   7.313  18.268  0.00  0.00    +0.000 HD
ENDROOT
BRANCH   1   9
ATOM      5  O   UNL     1       0.706  11.842  21.390  0.00  0.00    +0.000 OA
ATOM      6  C   UNL     1       0.893  10.688  21.015  0.00  0.00    +0.000 C 
ATOM      7  C   UNL     1       0.781  10.296  19.567  0.00  0.00    +0.000 C 
ATOM      8  C   UNL     1       1.525   9.028  19.228  0.00  0.00    +0.000 C 
ATOM      9  C   UNL     1       1.592   8.060  20.376  0.00  0.00    +0.000 C 
ATOM     10  N   UNL     1       1.413   8.378  21.621  0.00  0.00    +0.000 NA
ATOM     11  N   UNL     1       1.127   9.678  21.909  0.00  0.00    +0.000 N 
ATOM     12  H   UNL     1       1.130   9.941  22.892  0.00  0.00    +0.000 HD
ENDBRANCH   1   9
BRANCH   3  13
ATOM     13  C   UNL     1       2.912   5.239  18.217  0.00  0.00    +0.000 A 
ATOM     14  C   UNL     1       1.939   4.269  17.925  0.00  0.00    +0.000 A 
ATOM     15  C   UNL     1       2.301   3.050  17.365  0.00  0.00    +0.000 A 
ATOM     16  C   UNL     1       3.640   2.788  17.113  0.00  0.00    +0.000 A 
ATOM     17  C   UNL     1       4.616   3.751  17.405  0.00  0.00    +0.000 A 
ATOM     18  C   UNL     1       4.285   5.007  17.947  0.00  0.00    +0.000 A 
BRANCH  18  19
ATOM     19  N   UNL     1       5.254   5.972  18.287  0.00  0.00    +0.000 N 
ATOM     20  C   UNL     1       5.818   6.868  17.262  0.00  0.00    +0.000 C 
ATOM     21  C   UNL     1       7.311   6.565  17.244  0.00  0.00    +0.000 C 
ATOM     22  C   UNL     1       7.602   6.193  18.684  0.00  0.00    +0.000 C 
ATOM     23  C   UNL     1       6.355   5.431  19.117  0.00  0.00    +0.000 C 
ENDBRANCH  18  19
ENDBRANCH   3  13
TORSDOF 3
ENDMDL
MODEL 8
REMARK VINA RESULT:      -7.7      3.137      6.378
REMARK  Name = 
REMARK  3 active torsions:
REMARK  status: ('A' for Active; 'I' for Inactive)
REMARK    1  A    between atoms: C_5  and  C_6
REMARK    2  A    between atoms: N_8  and  C_9
REMARK    3  A    between atoms: C_14  and  N_15
REMARK                            x       y       z     vdW  Elec       q    Type
REMARK                         _______ _______ _______ _____ _____    ______ ____
ROOT
ATOM      1  C   UNL     1       2.019   6.710  19.849  0.00  0.00    +0.000 C 
ATOM      2  O   UNL     1       1.934   5.935  20.795  0.00  0.00    +0.000 OA
ATOM      3  N   UNL     1       2.507   6.434  18.591  0.00  0.00    +0.000 N 
ATOM      4  H   UNL     1       2.830   7.214  18.025  0.00  0.00    +0.000 HD
ENDROOT
BRANCH   1   9
ATOM      5  O   UNL     1       0.211  11.893  20.553  0.00  0.00    +0.000 OA
ATOM      6  C   UNL     1       0.693  10.765  20.487  0.00  0.00    +0.000 C 
ATOM      7  C   UNL     1       0.948   9.938  21.717  0.00  0.00    +0.000 C 
ATOM      8  C   UNL     1       1.037   8.458  21.438  0.00  0.00    +0.000 C 
ATOM      9  C   UNL     1       1.574   8.148  20.069  0.00  0.00    +0.000 C 
ATOM     10  N   UNL     1       1.593   8.984  19.076  0.00  0.00    +0.000 NA
ATOM     11  N   UNL     1       1.107  10.237  19.293  0.00  0.00    +0.000 N 
ATOM     12  H   UNL     1       0.996  10.833  18.477  0.00  0.00    +0.000 HD
ENDBRANCH   1   9
BRANCH   3  13
ATOM     13  C   UNL     1       2.932   5.149  18.192  0.00  0.00    +0.000 A 
ATOM     14  C   UNL     1       1.975   4.151  17.945  0.00  0.00    +0.000 A 
ATOM     15  C   UNL     1       2.363   2.890  17.508  0.00  0.00    +0.000 A 
ATOM     16  C   UNL     1       3.712   2.616  17.334  0.00  0.00    +0.000 A 
ATOM     17  C   UNL     1       4.672   3.607  17.581  0.00  0.00    +0.000 A 
ATOM     18  C   UNL     1       4.315   4.903  17.999  0.00  0.00    +0.000 A 
BRANCH  18  19
ATOM     19  N   UNL     1       5.267   5.900  18.294  0.00  0.00    +0.000 N 
ATOM     20  C   UNL     1       5.802   6.769  17.231  0.00  0.00    +0.000 C 
ATOM     21  C   UNL     1       7.301   6.496  17.210  0.00  0.00    +0.000 C 
ATOM     22  C   UNL     1       7.613   6.184  18.660  0.00  0.00    +0.000 C 
ATOM     23  C   UNL     1       6.386   5.413  19.132  0.00  0.00    +0.000 C 
ENDBRANCH  18  19
ENDBRANCH   3  13
TORSDOF 3
ENDMDL
MODEL 9
REMARK VINA RESULT:      -7.6      2.584      6.421
REMARK  Name = 
REMARK  3 active torsions:
REMARK  status: ('A' for Active; 'I' for Inactive)
REMARK    1  A    between atoms: C_5  and  C_6
REMARK    2  A    between atoms: N_8  and  C_9
REMARK    3  A    between atoms: C_14  and  N_15
REMARK                            x       y       z     vdW  Elec       q    Type
REMARK                         _______ _______ _______ _____ _____    ______ ____
ROOT
ATOM      1  C   UNL     1       3.690   4.445  17.835  0.00  0.00    +0.000 C 
ATOM      2  O   UNL     1       3.200   5.439  17.312  0.00  0.00    +0.000 OA
ATOM      3  N   UNL     1       4.763   3.710  17.382  0.00  0.00    +0.000 N 
ATOM      4  H   UNL     1       4.853   2.751  17.705  0.00  0.00    +0.000 HD
ENDROOT
BRANCH   1   9
ATOM      5  O   UNL     1       1.198   2.443  22.354  0.00  0.00    +0.000 OA
ATOM      6  C   UNL     1       1.850   2.907  21.422  0.00  0.00    +0.000 C 
ATOM      7  C   UNL     1       3.268   2.484  21.157  0.00  0.00    +0.000 C 
ATOM      8  C   UNL     1       3.716   2.735  19.738  0.00  0.00    +0.000 C 
ATOM      9  C   UNL     1       3.044   3.924  19.110  0.00  0.00    +0.000 C 
ATOM     10  N   UNL     1       1.935   4.453  19.530  0.00  0.00    +0.000 NA
ATOM     11  N   UNL     1       1.345   3.902  20.627  0.00  0.00    +0.000 N 
ATOM     12  H   UNL     1       0.412   4.232  20.859  0.00  0.00    +0.000 HD
ENDBRANCH   1   9
BRANCH   3  13
ATOM     13  C   UNL     1       5.510   4.061  16.236  0.00  0.00    +0.000 A 
ATOM     14  C   UNL     1       5.362   3.308  15.059  0.00  0.00    +0.000 A 
ATOM     15  C   UNL     1       6.051   3.658  13.904  0.00  0.00    +0.000 A 
ATOM     16  C   UNL     1       6.907   4.750  13.928  0.00  0.00    +0.000 A 
ATOM     17  C   UNL     1       7.061   5.502  15.100  0.00  0.00    +0.000 A 
ATOM     18  C   UNL     1       6.359   5.195  16.280  0.00  0.00    +0.000 A 
BRANCH  18  19
ATOM     19  N   UNL     1       6.532   5.913  17.481  0.00  0.00    +0.000 N 
ATOM     20  C   UNL     1       6.586   7.386  17.478  0.00  0.00    +0.000 C 
ATOM     21  C   UNL     1       7.963   7.736  18.027  0.00  0.00    +0.000 C 
ATOM     22  C   UNL     1       8.239   6.611  19.004  0.00  0.00    +0.000 C 
ATOM     23  C   UNL     1       7.630   5.390  18.325  0.00  0.00    +0.000 C 
ENDBRANCH  18  19
ENDBRANCH   3  13
TORSDOF 3
ENDMDL
