MODEL 1
REMARK VINA RESULT:      -7.6      0.000      0.000
REMARK  Name = 
REMARK  3 active torsions:
REMARK  status: ('A' for Active; 'I' for Inactive)
REMARK    1  A    between atoms: C_1  and  N_2
REMARK    2  A    between atoms: C_7  and  C_8
REMARK    3  A    between atoms: N_10  and  C_11
REMARK                            x       y       z     vdW  Elec       q    Type
REMARK                         _______ _______ _______ _____ _____    ______ ____
ROOT
ATOM      1  C   UNL     1       1.865   8.760  18.383  0.00  0.00    +0.000 C 
ATOM      2  O   UNL     1       2.013   9.141  17.224  0.00  0.00    +0.000 OA
ATOM      3  N   UNL     1       2.372   7.584  18.917  0.00  0.00    +0.000 N 
ATOM      4  H   UNL     1       2.004   7.283  19.812  0.00  0.00    +0.000 HD
ENDROOT
BRANCH   1  11
ATOM      5  C   UNL     1      -2.283  12.610  22.020  0.00  0.00    +0.000 C 
ATOM      6  N   UNL     1      -1.393  11.473  22.073  0.00  0.00    +0.000 N 
ATOM      7  C   UNL     1      -1.150  10.732  23.200  0.00  0.00    +0.000 A 
ATOM      8  C   UNL     1      -0.248   9.748  22.872  0.00  0.00    +0.000 A 
ATOM      9  C   UNL     1       0.068   9.895  21.495  0.00  0.00    +0.000 A 
ATOM     10  C   UNL     1       0.907   9.193  20.612  0.00  0.00    +0.000 A 
ATOM     11  C   UNL     1       0.998   9.587  19.266  0.00  0.00    +0.000 A 
ATOM     12  C   UNL     1       0.247  10.668  18.797  0.00  0.00    +0.000 A 
ATOM     13  C   UNL     1      -0.595  11.383  19.664  0.00  0.00    +0.000 A 
ATOM     14  C   UNL     1      -0.666  10.979  21.008  0.00  0.00    +0.000 A 
ENDBRANCH   1  11
BRANCH   3  15
ATOM     15  C   UNL     1       3.171   6.654  18.206  0.00  0.00    +0.000 A 
ATOM     16  C   UNL     1       4.340   7.018  17.526  0.00  0.00    +0.000 A 
ATOM     17  C   UNL     1       5.069   6.081  16.789  0.00  0.00    +0.000 A 
ATOM     18  C   UNL     1       4.639   4.759  16.721  0.00  0.00    +0.000 A 
ATOM     19 CL   UNL     1       5.567   3.660  15.765  0.00  0.00    +0.000 Cl
ATOM     20  C   UNL     1       3.487   4.374  17.414  0.00  0.00    +0.000 A 
ATOM     21 CL   UNL     1       2.878   2.756  17.355  0.00  0.00    +0.000 Cl
ATOM     22  C   UNL     1       2.767   5.314  18.169  0.00  0.00    +0.000 A 
ENDBRANCH   3  15
TORSDOF 2
ENDMDL
MODEL 2
REMARK VINA RESULT:      -7.5      0.800      1.618
REMARK  Name = 
REMARK  3 active torsions:
REMARK  status: ('A' for Active; 'I' for Inactive)
REMARK    1  A    between atoms: C_1  and  N_2
REMARK    2  A    between atoms: C_7  and  C_8
REMARK    3  A    between atoms: N_10  and  C_11
REMARK                            x       y       z     vdW  Elec       q    Type
REMARK                         _______ _______ _______ _____ _____    ______ ____
ROOT
ATOM      1  C   UNL     1       1.991   8.566  18.379  0.00  0.00    +0.000 C 
ATOM      2  O   UNL     1       2.127   8.966  17.225  0.00  0.00    +0.000 OA
ATOM      3  N   UNL     1       2.490   7.375  18.884  0.00  0.00    +0.000 N 
ATOM      4  H   UNL     1       2.131   7.063  19.779  0.00  0.00    +0.000 HD
ENDROOT
BRANCH   1  11
ATOM      5  C   UNL     1      -2.030  12.428  22.143  0.00  0.00    +0.000 C 
ATOM      6  N   UNL     1      -1.195  11.249  22.152  0.00  0.00    +0.000 N 
ATOM      7  C   UNL     1      -1.006  10.443  23.245  0.00  0.00    +0.000 A 
ATOM      8  C   UNL     1      -0.145   9.434  22.881  0.00  0.00    +0.000 A 
ATOM      9  C   UNL     1       0.200   9.633  21.517  0.00  0.00    +0.000 A 
ATOM     10  C   UNL     1       1.019   8.936  20.613  0.00  0.00    +0.000 A 
ATOM     11  C   UNL     1       1.150   9.390  19.289  0.00  0.00    +0.000 A 
ATOM     12  C   UNL     1       0.457  10.527  18.863  0.00  0.00    +0.000 A 
ATOM     13  C   UNL     1      -0.364  11.238  19.753  0.00  0.00    +0.000 A 
ATOM     14  C   UNL     1      -0.475  10.773  21.075  0.00  0.00    +0.000 A 
ENDBRANCH   1  11
BRANCH   3  15
ATOM     15  C   UNL     1       3.264   6.446  18.145  0.00  0.00    +0.000 A 
ATOM     16  C   UNL     1       2.791   5.178  17.784  0.00  0.00    +0.000 A 
ATOM     17  C   UNL     1       3.605   4.268  17.103  0.00  0.00    +0.000 A 
ATOM     18  C   UNL     1       4.912   4.615  16.772  0.00  0.00    +0.000 A 
ATOM     19 CL   UNL     1       5.876   3.433  15.962  0.00  0.00    +0.000 Cl
ATOM     20  C   UNL     1       5.393   5.886  17.104  0.00  0.00    +0.000 A 
ATOM     21 CL   UNL     1       7.012   6.377  16.747  0.00  0.00    +0.000 Cl
ATOM     22  C   UNL     1       4.564   6.804  17.771  0.00  0.00    +0.000 A 
ENDBRANCH   3  15
TORSDOF 2
ENDMDL
MODEL 3
REMARK VINA RESULT:      -7.2      1.192      1.246
REMARK  Name = 
REMARK  3 active torsions:
REMARK  status: ('A' for Active; 'I' for Inactive)
REMARK    1  A    between atoms: C_1  and  N_2
REMARK    2  A    between atoms: C_7  and  C_8
REMARK    3  A    between atoms: N_10  and  C_11
REMARK                            x       y       z     vdW  Elec       q    Type
REMARK                         _______ _______ _______ _____ _____    ______ ____
ROOT
ATOM      1  C   UNL     1       2.197   7.410  19.455  0.00  0.00    +0.000 C 
ATOM      2  O   UNL     1       2.341   6.431  20.185  0.00  0.00    +0.000 OA
ATOM      3  N   UNL     1       2.786   7.582  18.211  0.00  0.00    +0.000 N 
ATOM      4  H   UNL     1       2.762   8.513  17.810  0.00  0.00    +0.000 HD
ENDROOT
BRANCH   1  11
ATOM      5  C   UNL     1      -1.586  12.600  21.455  0.00  0.00    +0.000 C 
ATOM      6  N   UNL     1      -0.981  11.360  21.882  0.00  0.00    +0.000 N 
ATOM      7  C   UNL     1      -1.094  10.836  23.143  0.00  0.00    +0.000 A 
ATOM      8  C   UNL     1      -0.380   9.662  23.180  0.00  0.00    +0.000 A 
ATOM      9  C   UNL     1       0.187   9.463  21.892  0.00  0.00    +0.000 A 
ATOM     10  C   UNL     1       0.993   8.457  21.333  0.00  0.00    +0.000 A 
ATOM     11  C   UNL     1       1.390   8.542  19.987  0.00  0.00    +0.000 A 
ATOM     12  C   UNL     1       0.976   9.617  19.198  0.00  0.00    +0.000 A 
ATOM     13  C   UNL     1       0.173  10.634  19.739  0.00  0.00    +0.000 A 
ATOM     14  C   UNL     1      -0.207  10.536  21.089  0.00  0.00    +0.000 A 
ENDBRANCH   1  11
BRANCH   3  15
ATOM     15  C   UNL     1       3.626   6.633  17.577  0.00  0.00    +0.000 A 
ATOM     16  C   UNL     1       4.660   6.995  16.704  0.00  0.00    +0.000 A 
ATOM     17  C   UNL     1       5.430   6.026  16.054  0.00  0.00    +0.000 A 
ATOM     18  C   UNL     1       5.176   4.675  16.268  0.00  0.00    +0.000 A 
ATOM     19 CL   UNL     1       6.141   3.530  15.408  0.00  0.00    +0.000 Cl
ATOM     20  C   UNL     1       4.163   4.296  17.155  0.00  0.00    +0.000 A 
ATOM     21 CL   UNL     1       3.774   2.637  17.452  0.00  0.00    +0.000 Cl
ATOM     22  C   UNL     1       3.404   5.273  17.821  0.00  0.00    +0.000 A 
ENDBRANCH   3  15
TORSDOF 2
ENDMDL
MODEL 4
REMARK VINA RESULT:      -7.2      0.588      1.694
REMARK  Name = 
REMARK  3 active torsions:
REMARK  status: ('A' for Active; 'I' for Inactive)
REMARK    1  A    between atoms: C_1  and  N_2
REMARK    2  A    between atoms: C_7  and  C_8
REMARK    3  A    between atoms: N_10  and  C_11
REMARK                            x       y       z     vdW  Elec       q    Type
REMARK                         _______ _______ _______ _____ _____    ______ ____
ROOT
ATOM      1  C   UNL     1       1.803   8.765  18.463  0.00  0.00    +0.000 C 
ATOM      2  O   UNL     1       1.998   9.222  17.339  0.00  0.00    +0.000 OA
ATOM      3  N   UNL     1       2.289   7.555  18.937  0.00  0.00    +0.000 N 
ATOM      4  H   UNL     1       1.885   7.196  19.794  0.00  0.00    +0.000 HD
ENDROOT
BRANCH   1  11
ATOM      5  C   UNL     1      -1.988  12.181  22.846  0.00  0.00    +0.000 C 
ATOM      6  N   UNL     1      -1.690  12.007  21.443  0.00  0.00    +0.000 N 
ATOM      7  C   UNL     1      -2.287  12.712  20.431  0.00  0.00    +0.000 A 
ATOM      8  C   UNL     1      -1.761  12.269  19.240  0.00  0.00    +0.000 A 
ATOM      9  C   UNL     1      -0.809  11.258  19.539  0.00  0.00    +0.000 A 
ATOM     10  C   UNL     1       0.038  10.460  18.751  0.00  0.00    +0.000 A 
ATOM     11  C   UNL     1       0.900   9.533  19.362  0.00  0.00    +0.000 A 
ATOM     12  C   UNL     1       0.929   9.411  20.754  0.00  0.00    +0.000 A 
ATOM     13  C   UNL     1       0.089  10.198  21.558  0.00  0.00    +0.000 A 
ATOM     14  C   UNL     1      -0.772  11.112  20.928  0.00  0.00    +0.000 A 
ENDBRANCH   1  11
BRANCH   3  15
ATOM     15  C   UNL     1       3.117   6.673  18.198  0.00  0.00    +0.000 A 
ATOM     16  C   UNL     1       4.234   7.106  17.474  0.00  0.00    +0.000 A 
ATOM     17  C   UNL     1       4.992   6.213  16.711  0.00  0.00    +0.000 A 
ATOM     18  C   UNL     1       4.643   4.866  16.663  0.00  0.00    +0.000 A 
ATOM     19 CL   UNL     1       5.601   3.823  15.675  0.00  0.00    +0.000 Cl
ATOM     20  C   UNL     1       3.544   4.413  17.400  0.00  0.00    +0.000 A 
ATOM     21 CL   UNL     1       3.036   2.760  17.369  0.00  0.00    +0.000 Cl
ATOM     22  C   UNL     1       2.796   5.311  18.180  0.00  0.00    +0.000 A 
ENDBRANCH   3  15
TORSDOF 2
ENDMDL
MODEL 5
REMARK VINA RESULT:      -7.2      1.045      2.301
REMARK  Name = 
REMARK  3 active torsions:
REMARK  status: ('A' for Active; 'I' for Inactive)
REMARK    1  A    between atoms: C_1  and  N_2
REMARK    2  A    between atoms: C_7  and  C_8
REMARK    3  A    between atoms: N_10  and  C_11
REMARK                            x       y       z     vdW  Elec       q    Type
REMARK                         _______ _______ _______ _____ _____    ______ ____
ROOT
ATOM      1  C   UNL     1       2.073   8.323  18.480  0.00  0.00    +0.000 C 
ATOM      2  O   UNL     1       2.220   8.813  17.363  0.00  0.00    +0.000 OA
ATOM      3  N   UNL     1       2.587   7.105  18.901  0.00  0.00    +0.000 N 
ATOM      4  H   UNL     1       2.220   6.717  19.762  0.00  0.00    +0.000 HD
ENDROOT
BRANCH   1  11
ATOM      5  C   UNL     1      -1.602  11.520  23.120  0.00  0.00    +0.000 C 
ATOM      6  N   UNL     1      -1.253  11.492  21.718  0.00  0.00    +0.000 N 
ATOM      7  C   UNL     1      -1.735  12.369  20.782  0.00  0.00    +0.000 A 
ATOM      8  C   UNL     1      -1.195  12.028  19.565  0.00  0.00    +0.000 A 
ATOM      9  C   UNL     1      -0.353  10.902  19.768  0.00  0.00    +0.000 A 
ATOM     10  C   UNL     1       0.456  10.129  18.917  0.00  0.00    +0.000 A 
ATOM     11  C   UNL     1       1.201   9.057  19.437  0.00  0.00    +0.000 A 
ATOM     12  C   UNL     1       1.152   8.762  20.802  0.00  0.00    +0.000 A 
ATOM     13  C   UNL     1       0.348   9.521  21.668  0.00  0.00    +0.000 A 
ATOM     14  C   UNL     1      -0.396  10.584  21.128  0.00  0.00    +0.000 A 
ENDBRANCH   1  11
BRANCH   3  15
ATOM     15  C   UNL     1       3.392   6.251  18.105  0.00  0.00    +0.000 A 
ATOM     16  C   UNL     1       2.957   4.997  17.656  0.00  0.00    +0.000 A 
ATOM     17  C   UNL     1       3.801   4.160  16.921  0.00  0.00    +0.000 A 
ATOM     18  C   UNL     1       5.098   4.566  16.622  0.00  0.00    +0.000 A 
ATOM     19 CL   UNL     1       6.100   3.470  15.740  0.00  0.00    +0.000 Cl
ATOM     20  C   UNL     1       5.540   5.824  17.043  0.00  0.00    +0.000 A 
ATOM     21 CL   UNL     1       7.146   6.385  16.730  0.00  0.00    +0.000 Cl
ATOM     22  C   UNL     1       4.683   6.671  17.765  0.00  0.00    +0.000 A 
ENDBRANCH   3  15
TORSDOF 2
ENDMDL
MODEL 6
REMARK VINA RESULT:      -7.2      3.911      8.312
REMARK  Name = 
REMARK  3 active torsions:
REMARK  status: ('A' for Active; 'I' for Inactive)
REMARK    1  A    between atoms: C_1  and  N_2
REMARK    2  A    between atoms: C_7  and  C_8
REMARK    3  A    between atoms: N_10  and  C_11
REMARK                            x       y       z     vdW  Elec       q    Type
REMARK                         _______ _______ _______ _____ _____    ______ ____
ROOT
ATOM      1  C   UNL     1       2.085   6.781  20.000  0.00  0.00    +0.000 C 
ATOM      2  O   UNL     1       1.511   6.072  20.822  0.00  0.00    +0.000 OA
ATOM      3  N   UNL     1       1.927   8.152  19.866  0.00  0.00    +0.000 N 
ATOM      4  H   UNL     1       2.287   8.582  19.021  0.00  0.00    +0.000 HD
ENDROOT
BRANCH   1  11
ATOM      5  C   UNL     1       5.827   3.334  15.598  0.00  0.00    +0.000 C 
ATOM      6  N   UNL     1       5.344   4.651  15.946  0.00  0.00    +0.000 N 
ATOM      7  C   UNL     1       5.627   5.791  15.240  0.00  0.00    +0.000 A 
ATOM      8  C   UNL     1       5.009   6.844  15.872  0.00  0.00    +0.000 A 
ATOM      9  C   UNL     1       4.323   6.324  17.003  0.00  0.00    +0.000 A 
ATOM     10  C   UNL     1       3.525   6.905  18.004  0.00  0.00    +0.000 A 
ATOM     11  C   UNL     1       2.962   6.099  19.009  0.00  0.00    +0.000 A 
ATOM     12  C   UNL     1       3.182   4.719  19.010  0.00  0.00    +0.000 A 
ATOM     13  C   UNL     1       3.978   4.121  18.020  0.00  0.00    +0.000 A 
ATOM     14  C   UNL     1       4.540   4.945  17.029  0.00  0.00    +0.000 A 
ENDBRANCH   1  11
BRANCH   3  15
ATOM     15  C   UNL     1       1.092   8.952  20.686  0.00  0.00    +0.000 A 
ATOM     16  C   UNL     1       1.041   8.817  22.079  0.00  0.00    +0.000 A 
ATOM     17  C   UNL     1       0.162   9.586  22.848  0.00  0.00    +0.000 A 
ATOM     18  C   UNL     1      -0.681  10.506  22.233  0.00  0.00    +0.000 A 
ATOM     19 CL   UNL     1      -1.765  11.399  23.238  0.00  0.00    +0.000 Cl
ATOM     20  C   UNL     1      -0.625  10.670  20.845  0.00  0.00    +0.000 A 
ATOM     21 CL   UNL     1      -1.660  11.776  20.009  0.00  0.00    +0.000 Cl
ATOM     22  C   UNL     1       0.272   9.909  20.078  0.00  0.00    +0.000 A 
ENDBRANCH   3  15
TORSDOF 2
ENDMDL
MODEL 7
REMARK VINA RESULT:      -7.1      4.379      7.573
REMARK  Name = 
REMARK  3 active torsions:
REMARK  status: ('A' for Active; 'I' for Inactive)
REMARK    1  A    between atoms: C_1  and  N_2
REMARK    2  A    between atoms: C_7  and  C_8
REMARK    3  A    between atoms: N_10  and  C_11
REMARK                            x       y       z     vdW  Elec       q    Type
REMARK                         _______ _______ _______ _____ _____    ______ ____
ROOT
ATOM      1  C   UNL     1       1.704   8.246  19.770  0.00  0.00    +0.000 C 
ATOM      2  O   UNL     1       1.508   8.641  20.917  0.00  0.00    +0.000 OA
ATOM      3  N   UNL     1       1.551   9.003  18.618  0.00  0.00    +0.000 N 
ATOM      4  H   UNL     1       1.534   8.507  17.734  0.00  0.00    +0.000 HD
ENDROOT
BRANCH   1  11
ATOM      5  C   UNL     1       3.573   1.876  18.681  0.00  0.00    +0.000 C 
ATOM      6  N   UNL     1       3.008   2.780  19.656  0.00  0.00    +0.000 N 
ATOM      7  C   UNL     1       2.640   2.417  20.926  0.00  0.00    +0.000 A 
ATOM      8  C   UNL     1       2.136   3.532  21.554  0.00  0.00    +0.000 A 
ATOM      9  C   UNL     1       2.202   4.612  20.633  0.00  0.00    +0.000 A 
ATOM     10  C   UNL     1       1.848   5.970  20.704  0.00  0.00    +0.000 A 
ATOM     11  C   UNL     1       2.055   6.810  19.596  0.00  0.00    +0.000 A 
ATOM     12  C   UNL     1       2.624   6.302  18.425  0.00  0.00    +0.000 A 
ATOM     13  C   UNL     1       2.982   4.948  18.334  0.00  0.00    +0.000 A 
ATOM     14  C   UNL     1       2.759   4.122  19.450  0.00  0.00    +0.000 A 
ENDBRANCH   1  11
BRANCH   3  15
ATOM     15  C   UNL     1       1.170  10.369  18.595  0.00  0.00    +0.000 A 
ATOM     16  C   UNL     1       2.080  11.408  18.364  0.00  0.00    +0.000 A 
ATOM     17  C   UNL     1       1.676  12.745  18.406  0.00  0.00    +0.000 A 
ATOM     18  C   UNL     1       0.350  13.065  18.679  0.00  0.00    +0.000 A 
ATOM     19 CL   UNL     1      -0.076  14.737  18.749  0.00  0.00    +0.000 Cl
ATOM     20  C   UNL     1      -0.577  12.038  18.888  0.00  0.00    +0.000 A 
ATOM     21 CL   UNL     1      -2.236  12.360  19.257  0.00  0.00    +0.000 Cl
ATOM     22  C   UNL     1      -0.171  10.695  18.827  0.00  0.00    +0.000 A 
ENDBRANCH   3  15
TORSDOF 2
ENDMDL
MODEL 8
REMARK VINA RESULT:      -7.1      4.280      7.876
REMARK  Name = 
REMARK  3 active torsions:
REMARK  status: ('A' for Active; 'I' for Inactive)
REMARK    1  A    between atoms: C_1  and  N_2
REMARK    2  A    between atoms: C_7  and  C_8
REMARK    3  A    between atoms: N_10  and  C_11
REMARK                            x       y       z     vdW  Elec       q    Type
REMARK                         _______ _______ _______ _____ _____    ______ ____
ROOT
ATOM      1  C   UNL     1       1.811   8.287  19.726  0.00  0.00    +0.000 C 
ATOM      2  O   UNL     1       1.538   8.614  20.879  0.00  0.00    +0.000 OA
ATOM      3  N   UNL     1       1.639   9.079  18.600  0.00  0.00    +0.000 N 
ATOM      4  H   UNL     1       1.698   8.622  17.697  0.00  0.00    +0.000 HD
ENDROOT
BRANCH   1  11
ATOM      5  C   UNL     1       3.628   1.853  18.982  0.00  0.00    +0.000 C 
ATOM      6  N   UNL     1       3.713   3.169  18.392  0.00  0.00    +0.000 N 
ATOM      7  C   UNL     1       4.364   3.452  17.220  0.00  0.00    +0.000 A 
ATOM      8  C   UNL     1       4.244   4.801  16.984  0.00  0.00    +0.000 A 
ATOM      9  C   UNL     1       3.490   5.359  18.052  0.00  0.00    +0.000 A 
ATOM     10  C   UNL     1       3.047   6.659  18.350  0.00  0.00    +0.000 A 
ATOM     11  C   UNL     1       2.288   6.894  19.509  0.00  0.00    +0.000 A 
ATOM     12  C   UNL     1       1.959   5.836  20.362  0.00  0.00    +0.000 A 
ATOM     13  C   UNL     1       2.394   4.531  20.081  0.00  0.00    +0.000 A 
ATOM     14  C   UNL     1       3.160   4.318  18.922  0.00  0.00    +0.000 A 
ENDBRANCH   1  11
BRANCH   3  15
ATOM     15  C   UNL     1       1.145  10.408  18.616  0.00  0.00    +0.000 A 
ATOM     16  C   UNL     1       1.978  11.529  18.505  0.00  0.00    +0.000 A 
ATOM     17  C   UNL     1       1.459  12.825  18.582  0.00  0.00    +0.000 A 
ATOM     18  C   UNL     1       0.094  13.019  18.772  0.00  0.00    +0.000 A 
ATOM     19 CL   UNL     1      -0.476  14.645  18.892  0.00  0.00    +0.000 Cl
ATOM     20  C   UNL     1      -0.754  11.910  18.860  0.00  0.00    +0.000 A 
ATOM     21 CL   UNL     1      -2.456  12.075  19.120  0.00  0.00    +0.000 Cl
ATOM     22  C   UNL     1      -0.231  10.610  18.763  0.00  0.00    +0.000 A 
ENDBRANCH   3  15
TORSDOF 2
ENDMDL
MODEL 9
REMARK VINA RESULT:      -7.1      4.349      7.672
REMARK  Name = 
REMARK  3 active torsions:
REMARK  status: ('A' for Active; 'I' for Inactive)
REMARK    1  A    between atoms: C_1  and  N_2
REMARK    2  A    between atoms: C_7  and  C_8
REMARK    3  A    between atoms: N_10  and  C_11
REMARK                            x       y       z     vdW  Elec       q    Type
REMARK                         _______ _______ _______ _____ _____    ______ ____
ROOT
ATOM      1  C   UNL     1       1.671   8.453  19.836  0.00  0.00    +0.000 C 
ATOM      2  O   UNL     1       1.606   8.837  21.002  0.00  0.00    +0.000 OA
ATOM      3  N   UNL     1       1.373   9.216  18.717  0.00  0.00    +0.000 N 
ATOM      4  H   UNL     1       1.259   8.726  17.837  0.00  0.00    +0.000 HD
ENDROOT
BRANCH   1  11
ATOM      5  C   UNL     1       3.531   2.122  18.525  0.00  0.00    +0.000 C 
ATOM      6  N   UNL     1       2.943   2.987  19.523  0.00  0.00    +0.000 N 
ATOM      7  C   UNL     1       2.536   2.573  20.764  0.00  0.00    +0.000 A 
ATOM      8  C   UNL     1       2.021   3.663  21.425  0.00  0.00    +0.000 A 
ATOM      9  C   UNL     1       2.120   4.781  20.554  0.00  0.00    +0.000 A 
ATOM     10  C   UNL     1       1.773   6.138  20.675  0.00  0.00    +0.000 A 
ATOM     11  C   UNL     1       2.017   7.023  19.610  0.00  0.00    +0.000 A 
ATOM     12  C   UNL     1       2.617   6.562  18.435  0.00  0.00    +0.000 A 
ATOM     13  C   UNL     1       2.969   5.210  18.295  0.00  0.00    +0.000 A 
ATOM     14  C   UNL     1       2.709   4.339  19.367  0.00  0.00    +0.000 A 
ENDBRANCH   1  11
BRANCH   3  15
ATOM     15  C   UNL     1       0.975  10.576  18.750  0.00  0.00    +0.000 A 
ATOM     16  C   UNL     1      -0.351  10.975  18.964  0.00  0.00    +0.000 A 
ATOM     17  C   UNL     1      -0.713  12.325  18.933  0.00  0.00    +0.000 A 
ATOM     18  C   UNL     1       0.249  13.300  18.687  0.00  0.00    +0.000 A 
ATOM     19 CL   UNL     1      -0.272  14.945  18.629  0.00  0.00    +0.000 Cl
ATOM     20  C   UNL     1       1.581  12.920  18.496  0.00  0.00    +0.000 A 
ATOM     21 CL   UNL     1       2.826  14.073  18.162  0.00  0.00    +0.000 Cl
ATOM     22  C   UNL     1       1.945  11.564  18.547  0.00  0.00    +0.000 A 
ENDBRANCH   3  15
TORSDOF 2
ENDMDL
