MODEL 1
REMARK VINA RESULT:      -6.9      0.000      0.000
REMARK  Name = 
REMARK  6 active torsions:
REMARK  status: ('A' for Active; 'I' for Inactive)
REMARK    1  A    between atoms: C_1  and  O_2
REMARK    2  A    between atoms: O_2  and  C_3
REMARK    3  A    between atoms: C_7  and  C_8
REMARK    4  A    between atoms: C_16  and  N_17
REMARK    5  A    between atoms: C_22  and  C_23
REMARK    6  A    between atoms: C_32  and  O_33
REMARK                            x       y       z     vdW  Elec       q    Type
REMARK                         _______ _______ _______ _____ _____    ______ ____
ROOT
ATOM      1  C   UNL     1      -1.042  12.850  21.603  0.00  0.00    +0.000 C 
ATOM      2  C   UNL     1       0.524  13.603  20.966  0.00  0.00    +0.000 A 
ATOM      3  C   UNL     1       0.989  13.963  19.645  0.00  0.00    +0.000 A 
ATOM      4  C   UNL     1       1.541  15.270  19.445  0.00  0.00    +0.000 A 
ATOM      5  C   UNL     1       1.670  16.179  20.475  0.00  0.00    +0.000 A 
ATOM      6  C   UNL     1       1.475  15.804  21.758  0.00  0.00    +0.000 A 
ATOM      7  C   UNL     1       0.910  14.532  21.919  0.00  0.00    +0.000 A 
ATOM      8  O   UNL     1      -0.004  14.429  22.884  0.00  0.00    +0.000 OA
ATOM      9  C   UNL     1      -1.205  14.835  22.151  0.00  0.00    +0.000 C 
ATOM     10  C   UNL     1      -1.544  13.668  20.556  0.00  0.00    +0.000 C 
ATOM     11  O   UNL     1       1.897  17.458  20.077  0.00  0.00    +0.000 OA
ATOM     12  C   UNL     1       2.403  17.177  18.772  0.00  0.00    +0.000 C 
ATOM     13  O   UNL     1       1.889  15.896  18.270  0.00  0.00    +0.000 OA
ENDROOT
BRANCH   1  18
ATOM     14  C   UNL     1      -5.115  12.935  22.793  0.00  0.00    +0.000 A 
ATOM     15  C   UNL     1      -5.726  13.861  21.915  0.00  0.00    +0.000 A 
ATOM     16  C   UNL     1      -4.996  14.518  20.974  0.00  0.00    +0.000 A 
ATOM     17  C   UNL     1      -3.653  14.217  20.922  0.00  0.00    +0.000 A 
ATOM     18  C   UNL     1      -2.880  13.255  21.864  0.00  0.00    +0.000 A 
ATOM     19  C   UNL     1      -3.702  12.643  22.798  0.00  0.00    +0.000 A 
BRANCH  14  21
ATOM     20  C   UNL     1      -7.260  12.674  23.799  0.00  0.00    +0.000 C 
ATOM     21  O   UNL     1      -5.901  12.244  23.702  0.00  0.00    +0.000 OA
ENDBRANCH  14  21
BRANCH  19  22
ATOM     22  O   UNL     1      -3.258  11.741  23.712  0.00  0.00    +0.000 OA
ATOM     23  H   UNL     1      -2.318  11.580  23.542  0.00  0.00    +0.000 HD
ENDBRANCH  19  22
ENDBRANCH   1  18
BRANCH  10  24
ATOM     24  C   UNL     1      -2.024  12.095  19.798  0.00  0.00    +0.000 A 
ATOM     25  C   UNL     1      -1.100  11.024  19.717  0.00  0.00    +0.000 A 
ATOM     26  C   UNL     1      -1.083  10.124  18.610  0.00  0.00    +0.000 A 
ATOM     27  C   UNL     1      -2.070  10.165  17.613  0.00  0.00    +0.000 A 
ATOM     28  C   UNL     1      -3.130  11.031  17.818  0.00  0.00    +0.000 A 
ATOM     29  C   UNL     1      -3.144  11.947  18.911  0.00  0.00    +0.000 A 
ENDBRANCH  10  24
BRANCH   9  30
ATOM     30  N   UNL     1      -2.014  15.320  23.391  0.00  0.00    +0.000 NA
ATOM     31  C   UNL     1      -2.368  16.772  23.225  0.00  0.00    +0.000 C 
ATOM     32  C   UNL     1      -1.235  17.643  23.802  0.00  0.00    +0.000 C 
ATOM     33  C   UNL     1      -0.639  16.769  24.894  0.00  0.00    +0.000 C 
ATOM     34  C   UNL     1      -1.269  15.400  24.689  0.00  0.00    +0.000 C 
ENDBRANCH   9  30
TORSDOF 5
ENDMDL
MODEL 2
REMARK VINA RESULT:      -6.9      2.042      6.285
REMARK  Name = 
REMARK  6 active torsions:
REMARK  status: ('A' for Active; 'I' for Inactive)
REMARK    1  A    between atoms: C_1  and  O_2
REMARK    2  A    between atoms: O_2  and  C_3
REMARK    3  A    between atoms: C_7  and  C_8
REMARK    4  A    between atoms: C_16  and  N_17
REMARK    5  A    between atoms: C_22  and  C_23
REMARK    6  A    between atoms: C_32  and  O_33
REMARK                            x       y       z     vdW  Elec       q    Type
REMARK                         _______ _______ _______ _____ _____    ______ ____
ROOT
ATOM      1  C   UNL     1      -3.510  13.573  19.640  0.00  0.00    +0.000 C 
ATOM      2  C   UNL     1      -5.241  13.304  20.238  0.00  0.00    +0.000 A 
ATOM      3  C   UNL     1      -6.098  12.142  20.311  0.00  0.00    +0.000 A 
ATOM      4  C   UNL     1      -6.770  11.861  21.545  0.00  0.00    +0.000 A 
ATOM      5  C   UNL     1      -6.649  12.679  22.650  0.00  0.00    +0.000 A 
ATOM      6  C   UNL     1      -6.059  13.890  22.553  0.00  0.00    +0.000 A 
ATOM      7  C   UNL     1      -5.388  14.122  21.346  0.00  0.00    +0.000 A 
ATOM      8  O   UNL     1      -4.225  14.766  21.451  0.00  0.00    +0.000 OA
ATOM      9  C   UNL     1      -3.325  13.638  21.696  0.00  0.00    +0.000 C 
ATOM     10  C   UNL     1      -3.396  12.283  20.221  0.00  0.00    +0.000 C 
ATOM     11  O   UNL     1      -7.067  12.121  23.817  0.00  0.00    +0.000 OA
ATOM     12  C   UNL     1      -7.917  11.115  23.266  0.00  0.00    +0.000 C 
ATOM     13  O   UNL     1      -7.491  10.746  21.909  0.00  0.00    +0.000 OA
ENDROOT
BRANCH   1  18
ATOM     14  C   UNL     1       0.720  13.335  19.891  0.00  0.00    +0.000 A 
ATOM     15  C   UNL     1       0.967  12.238  20.751  0.00  0.00    +0.000 A 
ATOM     16  C   UNL     1      -0.061  11.547  21.314  0.00  0.00    +0.000 A 
ATOM     17  C   UNL     1      -1.331  11.966  20.988  0.00  0.00    +0.000 A 
ATOM     18  C   UNL     1      -1.709  13.179  20.095  0.00  0.00    +0.000 A 
ATOM     19  C   UNL     1      -0.599  13.830  19.578  0.00  0.00    +0.000 A 
BRANCH  14  21
ATOM     20  C   UNL     1       2.599  13.173  18.434  0.00  0.00    +0.000 C 
ATOM     21  O   UNL     1       1.790  13.980  19.293  0.00  0.00    +0.000 OA
ENDBRANCH  14  21
BRANCH  19  22
ATOM     22  O   UNL     1      -0.678  14.903  18.748  0.00  0.00    +0.000 OA
ATOM     23  H   UNL     1      -0.497  14.599  17.847  0.00  0.00    +0.000 HD
ENDBRANCH  19  22
ENDBRANCH   1  18
BRANCH  10  24
ATOM     24  C   UNL     1      -3.058  11.744  18.525  0.00  0.00    +0.000 A 
ATOM     25  C   UNL     1      -4.083  11.764  17.547  0.00  0.00    +0.000 A 
ATOM     26  C   UNL     1      -4.163  10.778  16.518  0.00  0.00    +0.000 A 
ATOM     27  C   UNL     1      -3.153   9.820  16.337  0.00  0.00    +0.000 A 
ATOM     28  C   UNL     1      -2.018   9.954  17.114  0.00  0.00    +0.000 A 
ATOM     29  C   UNL     1      -1.937  10.924  18.157  0.00  0.00    +0.000 A 
ENDBRANCH  10  24
BRANCH   9  30
ATOM     30  N   UNL     1      -2.219  14.452  22.433  0.00  0.00    +0.000 NA
ATOM     31  C   UNL     1      -2.040  13.912  23.825  0.00  0.00    +0.000 C 
ATOM     32  C   UNL     1      -3.009  14.633  24.781  0.00  0.00    +0.000 C 
ATOM     33  C   UNL     1      -3.183  16.001  24.141  0.00  0.00    +0.000 C 
ATOM     34  C   UNL     1      -2.545  15.876  22.767  0.00  0.00    +0.000 C 
ENDBRANCH   9  30
TORSDOF 5
ENDMDL
MODEL 3
REMARK VINA RESULT:      -6.8      1.662      2.311
REMARK  Name = 
REMARK  6 active torsions:
REMARK  status: ('A' for Active; 'I' for Inactive)
REMARK    1  A    between atoms: C_1  and  O_2
REMARK    2  A    between atoms: O_2  and  C_3
REMARK    3  A    between atoms: C_7  and  C_8
REMARK    4  A    between atoms: C_16  and  N_17
REMARK    5  A    between atoms: C_22  and  C_23
REMARK    6  A    between atoms: C_32  and  O_33
REMARK                            x       y       z     vdW  Elec       q    Type
REMARK                         _______ _______ _______ _____ _____    ______ ____
ROOT
ATOM      1  C   UNL     1      -0.605  13.212  22.280  0.00  0.00    +0.000 C 
ATOM      2  C   UNL     1       0.962  13.898  21.575  0.00  0.00    +0.000 A 
ATOM      3  C   UNL     1       1.795  13.525  20.453  0.00  0.00    +0.000 A 
ATOM      4  C   UNL     1       2.193  14.543  19.526  0.00  0.00    +0.000 A 
ATOM      5  C   UNL     1       1.835  15.866  19.688  0.00  0.00    +0.000 A 
ATOM      6  C   UNL     1       1.269  16.293  20.838  0.00  0.00    +0.000 A 
ATOM      7  C   UNL     1       0.866  15.274  21.710  0.00  0.00    +0.000 A 
ATOM      8  O   UNL     1      -0.298  15.474  22.328  0.00  0.00    +0.000 OA
ATOM      9  C   UNL     1      -1.221  14.938  21.325  0.00  0.00    +0.000 C 
ATOM     10  C   UNL     1      -0.829  13.021  20.891  0.00  0.00    +0.000 C 
ATOM     11  O   UNL     1       2.003  16.638  18.583  0.00  0.00    +0.000 OA
ATOM     12  C   UNL     1       2.957  15.819  17.908  0.00  0.00    +0.000 C 
ATOM     13  O   UNL     1       2.830  14.413  18.313  0.00  0.00    +0.000 OA
ENDROOT
BRANCH   1  18
ATOM     14  C   UNL     1      -4.820  12.733  22.428  0.00  0.00    +0.000 A 
ATOM     15  C   UNL     1      -5.210  12.575  21.077  0.00  0.00    +0.000 A 
ATOM     16  C   UNL     1      -4.294  12.631  20.073  0.00  0.00    +0.000 A 
ATOM     17  C   UNL     1      -2.984  12.831  20.452  0.00  0.00    +0.000 A 
ATOM     18  C   UNL     1      -2.459  13.060  21.895  0.00  0.00    +0.000 A 
ATOM     19  C   UNL     1      -3.465  13.001  22.848  0.00  0.00    +0.000 A 
BRANCH  14  21
ATOM     20  C   UNL     1      -7.134  12.631  22.989  0.00  0.00    +0.000 C 
ATOM     21  O   UNL     1      -5.773  12.616  23.426  0.00  0.00    +0.000 OA
ENDBRANCH  14  21
BRANCH  19  22
ATOM     22  O   UNL     1      -3.245  13.144  24.181  0.00  0.00    +0.000 OA
ATOM     23  H   UNL     1      -2.696  13.930  24.311  0.00  0.00    +0.000 HD
ENDBRANCH  19  22
ENDBRANCH   1  18
BRANCH  10  24
ATOM     24  C   UNL     1      -0.797  11.259  21.311  0.00  0.00    +0.000 A 
ATOM     25  C   UNL     1      -0.756  10.843  22.665  0.00  0.00    +0.000 A 
ATOM     26  C   UNL     1      -0.042   9.678  23.075  0.00  0.00    +0.000 A 
ATOM     27  C   UNL     1       0.539   8.805  22.142  0.00  0.00    +0.000 A 
ATOM     28  C   UNL     1       0.279   9.053  20.807  0.00  0.00    +0.000 A 
ATOM     29  C   UNL     1      -0.417  10.226  20.388  0.00  0.00    +0.000 A 
ENDBRANCH  10  24
BRANCH   9  30
ATOM     30  N   UNL     1      -2.463  15.767  21.768  0.00  0.00    +0.000 NA
ATOM     31  C   UNL     1      -3.028  16.500  20.583  0.00  0.00    +0.000 C 
ATOM     32  C   UNL     1      -2.337  17.871  20.453  0.00  0.00    +0.000 C 
ATOM     33  C   UNL     1      -1.960  18.213  21.885  0.00  0.00    +0.000 C 
ATOM     34  C   UNL     1      -2.204  16.934  22.672  0.00  0.00    +0.000 C 
ENDBRANCH   9  30
TORSDOF 5
ENDMDL
MODEL 4
REMARK VINA RESULT:      -6.7      9.021     12.062
REMARK  Name = 
REMARK  6 active torsions:
REMARK  status: ('A' for Active; 'I' for Inactive)
REMARK    1  A    between atoms: C_1  and  O_2
REMARK    2  A    between atoms: O_2  and  C_3
REMARK    3  A    between atoms: C_7  and  C_8
REMARK    4  A    between atoms: C_16  and  N_17
REMARK    5  A    between atoms: C_22  and  C_23
REMARK    6  A    between atoms: C_32  and  O_33
REMARK                            x       y       z     vdW  Elec       q    Type
REMARK                         _______ _______ _______ _____ _____    ______ ____
ROOT
ATOM      1  C   UNL     1       8.254  13.612  20.533  0.00  0.00    +0.000 C 
ATOM      2  C   UNL     1       7.430  12.932  22.044  0.00  0.00    +0.000 A 
ATOM      3  C   UNL     1       7.872  12.065  23.113  0.00  0.00    +0.000 A 
ATOM      4  C   UNL     1       7.627  12.465  24.467  0.00  0.00    +0.000 A 
ATOM      5  C   UNL     1       6.959  13.631  24.780  0.00  0.00    +0.000 A 
ATOM      6  C   UNL     1       6.322  14.341  23.822  0.00  0.00    +0.000 A 
ATOM      7  C   UNL     1       6.604  13.943  22.510  0.00  0.00    +0.000 A 
ATOM      8  O   UNL     1       6.747  14.933  21.628  0.00  0.00    +0.000 OA
ATOM      9  C   UNL     1       8.168  15.236  21.807  0.00  0.00    +0.000 C 
ATOM     10  C   UNL     1       9.329  13.638  21.460  0.00  0.00    +0.000 C 
ATOM     11  O   UNL     1       7.090  14.031  26.071  0.00  0.00    +0.000 OA
ATOM     12  C   UNL     1       7.453  12.772  26.637  0.00  0.00    +0.000 C 
ATOM     13  O   UNL     1       8.091  11.906  25.636  0.00  0.00    +0.000 OA
ENDROOT
BRANCH   1  18
ATOM     14  C   UNL     1      10.802  16.284  18.441  0.00  0.00    +0.000 A 
ATOM     15  C   UNL     1      11.860  16.550  19.342  0.00  0.00    +0.000 A 
ATOM     16  C   UNL     1      11.871  16.004  20.589  0.00  0.00    +0.000 A 
ATOM     17  C   UNL     1      10.814  15.179  20.903  0.00  0.00    +0.000 A 
ATOM     18  C   UNL     1       9.586  14.860  20.008  0.00  0.00    +0.000 A 
ATOM     19  C   UNL     1       9.655  15.471  18.765  0.00  0.00    +0.000 A 
BRANCH  14  21
ATOM     20  C   UNL     1      10.958  18.238  17.084  0.00  0.00    +0.000 C 
ATOM     21  O   UNL     1      10.854  16.814  17.162  0.00  0.00    +0.000 OA
ENDBRANCH  14  21
BRANCH  19  22
ATOM     22  O   UNL     1       8.710  15.318  17.801  0.00  0.00    +0.000 OA
ATOM     23  H   UNL     1       7.859  15.596  18.168  0.00  0.00    +0.000 HD
ENDBRANCH  19  22
ENDBRANCH   1  18
BRANCH  10  24
ATOM     24  C   UNL     1      10.076  12.414  20.355  0.00  0.00    +0.000 A 
ATOM     25  C   UNL     1      11.461  12.124  20.435  0.00  0.00    +0.000 A 
ATOM     26  C   UNL     1      12.232  11.803  19.278  0.00  0.00    +0.000 A 
ATOM     27  C   UNL     1      11.634  11.620  18.021  0.00  0.00    +0.000 A 
ATOM     28  C   UNL     1      10.251  11.636  17.979  0.00  0.00    +0.000 A 
ATOM     29  C   UNL     1       9.474  11.975  19.127  0.00  0.00    +0.000 A 
ENDBRANCH  10  24
BRANCH   9  30
ATOM     30  N   UNL     1       8.098  16.712  21.312  0.00  0.00    +0.000 NA
ATOM     31  C   UNL     1       8.646  17.625  22.373  0.00  0.00    +0.000 C 
ATOM     32  C   UNL     1       7.509  18.040  23.328  0.00  0.00    +0.000 C 
ATOM     33  C   UNL     1       6.272  17.989  22.446  0.00  0.00    +0.000 C 
ATOM     34  C   UNL     1       6.729  17.305  21.167  0.00  0.00    +0.000 C 
ENDBRANCH   9  30
TORSDOF 5
ENDMDL
MODEL 5
REMARK VINA RESULT:      -6.6      2.233      5.340
REMARK  Name = 
REMARK  6 active torsions:
REMARK  status: ('A' for Active; 'I' for Inactive)
REMARK    1  A    between atoms: C_1  and  O_2
REMARK    2  A    between atoms: O_2  and  C_3
REMARK    3  A    between atoms: C_7  and  C_8
REMARK    4  A    between atoms: C_16  and  N_17
REMARK    5  A    between atoms: C_22  and  C_23
REMARK    6  A    between atoms: C_32  and  O_33
REMARK                            x       y       z     vdW  Elec       q    Type
REMARK                         _______ _______ _______ _____ _____    ______ ____
ROOT
ATOM      1  C   UNL     1      -1.956  14.346  21.476  0.00  0.00    +0.000 C 
ATOM      2  C   UNL     1      -1.504  15.749  22.595  0.00  0.00    +0.000 A 
ATOM      3  C   UNL     1      -1.450  15.897  24.032  0.00  0.00    +0.000 A 
ATOM      4  C   UNL     1      -0.269  16.454  24.621  0.00  0.00    +0.000 A 
ATOM      5  C   UNL     1       0.800  16.882  23.860  0.00  0.00    +0.000 A 
ATOM      6  C   UNL     1       0.696  16.985  22.517  0.00  0.00    +0.000 A 
ATOM      7  C   UNL     1      -0.456  16.407  21.971  0.00  0.00    +0.000 A 
ATOM      8  O   UNL     1      -0.279  15.752  20.822  0.00  0.00    +0.000 OA
ATOM      9  C   UNL     1       0.103  14.433  21.331  0.00  0.00    +0.000 C 
ATOM     10  C   UNL     1      -1.303  13.651  22.527  0.00  0.00    +0.000 C 
ATOM     11  O   UNL     1       1.950  17.075  24.557  0.00  0.00    +0.000 OA
ATOM     12  C   UNL     1       1.376  17.231  25.855  0.00  0.00    +0.000 C 
ATOM     13  O   UNL     1       0.084  16.539  25.949  0.00  0.00    +0.000 OA
ENDROOT
BRANCH   1  18
ATOM     14  C   UNL     1      -1.033  10.811  19.316  0.00  0.00    +0.000 A 
ATOM     15  C   UNL     1      -0.501   9.928  20.285  0.00  0.00    +0.000 A 
ATOM     16  C   UNL     1      -0.357  10.316  21.581  0.00  0.00    +0.000 A 
ATOM     17  C   UNL     1      -0.769  11.595  21.885  0.00  0.00    +0.000 A 
ATOM     18  C   UNL     1      -1.321  12.654  20.893  0.00  0.00    +0.000 A 
ATOM     19  C   UNL     1      -1.418  12.173  19.595  0.00  0.00    +0.000 A 
BRANCH  14  21
ATOM     20  C   UNL     1      -2.493   9.786  17.736  0.00  0.00    +0.000 C 
ATOM     21  O   UNL     1      -1.216  10.362  18.018  0.00  0.00    +0.000 OA
ENDBRANCH  14  21
BRANCH  19  22
ATOM     22  O   UNL     1      -1.899  12.907  18.558  0.00  0.00    +0.000 OA
ATOM     23  H   UNL     1      -2.096  13.797  18.885  0.00  0.00    +0.000 HD
ENDBRANCH  19  22
ENDBRANCH   1  18
BRANCH  10  24
ATOM     24  C   UNL     1      -2.932  12.914  22.811  0.00  0.00    +0.000 A 
ATOM     25  C   UNL     1      -4.033  13.264  21.991  0.00  0.00    +0.000 A 
ATOM     26  C   UNL     1      -5.361  13.348  22.506  0.00  0.00    +0.000 A 
ATOM     27  C   UNL     1      -5.669  12.954  23.817  0.00  0.00    +0.000 A 
ATOM     28  C   UNL     1      -4.654  12.358  24.545  0.00  0.00    +0.000 A 
ATOM     29  C   UNL     1      -3.320  12.287  24.045  0.00  0.00    +0.000 A 
ENDBRANCH  10  24
BRANCH   9  30
ATOM     30  N   UNL     1       0.895  13.979  20.068  0.00  0.00    +0.000 NA
ATOM     31  C   UNL     1       2.210  13.382  20.486  0.00  0.00    +0.000 C 
ATOM     32  C   UNL     1       3.271  14.496  20.577  0.00  0.00    +0.000 C 
ATOM     33  C   UNL     1       2.796  15.519  19.557  0.00  0.00    +0.000 C 
ATOM     34  C   UNL     1       1.398  15.065  19.167  0.00  0.00    +0.000 C 
ENDBRANCH   9  30
TORSDOF 5
ENDMDL
MODEL 6
REMARK VINA RESULT:      -6.6      2.437      6.379
REMARK  Name = 
REMARK  6 active torsions:
REMARK  status: ('A' for Active; 'I' for Inactive)
REMARK    1  A    between atoms: C_1  and  O_2
REMARK    2  A    between atoms: O_2  and  C_3
REMARK    3  A    between atoms: C_7  and  C_8
REMARK    4  A    between atoms: C_16  and  N_17
REMARK    5  A    between atoms: C_22  and  C_23
REMARK    6  A    between atoms: C_32  and  O_33
REMARK                            x       y       z     vdW  Elec       q    Type
REMARK                         _______ _______ _______ _____ _____    ______ ____
ROOT
ATOM      1  C   UNL     1      -3.626  12.794  19.008  0.00  0.00    +0.000 C 
ATOM      2  C   UNL     1      -5.277  12.929  19.833  0.00  0.00    +0.000 A 
ATOM      3  C   UNL     1      -6.315  11.971  20.142  0.00  0.00    +0.000 A 
ATOM      4  C   UNL     1      -6.850  11.944  21.472  0.00  0.00    +0.000 A 
ATOM      5  C   UNL     1      -6.429  12.820  22.451  0.00  0.00    +0.000 A 
ATOM      6  C   UNL     1      -5.646  13.877  22.144  0.00  0.00    +0.000 A 
ATOM      7  C   UNL     1      -5.117  13.860  20.847  0.00  0.00    +0.000 A 
ATOM      8  O   UNL     1      -3.852  14.268  20.738  0.00  0.00    +0.000 OA
ATOM      9  C   UNL     1      -3.150  13.012  21.007  0.00  0.00    +0.000 C 
ATOM     10  C   UNL     1      -3.672  11.566  19.719  0.00  0.00    +0.000 C 
ATOM     11  O   UNL     1      -6.778  12.467  23.716  0.00  0.00    +0.000 OA
ATOM     12  C   UNL     1      -7.866  11.601  23.391  0.00  0.00    +0.000 C 
ATOM     13  O   UNL     1      -7.706  11.032  22.046  0.00  0.00    +0.000 OA
ENDROOT
BRANCH   1  18
ATOM     14  C   UNL     1       0.477  11.735  18.776  0.00  0.00    +0.000 A 
ATOM     15  C   UNL     1       0.638  10.711  19.739  0.00  0.00    +0.000 A 
ATOM     16  C   UNL     1      -0.407  10.306  20.510  0.00  0.00    +0.000 A 
ATOM     17  C   UNL     1      -1.612  10.936  20.286  0.00  0.00    +0.000 A 
ATOM     18  C   UNL     1      -1.883  12.096  19.291  0.00  0.00    +0.000 A 
ATOM     19  C   UNL     1      -0.758  12.450  18.561  0.00  0.00    +0.000 A 
BRANCH  14  21
ATOM     20  C   UNL     1       2.538  12.917  18.580  0.00  0.00    +0.000 C 
ATOM     21  O   UNL     1       1.550  12.082  17.971  0.00  0.00    +0.000 OA
ENDBRANCH  14  21
BRANCH  19  22
ATOM     22  O   UNL     1      -0.756  13.421  17.610  0.00  0.00    +0.000 OA
ATOM     23  H   UNL     1      -1.651  13.786  17.552  0.00  0.00    +0.000 HD
ENDBRANCH  19  22
ENDBRANCH   1  18
BRANCH  10  24
ATOM     24  C   UNL     1      -3.677  10.818  18.070  0.00  0.00    +0.000 A 
ATOM     25  C   UNL     1      -2.837   9.714  17.779  0.00  0.00    +0.000 A 
ATOM     26  C   UNL     1      -2.242   9.538  16.494  0.00  0.00    +0.000 A 
ATOM     27  C   UNL     1      -2.568  10.369  15.411  0.00  0.00    +0.000 A 
ATOM     28  C   UNL     1      -3.586  11.284  15.610  0.00  0.00    +0.000 A 
ATOM     29  C   UNL     1      -4.173  11.480  16.896  0.00  0.00    +0.000 A 
ENDBRANCH  10  24
BRANCH   9  30
ATOM     30  N   UNL     1      -1.822  13.655  21.507  0.00  0.00    +0.000 NA
ATOM     31  C   UNL     1      -1.538  13.197  22.911  0.00  0.00    +0.000 C 
ATOM     32  C   UNL     1      -2.214  14.156  23.909  0.00  0.00    +0.000 C 
ATOM     33  C   UNL     1      -2.238  15.481  23.163  0.00  0.00    +0.000 C 
ATOM     34  C   UNL     1      -1.840  15.136  21.737  0.00  0.00    +0.000 C 
ENDBRANCH   9  30
TORSDOF 5
ENDMDL
MODEL 7
REMARK VINA RESULT:      -6.5      3.209      6.777
REMARK  Name = 
REMARK  6 active torsions:
REMARK  status: ('A' for Active; 'I' for Inactive)
REMARK    1  A    between atoms: C_1  and  O_2
REMARK    2  A    between atoms: O_2  and  C_3
REMARK    3  A    between atoms: C_7  and  C_8
REMARK    4  A    between atoms: C_16  and  N_17
REMARK    5  A    between atoms: C_22  and  C_23
REMARK    6  A    between atoms: C_32  and  O_33
REMARK                            x       y       z     vdW  Elec       q    Type
REMARK                         _______ _______ _______ _____ _____    ______ ____
ROOT
ATOM      1  C   UNL     1      -4.917  14.459  22.154  0.00  0.00    +0.000 C 
ATOM      2  C   UNL     1      -6.003  15.664  21.264  0.00  0.00    +0.000 A 
ATOM      3  C   UNL     1      -5.788  16.991  20.733  0.00  0.00    +0.000 A 
ATOM      4  C   UNL     1      -6.200  17.267  19.388  0.00  0.00    +0.000 A 
ATOM      5  C   UNL     1      -6.820  16.319  18.600  0.00  0.00    +0.000 A 
ATOM      6  C   UNL     1      -7.254  15.154  19.131  0.00  0.00    +0.000 A 
ATOM      7  C   UNL     1      -6.812  14.903  20.436  0.00  0.00    +0.000 A 
ATOM      8  O   UNL     1      -6.467  13.640  20.691  0.00  0.00    +0.000 OA
ATOM      9  C   UNL     1      -5.069  13.659  20.255  0.00  0.00    +0.000 C 
ATOM     10  C   UNL     1      -3.991  15.031  21.242  0.00  0.00    +0.000 C 
ATOM     11  O   UNL     1      -6.853  16.615  17.275  0.00  0.00    +0.000 OA
ATOM     12  C   UNL     1      -6.671  18.027  17.380  0.00  0.00    +0.000 C 
ATOM     13  O   UNL     1      -5.957  18.379  18.615  0.00  0.00    +0.000 OA
ENDROOT
BRANCH   1  18
ATOM     14  C   UNL     1      -1.787  11.609  22.468  0.00  0.00    +0.000 A 
ATOM     15  C   UNL     1      -0.981  11.834  21.327  0.00  0.00    +0.000 A 
ATOM     16  C   UNL     1      -1.316  12.782  20.410  0.00  0.00    +0.000 A 
ATOM     17  C   UNL     1      -2.459  13.506  20.670  0.00  0.00    +0.000 A 
ATOM     18  C   UNL     1      -3.433  13.309  21.863  0.00  0.00    +0.000 A 
ATOM     19  C   UNL     1      -3.019  12.312  22.734  0.00  0.00    +0.000 A 
BRANCH  14  21
ATOM     20  C   UNL     1      -0.474   9.676  22.937  0.00  0.00    +0.000 C 
ATOM     21  O   UNL     1      -1.384  10.673  23.407  0.00  0.00    +0.000 OA
ENDBRANCH  14  21
BRANCH  19  22
ATOM     22  O   UNL     1      -3.693  11.977  23.865  0.00  0.00    +0.000 OA
ATOM     23  H   UNL     1      -3.310  11.157  24.210  0.00  0.00    +0.000 HD
ENDBRANCH  19  22
ENDBRANCH   1  18
BRANCH  10  24
ATOM     24  C   UNL     1      -3.181  15.658  22.735  0.00  0.00    +0.000 A 
ATOM     25  C   UNL     1      -1.787  15.913  22.744  0.00  0.00    +0.000 A 
ATOM     26  C   UNL     1      -0.988  15.697  23.906  0.00  0.00    +0.000 A 
ATOM     27  C   UNL     1      -1.562  15.355  25.141  0.00  0.00    +0.000 A 
ATOM     28  C   UNL     1      -2.943  15.365  25.212  0.00  0.00    +0.000 A 
ATOM     29  C   UNL     1      -3.749  15.560  24.051  0.00  0.00    +0.000 A 
ENDBRANCH  10  24
BRANCH   9  30
ATOM     30  N   UNL     1      -4.957  12.134  19.954  0.00  0.00    +0.000 NA
ATOM     31  C   UNL     1      -4.520  11.933  18.530  0.00  0.00    +0.000 C 
ATOM     32  C   UNL     1      -5.761  11.877  17.618  0.00  0.00    +0.000 C 
ATOM     33  C   UNL     1      -6.844  11.324  18.529  0.00  0.00    +0.000 C 
ATOM     34  C   UNL     1      -6.240  11.361  19.924  0.00  0.00    +0.000 C 
ENDBRANCH   9  30
TORSDOF 5
ENDMDL
MODEL 8
REMARK VINA RESULT:      -6.4      1.534      2.090
REMARK  Name = 
REMARK  6 active torsions:
REMARK  status: ('A' for Active; 'I' for Inactive)
REMARK    1  A    between atoms: C_1  and  O_2
REMARK    2  A    between atoms: O_2  and  C_3
REMARK    3  A    between atoms: C_7  and  C_8
REMARK    4  A    between atoms: C_16  and  N_17
REMARK    5  A    between atoms: C_22  and  C_23
REMARK    6  A    between atoms: C_32  and  O_33
REMARK                            x       y       z     vdW  Elec       q    Type
REMARK                         _______ _______ _______ _____ _____    ______ ____
ROOT
ATOM      1  C   UNL     1       0.683  12.755  21.389  0.00  0.00    +0.000 C 
ATOM      2  C   UNL     1       2.125  13.642  20.643  0.00  0.00    +0.000 A 
ATOM      3  C   UNL     1       2.643  13.742  19.296  0.00  0.00    +0.000 A 
ATOM      4  C   UNL     1       2.941  15.042  18.771  0.00  0.00    +0.000 A 
ATOM      5  C   UNL     1       2.780  16.191  19.516  0.00  0.00    +0.000 A 
ATOM      6  C   UNL     1       2.532  16.126  20.843  0.00  0.00    +0.000 A 
ATOM      7  C   UNL     1       2.218  14.848  21.320  0.00  0.00    +0.000 A 
ATOM      8  O   UNL     1       1.248  14.799  22.234  0.00  0.00    +0.000 OA
ATOM      9  C   UNL     1       0.073  14.728  21.363  0.00  0.00    +0.000 C 
ATOM     10  C   UNL     1       0.140  13.144  20.137  0.00  0.00    +0.000 C 
ATOM     11  O   UNL     1       2.788  17.342  18.794  0.00  0.00    +0.000 OA
ATOM     12  C   UNL     1       3.472  16.851  17.641  0.00  0.00    +0.000 C 
ATOM     13  O   UNL     1       3.278  15.403  17.486  0.00  0.00    +0.000 OA
ENDROOT
BRANCH   1  18
ATOM     14  C   UNL     1      -3.417  12.476  22.451  0.00  0.00    +0.000 A 
ATOM     15  C   UNL     1      -4.116  12.677  21.237  0.00  0.00    +0.000 A 
ATOM     16  C   UNL     1      -3.447  12.930  20.079  0.00  0.00    +0.000 A 
ATOM     17  C   UNL     1      -2.073  12.961  20.161  0.00  0.00    +0.000 A 
ATOM     18  C   UNL     1      -1.215  12.799  21.445  0.00  0.00    +0.000 A 
ATOM     19  C   UNL     1      -1.981  12.560  22.576  0.00  0.00    +0.000 A 
BRANCH  14  21
ATOM     20  C   UNL     1      -5.280  12.974  23.851  0.00  0.00    +0.000 C 
ATOM     21  O   UNL     1      -4.128  12.166  23.598  0.00  0.00    +0.000 OA
ENDBRANCH  14  21
BRANCH  19  22
ATOM     22  O   UNL     1      -1.453  12.358  23.811  0.00  0.00    +0.000 OA
ATOM     23  H   UNL     1      -2.183  12.301  24.444  0.00  0.00    +0.000 HD
ENDBRANCH  19  22
ENDBRANCH   1  18
BRANCH  10  24
ATOM     24  C   UNL     1       0.063  11.363  19.817  0.00  0.00    +0.000 A 
ATOM     25  C   UNL     1       0.487  10.437  20.803  0.00  0.00    +0.000 A 
ATOM     26  C   UNL     1       1.127   9.209  20.458  0.00  0.00    +0.000 A 
ATOM     27  C   UNL     1       1.245   8.789  19.124  0.00  0.00    +0.000 A 
ATOM     28  C   UNL     1       0.599   9.554  18.169  0.00  0.00    +0.000 A 
ATOM     29  C   UNL     1      -0.026  10.792  18.502  0.00  0.00    +0.000 A 
ENDBRANCH  10  24
BRANCH   9  30
ATOM     30  N   UNL     1      -0.940  15.327  22.385  0.00  0.00    +0.000 NA
ATOM     31  C   UNL     1      -1.766  16.388  21.712  0.00  0.00    +0.000 C 
ATOM     32  C   UNL     1      -1.052  17.748  21.839  0.00  0.00    +0.000 C 
ATOM     33  C   UNL     1      -0.267  17.614  23.134  0.00  0.00    +0.000 C 
ATOM     34  C   UNL     1      -0.363  16.142  23.502  0.00  0.00    +0.000 C 
ENDBRANCH   9  30
TORSDOF 5
ENDMDL
MODEL 9
REMARK VINA RESULT:      -6.3      3.196      6.155
REMARK  Name = 
REMARK  6 active torsions:
REMARK  status: ('A' for Active; 'I' for Inactive)
REMARK    1  A    between atoms: C_1  and  O_2
REMARK    2  A    between atoms: O_2  and  C_3
REMARK    3  A    between atoms: C_7  and  C_8
REMARK    4  A    between atoms: C_16  and  N_17
REMARK    5  A    between atoms: C_22  and  C_23
REMARK    6  A    between atoms: C_32  and  O_33
REMARK                            x       y       z     vdW  Elec       q    Type
REMARK                         _______ _______ _______ _____ _____    ______ ____
ROOT
ATOM      1  C   UNL     1      -2.759  13.835  20.698  0.00  0.00    +0.000 C 
ATOM      2  C   UNL     1      -1.188  12.956  21.124  0.00  0.00    +0.000 A 
ATOM      3  C   UNL     1      -0.708  12.301  22.320  0.00  0.00    +0.000 A 
ATOM      4  C   UNL     1      -0.157  10.983  22.206  0.00  0.00    +0.000 A 
ATOM      5  C   UNL     1      -0.043  10.336  20.993  0.00  0.00    +0.000 A 
ATOM      6  C   UNL     1      -0.252  10.998  19.834  0.00  0.00    +0.000 A 
ATOM      7  C   UNL     1      -0.816  12.272  19.978  0.00  0.00    +0.000 A 
ATOM      8  O   UNL     1      -1.741  12.595  19.073  0.00  0.00    +0.000 OA
ATOM      9  C   UNL     1      -2.934  12.030  19.708  0.00  0.00    +0.000 C 
ATOM     10  C   UNL     1      -3.250  12.798  21.533  0.00  0.00    +0.000 C 
ATOM     11  O   UNL     1       0.186   9.000  21.082  0.00  0.00    +0.000 OA
ATOM     12  C   UNL     1       0.708   8.973  22.410  0.00  0.00    +0.000 C 
ATOM     13  O   UNL     1       0.204  10.103  23.202  0.00  0.00    +0.000 OA
ENDROOT
BRANCH   1  18
ATOM     14  C   UNL     1      -6.889  14.086  19.751  0.00  0.00    +0.000 A 
ATOM     15  C   UNL     1      -7.435  12.860  20.200  0.00  0.00    +0.000 A 
ATOM     16  C   UNL     1      -6.643  11.905  20.759  0.00  0.00    +0.000 A 
ATOM     17  C   UNL     1      -5.304  12.211  20.872  0.00  0.00    +0.000 A 
ATOM     18  C   UNL     1      -4.601  13.502  20.373  0.00  0.00    +0.000 A 
ATOM     19  C   UNL     1      -5.483  14.408  19.805  0.00  0.00    +0.000 A 
BRANCH  14  21
ATOM     20  C   UNL     1      -7.917  15.032  17.819  0.00  0.00    +0.000 C 
ATOM     21  O   UNL     1      -7.735  15.055  19.237  0.00  0.00    +0.000 OA
ENDBRANCH  14  21
BRANCH  19  22
ATOM     22  O   UNL     1      -5.106  15.620  19.321  0.00  0.00    +0.000 OA
ATOM     23  H   UNL     1      -5.864  16.219  19.387  0.00  0.00    +0.000 HD
ENDBRANCH  19  22
ENDBRANCH   1  18
BRANCH  10  24
ATOM     24  C   UNL     1      -3.717  14.153  22.639  0.00  0.00    +0.000 A 
ATOM     25  C   UNL     1      -4.858  14.041  23.473  0.00  0.00    +0.000 A 
ATOM     26  C   UNL     1      -5.681  15.165  23.780  0.00  0.00    +0.000 A 
ATOM     27  C   UNL     1      -5.327  16.466  23.389  0.00  0.00    +0.000 A 
ATOM     28  C   UNL     1      -4.083  16.626  22.807  0.00  0.00    +0.000 A 
ATOM     29  C   UNL     1      -3.262  15.506  22.478  0.00  0.00    +0.000 A 
ENDBRANCH  10  24
BRANCH   9  30
ATOM     30  N   UNL     1      -3.759  11.845  18.400  0.00  0.00    +0.000 NA
ATOM     31  C   UNL     1      -4.335  10.456  18.360  0.00  0.00    +0.000 C 
ATOM     32  C   UNL     1      -3.326   9.503  17.691  0.00  0.00    +0.000 C 
ATOM     33  C   UNL     1      -2.563  10.410  16.738  0.00  0.00    +0.000 C 
ATOM     34  C   UNL     1      -2.985  11.821  17.116  0.00  0.00    +0.000 C 
ENDBRANCH   9  30
TORSDOF 5
ENDMDL
