MODEL 1
REMARK VINA RESULT:      -7.5      0.000      0.000
REMARK  Name = 
REMARK  7 active torsions:
REMARK  status: ('A' for Active; 'I' for Inactive)
REMARK    1  A    between atoms: C_1  and  C_2
REMARK    2  A    between atoms: C_2  and  C_3
REMARK    3  A    between atoms: C_2  and  C_4
REMARK    4  A    between atoms: C_6  and  C_7
REMARK    5  A    between atoms: C_8  and  C_9
REMARK    6  A    between atoms: C_17  and  C_18
REMARK    7  A    between atoms: C_17  and  C_19
REMARK                            x       y       z     vdW  Elec       q    Type
REMARK                         _______ _______ _______ _____ _____    ______ ____
ROOT
ATOM      1  C   UNL     1       2.837   4.633  19.237  0.00  0.00    +0.000 C 
ATOM      2  O   UNL     1       3.467   4.627  17.934  0.00  0.00    +0.000 OA
ATOM      3  C   UNL     1       4.381   3.550  17.797  0.00  0.00    +0.000 C 
ATOM      4  O   UNL     1       3.677   2.314  17.829  0.00  0.00    +0.000 OA
ATOM      5  C   UNL     1       3.076   2.126  19.095  0.00  0.00    +0.000 C 
ATOM      6  C   UNL     1       2.101   3.270  19.454  0.00  0.00    +0.000 C 
ATOM      7  C   UNL     1       0.864   3.167  18.540  0.00  0.00    +0.000 C 
ATOM      8  C   UNL     1       1.695   3.013  20.917  0.00  0.00    +0.000 C 
ENDROOT
BRANCH   1  10
ATOM      9  C   UNL     1       2.527   6.984  18.301  0.00  0.00    +0.000 C 
ATOM     10  C   UNL     1       1.983   5.940  19.291  0.00  0.00    +0.000 C 
ATOM     11  C   UNL     1       1.887   6.604  20.663  0.00  0.00    +0.000 C 
ENDBRANCH   1  10
BRANCH   3  12
ATOM     12  C   UNL     1       5.060   3.590  16.463  0.00  0.00    +0.000 C 
ATOM     13  C   UNL     1       6.156   4.276  16.100  0.00  0.00    +0.000 C 
BRANCH  13  14
ATOM     14  C   UNL     1       6.864   5.242  16.935  0.00  0.00    +0.000 A 
ATOM     15  C   UNL     1       6.875   6.601  16.617  0.00  0.00    +0.000 A 
ATOM     16  C   UNL     1       7.488   7.515  17.479  0.00  0.00    +0.000 A 
ATOM     17  C   UNL     1       8.096   7.069  18.652  0.00  0.00    +0.000 A 
ATOM     18  C   UNL     1       8.105   5.710  18.961  0.00  0.00    +0.000 A 
ATOM     19  C   UNL     1       7.493   4.798  18.101  0.00  0.00    +0.000 A 
ENDBRANCH  13  14
ENDBRANCH   3  12
TORSDOF 3
ENDMDL
MODEL 2
REMARK VINA RESULT:      -7.5      1.433      2.760
REMARK  Name = 
REMARK  7 active torsions:
REMARK  status: ('A' for Active; 'I' for Inactive)
REMARK    1  A    between atoms: C_1  and  C_2
REMARK    2  A    between atoms: C_2  and  C_3
REMARK    3  A    between atoms: C_2  and  C_4
REMARK    4  A    between atoms: C_6  and  C_7
REMARK    5  A    between atoms: C_8  and  C_9
REMARK    6  A    between atoms: C_17  and  C_18
REMARK    7  A    between atoms: C_17  and  C_19
REMARK                            x       y       z     vdW  Elec       q    Type
REMARK                         _______ _______ _______ _____ _____    ______ ____
ROOT
ATOM      1  C   UNL     1       3.367   5.371  19.621  0.00  0.00    +0.000 C 
ATOM      2  O   UNL     1       4.665   5.873  19.224  0.00  0.00    +0.000 OA
ATOM      3  C   UNL     1       5.714   5.028  19.669  0.00  0.00    +0.000 C 
ATOM      4  O   UNL     1       5.632   3.770  19.010  0.00  0.00    +0.000 OA
ATOM      5  C   UNL     1       4.441   3.102  19.379  0.00  0.00    +0.000 C 
ATOM      6  C   UNL     1       3.180   3.930  19.043  0.00  0.00    +0.000 C 
ATOM      7  C   UNL     1       3.012   3.973  17.511  0.00  0.00    +0.000 C 
ATOM      8  C   UNL     1       2.008   3.157  19.677  0.00  0.00    +0.000 C 
ENDROOT
BRANCH   1  10
ATOM      9  C   UNL     1       2.944   7.393  18.127  0.00  0.00    +0.000 C 
ATOM     10  C   UNL     1       2.338   6.467  19.195  0.00  0.00    +0.000 C 
ATOM     11  C   UNL     1       1.808   7.344  20.327  0.00  0.00    +0.000 C 
ENDBRANCH   1  10
BRANCH   3  12
ATOM     12  C   UNL     1       7.051   5.590  19.294  0.00  0.00    +0.000 C 
ATOM     13  C   UNL     1       7.541   5.837  18.069  0.00  0.00    +0.000 C 
BRANCH  13  14
ATOM     14  C   UNL     1       6.890   5.490  16.809  0.00  0.00    +0.000 A 
ATOM     15  C   UNL     1       7.200   4.308  16.137  0.00  0.00    +0.000 A 
ATOM     16  C   UNL     1       6.500   3.958  14.979  0.00  0.00    +0.000 A 
ATOM     17  C   UNL     1       5.496   4.794  14.490  0.00  0.00    +0.000 A 
ATOM     18  C   UNL     1       5.199   5.986  15.148  0.00  0.00    +0.000 A 
ATOM     19  C   UNL     1       5.898   6.335  16.305  0.00  0.00    +0.000 A 
ENDBRANCH  13  14
ENDBRANCH   3  12
TORSDOF 3
ENDMDL
MODEL 3
REMARK VINA RESULT:      -7.4      0.128      1.114
REMARK  Name = 
REMARK  7 active torsions:
REMARK  status: ('A' for Active; 'I' for Inactive)
REMARK    1  A    between atoms: C_1  and  C_2
REMARK    2  A    between atoms: C_2  and  C_3
REMARK    3  A    between atoms: C_2  and  C_4
REMARK    4  A    between atoms: C_6  and  C_7
REMARK    5  A    between atoms: C_8  and  C_9
REMARK    6  A    between atoms: C_17  and  C_18
REMARK    7  A    between atoms: C_17  and  C_19
REMARK                            x       y       z     vdW  Elec       q    Type
REMARK                         _______ _______ _______ _____ _____    ______ ____
ROOT
ATOM      1  C   UNL     1       2.775   4.595  19.287  0.00  0.00    +0.000 C 
ATOM      2  O   UNL     1       3.451   4.599  18.007  0.00  0.00    +0.000 OA
ATOM      3  C   UNL     1       4.356   3.512  17.887  0.00  0.00    +0.000 C 
ATOM      4  O   UNL     1       3.636   2.285  17.876  0.00  0.00    +0.000 OA
ATOM      5  C   UNL     1       2.988   2.087  19.117  0.00  0.00    +0.000 C 
ATOM      6  C   UNL     1       2.014   3.239  19.457  0.00  0.00    +0.000 C 
ATOM      7  C   UNL     1       0.809   3.165  18.499  0.00  0.00    +0.000 C 
ATOM      8  C   UNL     1       1.554   2.966  20.902  0.00  0.00    +0.000 C 
ENDROOT
BRANCH   1  10
ATOM      9  C   UNL     1       2.535   6.967  18.384  0.00  0.00    +0.000 C 
ATOM     10  C   UNL     1       1.936   5.912  19.330  0.00  0.00    +0.000 C 
ATOM     11  C   UNL     1       1.791   6.552  20.709  0.00  0.00    +0.000 C 
ENDBRANCH   1  10
BRANCH   3  12
ATOM     12  C   UNL     1       5.082   3.562  16.578  0.00  0.00    +0.000 C 
ATOM     13  C   UNL     1       6.163   4.286  16.247  0.00  0.00    +0.000 C 
BRANCH  13  14
ATOM     14  C   UNL     1       6.802   5.290  17.093  0.00  0.00    +0.000 A 
ATOM     15  C   UNL     1       7.435   4.934  18.285  0.00  0.00    +0.000 A 
ATOM     16  C   UNL     1       8.113   5.902  19.031  0.00  0.00    +0.000 A 
ATOM     17  C   UNL     1       8.150   7.225  18.590  0.00  0.00    +0.000 A 
ATOM     18  C   UNL     1       7.501   7.587  17.411  0.00  0.00    +0.000 A 
ATOM     19  C   UNL     1       6.825   6.620  16.665  0.00  0.00    +0.000 A 
ENDBRANCH  13  14
ENDBRANCH   3  12
TORSDOF 3
ENDMDL
MODEL 4
REMARK VINA RESULT:      -7.3      1.463      2.610
REMARK  Name = 
REMARK  7 active torsions:
REMARK  status: ('A' for Active; 'I' for Inactive)
REMARK    1  A    between atoms: C_1  and  C_2
REMARK    2  A    between atoms: C_2  and  C_3
REMARK    3  A    between atoms: C_2  and  C_4
REMARK    4  A    between atoms: C_6  and  C_7
REMARK    5  A    between atoms: C_8  and  C_9
REMARK    6  A    between atoms: C_17  and  C_18
REMARK    7  A    between atoms: C_17  and  C_19
REMARK                            x       y       z     vdW  Elec       q    Type
REMARK                         _______ _______ _______ _____ _____    ______ ____
ROOT
ATOM      1  C   UNL     1       3.370   5.421  19.663  0.00  0.00    +0.000 C 
ATOM      2  O   UNL     1       4.662   5.887  19.205  0.00  0.00    +0.000 OA
ATOM      3  C   UNL     1       5.714   5.052  19.663  0.00  0.00    +0.000 C 
ATOM      4  O   UNL     1       5.600   3.763  19.072  0.00  0.00    +0.000 OA
ATOM      5  C   UNL     1       4.413   3.129  19.507  0.00  0.00    +0.000 C 
ATOM      6  C   UNL     1       3.151   3.954  19.164  0.00  0.00    +0.000 C 
ATOM      7  C   UNL     1       2.941   3.922  17.637  0.00  0.00    +0.000 C 
ATOM      8  C   UNL     1       1.990   3.229  19.869  0.00  0.00    +0.000 C 
ENDROOT
BRANCH   1  10
ATOM      9  C   UNL     1       2.945   7.402  18.115  0.00  0.00    +0.000 C 
ATOM     10  C   UNL     1       2.341   6.506  19.210  0.00  0.00    +0.000 C 
ATOM     11  C   UNL     1       1.815   7.414  20.319  0.00  0.00    +0.000 C 
ENDBRANCH   1  10
BRANCH   3  12
ATOM     12  C   UNL     1       7.045   5.578  19.223  0.00  0.00    +0.000 C 
ATOM     13  C   UNL     1       7.490   5.793  17.974  0.00  0.00    +0.000 C 
BRANCH  13  14
ATOM     14  C   UNL     1       6.779   5.437  16.749  0.00  0.00    +0.000 A 
ATOM     15  C   UNL     1       5.816   6.283  16.200  0.00  0.00    +0.000 A 
ATOM     16  C   UNL     1       5.214   5.958  14.981  0.00  0.00    +0.000 A 
ATOM     17  C   UNL     1       5.570   4.785  14.317  0.00  0.00    +0.000 A 
ATOM     18  C   UNL     1       6.517   3.927  14.874  0.00  0.00    +0.000 A 
ATOM     19  C   UNL     1       7.118   4.252  16.091  0.00  0.00    +0.000 A 
ENDBRANCH  13  14
ENDBRANCH   3  12
TORSDOF 3
ENDMDL
MODEL 5
REMARK VINA RESULT:      -6.9      3.513      5.839
REMARK  Name = 
REMARK  7 active torsions:
REMARK  status: ('A' for Active; 'I' for Inactive)
REMARK    1  A    between atoms: C_1  and  C_2
REMARK    2  A    between atoms: C_2  and  C_3
REMARK    3  A    between atoms: C_2  and  C_4
REMARK    4  A    between atoms: C_6  and  C_7
REMARK    5  A    between atoms: C_8  and  C_9
REMARK    6  A    between atoms: C_17  and  C_18
REMARK    7  A    between atoms: C_17  and  C_19
REMARK                            x       y       z     vdW  Elec       q    Type
REMARK                         _______ _______ _______ _____ _____    ______ ____
ROOT
ATOM      1  C   UNL     1       6.770   5.194  17.143  0.00  0.00    +0.000 C 
ATOM      2  O   UNL     1       7.250   5.740  15.891  0.00  0.00    +0.000 OA
ATOM      3  C   UNL     1       7.061   4.833  14.816  0.00  0.00    +0.000 C 
ATOM      4  O   UNL     1       5.670   4.645  14.582  0.00  0.00    +0.000 OA
ATOM      5  C   UNL     1       5.067   4.021  15.698  0.00  0.00    +0.000 C 
ATOM      6  C   UNL     1       5.253   4.839  16.996  0.00  0.00    +0.000 C 
ATOM      7  C   UNL     1       4.400   6.120  16.898  0.00  0.00    +0.000 C 
ATOM      8  C   UNL     1       4.718   3.938  18.124  0.00  0.00    +0.000 C 
ENDROOT
BRANCH   1  10
ATOM      9  C   UNL     1       7.795   7.483  17.602  0.00  0.00    +0.000 C 
ATOM     10  C   UNL     1       7.174   6.229  18.242  0.00  0.00    +0.000 C 
ATOM     11  C   UNL     1       8.146   5.715  19.301  0.00  0.00    +0.000 C 
ENDBRANCH   1  10
BRANCH   3  12
ATOM     12  C   UNL     1       7.610   5.394  13.540  0.00  0.00    +0.000 C 
ATOM     13  C   UNL     1       7.475   4.921  12.291  0.00  0.00    +0.000 C 
BRANCH  13  14
ATOM     14  C   UNL     1       6.840   3.657  11.927  0.00  0.00    +0.000 A 
ATOM     15  C   UNL     1       5.451   3.528  11.900  0.00  0.00    +0.000 A 
ATOM     16  C   UNL     1       4.869   2.334  11.464  0.00  0.00    +0.000 A 
ATOM     17  C   UNL     1       5.675   1.269  11.065  0.00  0.00    +0.000 A 
ATOM     18  C   UNL     1       7.063   1.388  11.112  0.00  0.00    +0.000 A 
ATOM     19  C   UNL     1       7.644   2.580  11.546  0.00  0.00    +0.000 A 
ENDBRANCH  13  14
ENDBRANCH   3  12
TORSDOF 3
ENDMDL
MODEL 6
REMARK VINA RESULT:      -6.8      1.731      5.893
REMARK  Name = 
REMARK  7 active torsions:
REMARK  status: ('A' for Active; 'I' for Inactive)
REMARK    1  A    between atoms: C_1  and  C_2
REMARK    2  A    between atoms: C_2  and  C_3
REMARK    3  A    between atoms: C_2  and  C_4
REMARK    4  A    between atoms: C_6  and  C_7
REMARK    5  A    between atoms: C_8  and  C_9
REMARK    6  A    between atoms: C_17  and  C_18
REMARK    7  A    between atoms: C_17  and  C_19
REMARK                            x       y       z     vdW  Elec       q    Type
REMARK                         _______ _______ _______ _____ _____    ______ ____
ROOT
ATOM      1  C   UNL     1       6.230   6.032  17.565  0.00  0.00    +0.000 C 
ATOM      2  O   UNL     1       6.346   4.904  18.466  0.00  0.00    +0.000 OA
ATOM      3  C   UNL     1       5.131   4.176  18.555  0.00  0.00    +0.000 C 
ATOM      4  O   UNL     1       4.839   3.569  17.302  0.00  0.00    +0.000 OA
ATOM      5  C   UNL     1       4.602   4.560  16.322  0.00  0.00    +0.000 C 
ATOM      6  C   UNL     1       5.807   5.513  16.151  0.00  0.00    +0.000 C 
ATOM      7  C   UNL     1       6.960   4.735  15.487  0.00  0.00    +0.000 C 
ATOM      8  C   UNL     1       5.313   6.626  15.208  0.00  0.00    +0.000 C 
ENDROOT
BRANCH   1  10
ATOM      9  C   UNL     1       8.264   6.510  19.027  0.00  0.00    +0.000 C 
ATOM     10  C   UNL     1       7.580   6.810  17.682  0.00  0.00    +0.000 C 
ATOM     11  C   UNL     1       7.475   8.327  17.540  0.00  0.00    +0.000 C 
ENDBRANCH   1  10
BRANCH   3  12
ATOM     12  C   UNL     1       5.255   3.045  19.529  0.00  0.00    +0.000 C 
ATOM     13  C   UNL     1       4.279   2.336  20.119  0.00  0.00    +0.000 C 
BRANCH  13  14
ATOM     14  C   UNL     1       2.848   2.611  20.010  0.00  0.00    +0.000 A 
ATOM     15  C   UNL     1       2.223   3.531  20.851  0.00  0.00    +0.000 A 
ATOM     16  C   UNL     1       0.872   3.839  20.669  0.00  0.00    +0.000 A 
ATOM     17  C   UNL     1       0.146   3.219  19.652  0.00  0.00    +0.000 A 
ATOM     18  C   UNL     1       0.762   2.282  18.825  0.00  0.00    +0.000 A 
ATOM     19  C   UNL     1       2.112   1.977  19.006  0.00  0.00    +0.000 A 
ENDBRANCH  13  14
ENDBRANCH   3  12
TORSDOF 3
ENDMDL
MODEL 7
REMARK VINA RESULT:      -6.8      3.600      6.432
REMARK  Name = 
REMARK  7 active torsions:
REMARK  status: ('A' for Active; 'I' for Inactive)
REMARK    1  A    between atoms: C_1  and  C_2
REMARK    2  A    between atoms: C_2  and  C_3
REMARK    3  A    between atoms: C_2  and  C_4
REMARK    4  A    between atoms: C_6  and  C_7
REMARK    5  A    between atoms: C_8  and  C_9
REMARK    6  A    between atoms: C_17  and  C_18
REMARK    7  A    between atoms: C_17  and  C_19
REMARK                            x       y       z     vdW  Elec       q    Type
REMARK                         _______ _______ _______ _____ _____    ______ ____
ROOT
ATOM      1  C   UNL     1       0.456   9.382  20.222  0.00  0.00    +0.000 C 
ATOM      2  O   UNL     1       1.699   8.764  19.811  0.00  0.00    +0.000 OA
ATOM      3  C   UNL     1       1.649   8.331  18.460  0.00  0.00    +0.000 C 
ATOM      4  O   UNL     1       1.539   9.457  17.596  0.00  0.00    +0.000 OA
ATOM      5  C   UNL     1       0.310  10.121  17.814  0.00  0.00    +0.000 C 
ATOM      6  C   UNL     1       0.152  10.592  19.278  0.00  0.00    +0.000 C 
ATOM      7  C   UNL     1       1.142  11.746  19.533  0.00  0.00    +0.000 C 
ATOM      8  C   UNL     1      -1.295  11.109  19.383  0.00  0.00    +0.000 C 
ENDROOT
BRANCH   1  10
ATOM      9  C   UNL     1       1.816   8.911  22.326  0.00  0.00    +0.000 C 
ATOM     10  C   UNL     1       0.608   9.670  21.749  0.00  0.00    +0.000 C 
ATOM     11  C   UNL     1      -0.610   9.328  22.605  0.00  0.00    +0.000 C 
ENDBRANCH   1  10
BRANCH   3  12
ATOM     12  C   UNL     1       2.925   7.650  18.069  0.00  0.00    +0.000 C 
ATOM     13  C   UNL     1       3.230   6.344  18.131  0.00  0.00    +0.000 C 
BRANCH  13  14
ATOM     14  C   UNL     1       2.389   5.304  18.719  0.00  0.00    +0.000 A 
ATOM     15  C   UNL     1       1.771   4.339  17.925  0.00  0.00    +0.000 A 
ATOM     16  C   UNL     1       1.044   3.305  18.521  0.00  0.00    +0.000 A 
ATOM     17  C   UNL     1       0.928   3.243  19.910  0.00  0.00    +0.000 A 
ATOM     18  C   UNL     1       1.526   4.218  20.705  0.00  0.00    +0.000 A 
ATOM     19  C   UNL     1       2.254   5.250  20.109  0.00  0.00    +0.000 A 
ENDBRANCH  13  14
ENDBRANCH   3  12
TORSDOF 3
ENDMDL
MODEL 8
REMARK VINA RESULT:      -6.8      3.554      6.421
REMARK  Name = 
REMARK  7 active torsions:
REMARK  status: ('A' for Active; 'I' for Inactive)
REMARK    1  A    between atoms: C_1  and  C_2
REMARK    2  A    between atoms: C_2  and  C_3
REMARK    3  A    between atoms: C_2  and  C_4
REMARK    4  A    between atoms: C_6  and  C_7
REMARK    5  A    between atoms: C_8  and  C_9
REMARK    6  A    between atoms: C_17  and  C_18
REMARK    7  A    between atoms: C_17  and  C_19
REMARK                            x       y       z     vdW  Elec       q    Type
REMARK                         _______ _______ _______ _____ _____    ______ ____
ROOT
ATOM      1  C   UNL     1       0.453   9.357  20.210  0.00  0.00    +0.000 C 
ATOM      2  O   UNL     1       1.715   8.789  19.785  0.00  0.00    +0.000 OA
ATOM      3  C   UNL     1       1.667   8.353  18.434  0.00  0.00    +0.000 C 
ATOM      4  O   UNL     1       1.502   9.473  17.572  0.00  0.00    +0.000 OA
ATOM      5  C   UNL     1       0.250  10.089  17.804  0.00  0.00    +0.000 C 
ATOM      6  C   UNL     1       0.091  10.554  19.270  0.00  0.00    +0.000 C 
ATOM      7  C   UNL     1       1.037  11.746  19.514  0.00  0.00    +0.000 C 
ATOM      8  C   UNL     1      -1.374  11.013  19.392  0.00  0.00    +0.000 C 
ENDROOT
BRANCH   1  10
ATOM      9  C   UNL     1       1.848   8.932  22.301  0.00  0.00    +0.000 C 
ATOM     10  C   UNL     1       0.611   9.651  21.736  0.00  0.00    +0.000 C 
ATOM     11  C   UNL     1      -0.586   9.270  22.604  0.00  0.00    +0.000 C 
ENDBRANCH   1  10
BRANCH   3  12
ATOM     12  C   UNL     1       2.963   7.723  18.029  0.00  0.00    +0.000 C 
ATOM     13  C   UNL     1       3.327   6.433  18.106  0.00  0.00    +0.000 C 
BRANCH  13  14
ATOM     14  C   UNL     1       2.545   5.367  18.727  0.00  0.00    +0.000 A 
ATOM     15  C   UNL     1       2.341   5.330  20.106  0.00  0.00    +0.000 A 
ATOM     16  C   UNL     1       1.518   4.348  20.664  0.00  0.00    +0.000 A 
ATOM     17  C   UNL     1       0.906   3.400  19.844  0.00  0.00    +0.000 A 
ATOM     18  C   UNL     1       1.126   3.422  18.468  0.00  0.00    +0.000 A 
ATOM     19  C   UNL     1       1.948   4.403  17.911  0.00  0.00    +0.000 A 
ENDBRANCH  13  14
ENDBRANCH   3  12
TORSDOF 3
ENDMDL
MODEL 9
REMARK VINA RESULT:      -6.7      1.079      2.750
REMARK  Name = 
REMARK  7 active torsions:
REMARK  status: ('A' for Active; 'I' for Inactive)
REMARK    1  A    between atoms: C_1  and  C_2
REMARK    2  A    between atoms: C_2  and  C_3
REMARK    3  A    between atoms: C_2  and  C_4
REMARK    4  A    between atoms: C_6  and  C_7
REMARK    5  A    between atoms: C_8  and  C_9
REMARK    6  A    between atoms: C_17  and  C_18
REMARK    7  A    between atoms: C_17  and  C_19
REMARK                            x       y       z     vdW  Elec       q    Type
REMARK                         _______ _______ _______ _____ _____    ______ ____
ROOT
ATOM      1  C   UNL     1       3.049   3.705  18.134  0.00  0.00    +0.000 C 
ATOM      2  O   UNL     1       4.198   3.521  17.273  0.00  0.00    +0.000 OA
ATOM      3  C   UNL     1       4.238   4.490  16.236  0.00  0.00    +0.000 C 
ATOM      4  O   UNL     1       4.446   5.783  16.792  0.00  0.00    +0.000 OA
ATOM      5  C   UNL     1       3.342   6.152  17.596  0.00  0.00    +0.000 C 
ATOM      6  C   UNL     1       3.093   5.145  18.742  0.00  0.00    +0.000 C 
ATOM      7  C   UNL     1       4.238   5.271  19.766  0.00  0.00    +0.000 C 
ATOM      8  C   UNL     1       1.764   5.585  19.385  0.00  0.00    +0.000 C 
ENDROOT
BRANCH   1  10
ATOM      9  C   UNL     1       3.740   1.275  18.479  0.00  0.00    +0.000 C 
ATOM     10  C   UNL     1       3.059   2.495  19.123  0.00  0.00    +0.000 C 
ATOM     11  C   UNL     1       1.689   2.051  19.629  0.00  0.00    +0.000 C 
ENDBRANCH   1  10
BRANCH   3  12
ATOM     12  C   UNL     1       5.405   4.252  15.327  0.00  0.00    +0.000 C 
ATOM     13  C   UNL     1       6.697   4.562  15.524  0.00  0.00    +0.000 C 
BRANCH  13  14
ATOM     14  C   UNL     1       7.223   5.321  16.655  0.00  0.00    +0.000 A 
ATOM     15  C   UNL     1       7.293   6.714  16.621  0.00  0.00    +0.000 A 
ATOM     16  C   UNL     1       7.720   7.420  17.749  0.00  0.00    +0.000 A 
ATOM     17  C   UNL     1       8.085   6.732  18.907  0.00  0.00    +0.000 A 
ATOM     18  C   UNL     1       8.036   5.339  18.937  0.00  0.00    +0.000 A 
ATOM     19  C   UNL     1       7.609   4.635  17.810  0.00  0.00    +0.000 A 
ENDBRANCH  13  14
ENDBRANCH   3  12
TORSDOF 3
ENDMDL
