MODEL 1
REMARK VINA RESULT:      -8.9      0.000      0.000
REMARK  Name = 
REMARK  12 active torsions:
REMARK  status: ('A' for Active; 'I' for Inactive)
REMARK    1  A    between atoms: C_1  and  O_2
REMARK    2  A    between atoms: O_2  and  C_3
REMARK    3  A    between atoms: C_6  and  C_7
REMARK    4  A    between atoms: C_10  and  C_11
REMARK    5  A    between atoms: C_11  and  C_12
REMARK    6  A    between atoms: C_11  and  N_13
REMARK    7  A    between atoms: C_16  and  C_17
REMARK    8  A    between atoms: C_16  and  C_22
REMARK    9  A    between atoms: C_17  and  C_18
REMARK   10  A    between atoms: C_18  and  C_19
REMARK   11  A    between atoms: C_18  and  C_20
REMARK   12  A    between atoms: C_18  and  O_21
REMARK                            x       y       z     vdW  Elec       q    Type
REMARK                         _______ _______ _______ _____ _____    ______ ____
ROOT
ATOM      1  N   UNL     1       5.444   4.923  17.666  0.00  0.00    +0.000 N 
ATOM      2  C   UNL     1       4.449   5.373  16.713  0.00  0.00    +0.000 C 
ATOM      3  C   UNL     1       3.112   4.720  16.936  0.00  0.00    +0.000 C 
ATOM      4  C   UNL     1       2.695   4.919  18.398  0.00  0.00    +0.000 C 
ATOM      5  O   UNL     1       3.753   4.351  19.214  0.00  0.00    +0.000 OA
ATOM      6  C   UNL     1       5.082   4.503  18.942  0.00  0.00    +0.000 C 
ATOM      7  O   UNL     1       5.898   4.218  19.812  0.00  0.00    +0.000 OA
ENDROOT
BRANCH   4   8
ATOM      8  C   UNL     1       2.429   6.381  18.779  0.00  0.00    +0.000 A 
ATOM      9  C   UNL     1       2.375   7.386  17.795  0.00  0.00    +0.000 A 
ATOM     10  C   UNL     1       1.922   8.671  18.106  0.00  0.00    +0.000 A 
ATOM     11  C   UNL     1       1.546   8.986  19.410  0.00  0.00    +0.000 A 
ATOM     12  C   UNL     1       1.667   8.031  20.412  0.00  0.00    +0.000 A 
ATOM     13  C   UNL     1       2.113   6.743  20.102  0.00  0.00    +0.000 A 
ENDBRANCH   4   8
BRANCH   1  14
ATOM     14  C   UNL     1       6.883   5.123  17.367  0.00  0.00    +0.000 C 
ATOM     15  C   UNL     1       7.217   4.854  15.895  0.00  0.00    +0.000 C 
BRANCH  14  19
ATOM     16  C   UNL     1       8.552   8.983  18.569  0.00  0.00    +0.000 A 
ATOM     17  C   UNL     1       7.708   8.864  17.454  0.00  0.00    +0.000 A 
ATOM     18  C   UNL     1       7.155   7.627  17.091  0.00  0.00    +0.000 A 
ATOM     19  C   UNL     1       7.413   6.472  17.842  0.00  0.00    +0.000 A 
ATOM     20  C   UNL     1       8.170   6.613  19.010  0.00  0.00    +0.000 A 
ATOM     21  C   UNL     1       8.749   7.838  19.353  0.00  0.00    +0.000 A 
BRANCH  16  25
ATOM     22  C   UNL     1      10.480  12.678  19.310  0.00  0.00    +0.000 A 
ATOM     23  C   UNL     1      10.133  11.904  20.403  0.00  0.00    +0.000 A 
ATOM     24  C   UNL     1       9.510  10.677  20.180  0.00  0.00    +0.000 A 
ATOM     25  C   UNL     1       9.259  10.243  18.874  0.00  0.00    +0.000 A 
ATOM     26  C   UNL     1       9.689  11.098  17.852  0.00  0.00    +0.000 A 
ATOM     27  N   UNL     1      10.294  12.292  18.033  0.00  0.00    +0.000 NA
BRANCH  22  29
ATOM     28  C   UNL     1      10.634  14.430  20.828  0.00  0.00    +0.000 C 
ATOM     29  O   UNL     1      11.048  13.908  19.568  0.00  0.00    +0.000 OA
ENDBRANCH  22  29
ENDBRANCH  16  25
ENDBRANCH  14  19
ENDBRANCH   1  14
BRANCH   4  30
ATOM     30  C   UNL     1       1.412   4.049  18.601  0.00  0.00    +0.000 C 
BRANCH  30  31
ATOM     31  C   UNL     1       1.365   2.864  19.599  0.00  0.00    +0.000 C 
ATOM     32  C   UNL     1       2.273   1.691  19.231  0.00  0.00    +0.000 C 
ATOM     33  C   UNL     1       1.572   3.257  21.063  0.00  0.00    +0.000 C 
BRANCH  31  34
ATOM     34  O   UNL     1       0.003   2.377  19.560  0.00  0.00    +0.000 OA
ATOM     35  H   UNL     1       0.013   1.496  19.150  0.00  0.00    +0.000 HD
ENDBRANCH  31  34
ENDBRANCH  30  31
ENDBRANCH   4  30
TORSDOF 8
ENDMDL
MODEL 2
REMARK VINA RESULT:      -8.9      0.764      1.297
REMARK  Name = 
REMARK  12 active torsions:
REMARK  status: ('A' for Active; 'I' for Inactive)
REMARK    1  A    between atoms: C_1  and  O_2
REMARK    2  A    between atoms: O_2  and  C_3
REMARK    3  A    between atoms: C_6  and  C_7
REMARK    4  A    between atoms: C_10  and  C_11
REMARK    5  A    between atoms: C_11  and  C_12
REMARK    6  A    between atoms: C_11  and  N_13
REMARK    7  A    between atoms: C_16  and  C_17
REMARK    8  A    between atoms: C_16  and  C_22
REMARK    9  A    between atoms: C_17  and  C_18
REMARK   10  A    between atoms: C_18  and  C_19
REMARK   11  A    between atoms: C_18  and  C_20
REMARK   12  A    between atoms: C_18  and  O_21
REMARK                            x       y       z     vdW  Elec       q    Type
REMARK                         _______ _______ _______ _____ _____    ______ ____
ROOT
ATOM      1  N   UNL     1       5.248   4.779  17.965  0.00  0.00    +0.000 N 
ATOM      2  C   UNL     1       4.190   5.073  17.019  0.00  0.00    +0.000 C 
ATOM      3  C   UNL     1       2.857   4.546  17.474  0.00  0.00    +0.000 C 
ATOM      4  C   UNL     1       2.573   5.060  18.890  0.00  0.00    +0.000 C 
ATOM      5  O   UNL     1       3.678   4.619  19.723  0.00  0.00    +0.000 OA
ATOM      6  C   UNL     1       4.983   4.646  19.324  0.00  0.00    +0.000 C 
ATOM      7  O   UNL     1       5.861   4.504  20.169  0.00  0.00    +0.000 OA
ENDROOT
BRANCH   4   8
ATOM      8  C   UNL     1       2.389   6.580  18.979  0.00  0.00    +0.000 A 
ATOM      9  C   UNL     1       2.536   7.394  17.841  0.00  0.00    +0.000 A 
ATOM     10  C   UNL     1       2.159   8.741  17.867  0.00  0.00    +0.000 A 
ATOM     11  C   UNL     1       1.660   9.307  19.037  0.00  0.00    +0.000 A 
ATOM     12  C   UNL     1       1.581   8.541  20.195  0.00  0.00    +0.000 A 
ATOM     13  C   UNL     1       1.950   7.193  20.169  0.00  0.00    +0.000 A 
ENDBRANCH   4   8
BRANCH   1  14
ATOM     14  C   UNL     1       6.662   4.842  17.521  0.00  0.00    +0.000 C 
ATOM     15  C   UNL     1       6.846   4.342  16.083  0.00  0.00    +0.000 C 
BRANCH  14  19
ATOM     16  C   UNL     1       8.356   8.793  18.326  0.00  0.00    +0.000 A 
ATOM     17  C   UNL     1       8.685   7.679  19.114  0.00  0.00    +0.000 A 
ATOM     18  C   UNL     1       8.159   6.410  18.833  0.00  0.00    +0.000 A 
ATOM     19  C   UNL     1       7.301   6.209  17.743  0.00  0.00    +0.000 A 
ATOM     20  C   UNL     1       7.056   7.299  16.900  0.00  0.00    +0.000 A 
ATOM     21  C   UNL     1       7.553   8.570  17.199  0.00  0.00    +0.000 A 
BRANCH  16  25
ATOM     22  C   UNL     1       9.726  12.633  19.467  0.00  0.00    +0.000 A 
ATOM     23  C   UNL     1       9.115  12.510  18.232  0.00  0.00    +0.000 A 
ATOM     24  C   UNL     1       8.644  11.257  17.844  0.00  0.00    +0.000 A 
ATOM     25  C   UNL     1       8.780  10.158  18.698  0.00  0.00    +0.000 A 
ATOM     26  C   UNL     1       9.383  10.417  19.935  0.00  0.00    +0.000 A 
ATOM     27  N   UNL     1       9.851  11.617  20.342  0.00  0.00    +0.000 NA
BRANCH  22  29
ATOM     28  C   UNL     1      11.418  14.176  19.077  0.00  0.00    +0.000 C 
ATOM     29  O   UNL     1      10.226  13.876  19.797  0.00  0.00    +0.000 OA
ENDBRANCH  22  29
ENDBRANCH  16  25
ENDBRANCH  14  19
ENDBRANCH   1  14
BRANCH   4  30
ATOM     30  C   UNL     1       1.284   4.314  19.367  0.00  0.00    +0.000 C 
BRANCH  30  31
ATOM     31  C   UNL     1       1.312   2.844  19.855  0.00  0.00    +0.000 C 
ATOM     32  C   UNL     1       2.281   1.942  19.091  0.00  0.00    +0.000 C 
ATOM     33  C   UNL     1       1.509   2.677  21.364  0.00  0.00    +0.000 C 
BRANCH  31  34
ATOM     34  O   UNL     1      -0.021   2.332  19.621  0.00  0.00    +0.000 OA
ATOM     35  H   UNL     1       0.053   1.567  19.026  0.00  0.00    +0.000 HD
ENDBRANCH  31  34
ENDBRANCH  30  31
ENDBRANCH   4  30
TORSDOF 8
ENDMDL
MODEL 3
REMARK VINA RESULT:      -8.7      0.840      1.290
REMARK  Name = 
REMARK  12 active torsions:
REMARK  status: ('A' for Active; 'I' for Inactive)
REMARK    1  A    between atoms: C_1  and  O_2
REMARK    2  A    between atoms: O_2  and  C_3
REMARK    3  A    between atoms: C_6  and  C_7
REMARK    4  A    between atoms: C_10  and  C_11
REMARK    5  A    between atoms: C_11  and  C_12
REMARK    6  A    between atoms: C_11  and  N_13
REMARK    7  A    between atoms: C_16  and  C_17
REMARK    8  A    between atoms: C_16  and  C_22
REMARK    9  A    between atoms: C_17  and  C_18
REMARK   10  A    between atoms: C_18  and  C_19
REMARK   11  A    between atoms: C_18  and  C_20
REMARK   12  A    between atoms: C_18  and  O_21
REMARK                            x       y       z     vdW  Elec       q    Type
REMARK                         _______ _______ _______ _____ _____    ______ ____
ROOT
ATOM      1  N   UNL     1       5.325   5.031  17.912  0.00  0.00    +0.000 N 
ATOM      2  C   UNL     1       4.212   5.239  17.008  0.00  0.00    +0.000 C 
ATOM      3  C   UNL     1       2.926   4.678  17.552  0.00  0.00    +0.000 C 
ATOM      4  C   UNL     1       2.689   5.240  18.958  0.00  0.00    +0.000 C 
ATOM      5  O   UNL     1       3.851   4.883  19.751  0.00  0.00    +0.000 OA
ATOM      6  C   UNL     1       5.133   4.947  19.286  0.00  0.00    +0.000 C 
ATOM      7  O   UNL     1       6.056   4.879  20.091  0.00  0.00    +0.000 OA
ENDROOT
BRANCH   4   8
ATOM      8  C   UNL     1       2.443   6.754  18.992  0.00  0.00    +0.000 A 
ATOM      9  C   UNL     1       2.584   7.536  17.831  0.00  0.00    +0.000 A 
ATOM     10  C   UNL     1       2.154   8.867  17.804  0.00  0.00    +0.000 A 
ATOM     11  C   UNL     1       1.606   9.450  18.944  0.00  0.00    +0.000 A 
ATOM     12  C   UNL     1       1.531   8.719  20.124  0.00  0.00    +0.000 A 
ATOM     13  C   UNL     1       1.953   7.387  20.151  0.00  0.00    +0.000 A 
ENDBRANCH   4   8
BRANCH   1  14
ATOM     14  C   UNL     1       6.713   5.133  17.394  0.00  0.00    +0.000 C 
ATOM     15  C   UNL     1       6.812   4.761  15.911  0.00  0.00    +0.000 C 
BRANCH  14  19
ATOM     16  C   UNL     1       8.460   9.004  18.437  0.00  0.00    +0.000 A 
ATOM     17  C   UNL     1       8.789   7.836  19.144  0.00  0.00    +0.000 A 
ATOM     18  C   UNL     1       8.245   6.595  18.786  0.00  0.00    +0.000 A 
ATOM     19  C   UNL     1       7.369   6.476  17.698  0.00  0.00    +0.000 A 
ATOM     20  C   UNL     1       7.124   7.622  16.934  0.00  0.00    +0.000 A 
ATOM     21  C   UNL     1       7.639   8.865  17.310  0.00  0.00    +0.000 A 
BRANCH  16  25
ATOM     22  C   UNL     1       9.591  12.898  19.657  0.00  0.00    +0.000 A 
ATOM     23  C   UNL     1       9.707  11.875  20.582  0.00  0.00    +0.000 A 
ATOM     24  C   UNL     1       9.354  10.583  20.196  0.00  0.00    +0.000 A 
ATOM     25  C   UNL     1       8.905  10.337  18.894  0.00  0.00    +0.000 A 
ATOM     26  C   UNL     1       8.865  11.445  18.040  0.00  0.00    +0.000 A 
ATOM     27  N   UNL     1       9.199  12.709  18.382  0.00  0.00    +0.000 NA
BRANCH  22  29
ATOM     28  C   UNL     1      11.240  14.531  19.760  0.00  0.00    +0.000 C 
ATOM     29  O   UNL     1       9.900  14.171  20.088  0.00  0.00    +0.000 OA
ENDBRANCH  22  29
ENDBRANCH  16  25
ENDBRANCH  14  19
ENDBRANCH   1  14
BRANCH   4  30
ATOM     30  C   UNL     1       1.459   4.464  19.529  0.00  0.00    +0.000 C 
BRANCH  30  31
ATOM     31  C   UNL     1       1.524   2.956  19.884  0.00  0.00    +0.000 C 
ATOM     32  C   UNL     1       1.382   2.651  21.375  0.00  0.00    +0.000 C 
ATOM     33  C   UNL     1       0.583   2.068  19.068  0.00  0.00    +0.000 C 
BRANCH  31  34
ATOM     34  O   UNL     1       2.845   2.521  19.484  0.00  0.00    +0.000 OA
ATOM     35  H   UNL     1       2.878   2.519  18.513  0.00  0.00    +0.000 HD
ENDBRANCH  31  34
ENDBRANCH  30  31
ENDBRANCH   4  30
TORSDOF 8
ENDMDL
MODEL 4
REMARK VINA RESULT:      -8.4      0.636      1.055
REMARK  Name = 
REMARK  12 active torsions:
REMARK  status: ('A' for Active; 'I' for Inactive)
REMARK    1  A    between atoms: C_1  and  O_2
REMARK    2  A    between atoms: O_2  and  C_3
REMARK    3  A    between atoms: C_6  and  C_7
REMARK    4  A    between atoms: C_10  and  C_11
REMARK    5  A    between atoms: C_11  and  C_12
REMARK    6  A    between atoms: C_11  and  N_13
REMARK    7  A    between atoms: C_16  and  C_17
REMARK    8  A    between atoms: C_16  and  C_22
REMARK    9  A    between atoms: C_17  and  C_18
REMARK   10  A    between atoms: C_18  and  C_19
REMARK   11  A    between atoms: C_18  and  C_20
REMARK   12  A    between atoms: C_18  and  O_21
REMARK                            x       y       z     vdW  Elec       q    Type
REMARK                         _______ _______ _______ _____ _____    ______ ____
ROOT
ATOM      1  N   UNL     1       5.413   4.722  17.742  0.00  0.00    +0.000 N 
ATOM      2  C   UNL     1       4.440   5.034  16.715  0.00  0.00    +0.000 C 
ATOM      3  C   UNL     1       3.118   4.357  16.959  0.00  0.00    +0.000 C 
ATOM      4  C   UNL     1       2.641   4.688  18.377  0.00  0.00    +0.000 C 
ATOM      5  O   UNL     1       3.686   4.248  19.283  0.00  0.00    +0.000 OA
ATOM      6  C   UNL     1       5.019   4.421  19.041  0.00  0.00    +0.000 C 
ATOM      7  O   UNL     1       5.811   4.257  19.963  0.00  0.00    +0.000 OA
ENDROOT
BRANCH   4   8
ATOM      8  C   UNL     1       2.312   6.171  18.596  0.00  0.00    +0.000 A 
ATOM      9  C   UNL     1       1.966   6.654  19.872  0.00  0.00    +0.000 A 
ATOM     10  C   UNL     1       1.877   8.027  20.120  0.00  0.00    +0.000 A 
ATOM     11  C   UNL     1       2.102   8.942  19.094  0.00  0.00    +0.000 A 
ATOM     12  C   UNL     1       2.367   8.484  17.808  0.00  0.00    +0.000 A 
ATOM     13  C   UNL     1       2.462   7.112  17.559  0.00  0.00    +0.000 A 
ENDBRANCH   4   8
BRANCH   1  14
ATOM     14  C   UNL     1       6.855   4.944  17.472  0.00  0.00    +0.000 C 
ATOM     15  C   UNL     1       7.246   4.565  16.039  0.00  0.00    +0.000 C 
BRANCH  14  19
ATOM     16  C   UNL     1       8.341   8.957  18.379  0.00  0.00    +0.000 A 
ATOM     17  C   UNL     1       7.403   8.734  17.358  0.00  0.00    +0.000 A 
ATOM     18  C   UNL     1       6.911   7.449  17.091  0.00  0.00    +0.000 A 
ATOM     19  C   UNL     1       7.327   6.345  17.848  0.00  0.00    +0.000 A 
ATOM     20  C   UNL     1       8.182   6.584  18.929  0.00  0.00    +0.000 A 
ATOM     21  C   UNL     1       8.698   7.860  19.174  0.00  0.00    +0.000 A 
BRANCH  16  25
ATOM     22  C   UNL     1      10.006  12.815  18.896  0.00  0.00    +0.000 A 
ATOM     23  C   UNL     1      10.414  11.817  19.763  0.00  0.00    +0.000 A 
ATOM     24  C   UNL     1       9.888  10.536  19.601  0.00  0.00    +0.000 A 
ATOM     25  C   UNL     1       8.979  10.275  18.571  0.00  0.00    +0.000 A 
ATOM     26  C   UNL     1       8.671  11.356  17.737  0.00  0.00    +0.000 A 
ATOM     27  N   UNL     1       9.161  12.609  17.867  0.00  0.00    +0.000 NA
BRANCH  22  29
ATOM     28  C   UNL     1      11.515  14.425  18.172  0.00  0.00    +0.000 C 
ATOM     29  O   UNL     1      10.506  14.081  19.117  0.00  0.00    +0.000 OA
ENDBRANCH  22  29
ENDBRANCH  16  25
ENDBRANCH  14  19
ENDBRANCH   1  14
BRANCH   4  30
ATOM     30  C   UNL     1       1.381   3.797  18.626  0.00  0.00    +0.000 C 
BRANCH  30  31
ATOM     31  C   UNL     1       1.345   2.706  19.727  0.00  0.00    +0.000 C 
ATOM     32  C   UNL     1       2.302   1.538  19.493  0.00  0.00    +0.000 C 
ATOM     33  C   UNL     1       1.493   3.237  21.155  0.00  0.00    +0.000 C 
BRANCH  31  34
ATOM     34  O   UNL     1       0.001   2.168  19.696  0.00  0.00    +0.000 OA
ATOM     35  H   UNL     1      -0.104   1.676  18.865  0.00  0.00    +0.000 HD
ENDBRANCH  31  34
ENDBRANCH  30  31
ENDBRANCH   4  30
TORSDOF 8
ENDMDL
MODEL 5
REMARK VINA RESULT:      -8.2      0.837      1.068
REMARK  Name = 
REMARK  12 active torsions:
REMARK  status: ('A' for Active; 'I' for Inactive)
REMARK    1  A    between atoms: C_1  and  O_2
REMARK    2  A    between atoms: O_2  and  C_3
REMARK    3  A    between atoms: C_6  and  C_7
REMARK    4  A    between atoms: C_10  and  C_11
REMARK    5  A    between atoms: C_11  and  C_12
REMARK    6  A    between atoms: C_11  and  N_13
REMARK    7  A    between atoms: C_16  and  C_17
REMARK    8  A    between atoms: C_16  and  C_22
REMARK    9  A    between atoms: C_17  and  C_18
REMARK   10  A    between atoms: C_18  and  C_19
REMARK   11  A    between atoms: C_18  and  C_20
REMARK   12  A    between atoms: C_18  and  O_21
REMARK                            x       y       z     vdW  Elec       q    Type
REMARK                         _______ _______ _______ _____ _____    ______ ____
ROOT
ATOM      1  N   UNL     1       5.695   5.118  17.665  0.00  0.00    +0.000 N 
ATOM      2  C   UNL     1       4.626   5.404  16.729  0.00  0.00    +0.000 C 
ATOM      3  C   UNL     1       3.373   4.633  17.044  0.00  0.00    +0.000 C 
ATOM      4  C   UNL     1       2.989   4.879  18.508  0.00  0.00    +0.000 C 
ATOM      5  O   UNL     1       4.128   4.474  19.312  0.00  0.00    +0.000 OA
ATOM      6  C   UNL     1       5.424   4.743  18.977  0.00  0.00    +0.000 C 
ATOM      7  O   UNL     1       6.295   4.597  19.828  0.00  0.00    +0.000 OA
ENDROOT
BRANCH   4   8
ATOM      8  C   UNL     1       2.586   6.327  18.814  0.00  0.00    +0.000 A 
ATOM      9  C   UNL     1       2.511   7.289  17.789  0.00  0.00    +0.000 A 
ATOM     10  C   UNL     1       1.940   8.544  18.022  0.00  0.00    +0.000 A 
ATOM     11  C   UNL     1       1.462   8.873  19.289  0.00  0.00    +0.000 A 
ATOM     12  C   UNL     1       1.598   7.967  20.334  0.00  0.00    +0.000 A 
ATOM     13  C   UNL     1       2.163   6.710  20.102  0.00  0.00    +0.000 A 
ENDBRANCH   4   8
BRANCH   1  14
ATOM     14  C   UNL     1       7.095   5.445  17.296  0.00  0.00    +0.000 C 
ATOM     15  C   UNL     1       7.381   5.192  15.811  0.00  0.00    +0.000 C 
BRANCH  14  19
ATOM     16  C   UNL     1       8.452   9.457  18.389  0.00  0.00    +0.000 A 
ATOM     17  C   UNL     1       7.530   9.251  17.351  0.00  0.00    +0.000 A 
ATOM     18  C   UNL     1       7.079   7.965  17.024  0.00  0.00    +0.000 A 
ATOM     19  C   UNL     1       7.522   6.841  17.737  0.00  0.00    +0.000 A 
ATOM     20  C   UNL     1       8.361   7.059  18.835  0.00  0.00    +0.000 A 
ATOM     21  C   UNL     1       8.836   8.337  19.140  0.00  0.00    +0.000 A 
BRANCH  16  25
ATOM     22  C   UNL     1      10.309  13.176  19.192  0.00  0.00    +0.000 A 
ATOM     23  C   UNL     1       9.627  13.043  17.995  0.00  0.00    +0.000 A 
ATOM     24  C   UNL     1       8.996  11.831  17.719  0.00  0.00    +0.000 A 
ATOM     25  C   UNL     1       9.049  10.783  18.644  0.00  0.00    +0.000 A 
ATOM     26  C   UNL     1       9.738  11.051  19.832  0.00  0.00    +0.000 A 
ATOM     27  N   UNL     1      10.360  12.212  20.132  0.00  0.00    +0.000 NA
BRANCH  22  29
ATOM     28  C   UNL     1      12.333  14.303  19.017  0.00  0.00    +0.000 C 
ATOM     29  O   UNL     1      10.964  14.369  19.411  0.00  0.00    +0.000 OA
ENDBRANCH  22  29
ENDBRANCH  16  25
ENDBRANCH  14  19
ENDBRANCH   1  14
BRANCH   4  30
ATOM     30  C   UNL     1       1.812   3.898  18.813  0.00  0.00    +0.000 C 
BRANCH  30  31
ATOM     31  C   UNL     1       1.932   2.764  19.863  0.00  0.00    +0.000 C 
ATOM     32  C   UNL     1       3.367   2.341  20.176  0.00  0.00    +0.000 C 
ATOM     33  C   UNL     1       1.156   3.010  21.159  0.00  0.00    +0.000 C 
BRANCH  31  34
ATOM     34  O   UNL     1       1.270   1.619  19.275  0.00  0.00    +0.000 OA
ATOM     35  H   UNL     1       0.394   1.536  19.687  0.00  0.00    +0.000 HD
ENDBRANCH  31  34
ENDBRANCH  30  31
ENDBRANCH   4  30
TORSDOF 8
ENDMDL
MODEL 6
REMARK VINA RESULT:      -7.8      0.786      1.316
REMARK  Name = 
REMARK  12 active torsions:
REMARK  status: ('A' for Active; 'I' for Inactive)
REMARK    1  A    between atoms: C_1  and  O_2
REMARK    2  A    between atoms: O_2  and  C_3
REMARK    3  A    between atoms: C_6  and  C_7
REMARK    4  A    between atoms: C_10  and  C_11
REMARK    5  A    between atoms: C_11  and  C_12
REMARK    6  A    between atoms: C_11  and  N_13
REMARK    7  A    between atoms: C_16  and  C_17
REMARK    8  A    between atoms: C_16  and  C_22
REMARK    9  A    between atoms: C_17  and  C_18
REMARK   10  A    between atoms: C_18  and  C_19
REMARK   11  A    between atoms: C_18  and  C_20
REMARK   12  A    between atoms: C_18  and  O_21
REMARK                            x       y       z     vdW  Elec       q    Type
REMARK                         _______ _______ _______ _____ _____    ______ ____
ROOT
ATOM      1  N   UNL     1       5.339   5.186  17.827  0.00  0.00    +0.000 N 
ATOM      2  C   UNL     1       4.212   5.262  16.919  0.00  0.00    +0.000 C 
ATOM      3  C   UNL     1       2.990   4.580  17.470  0.00  0.00    +0.000 C 
ATOM      4  C   UNL     1       2.691   5.139  18.865  0.00  0.00    +0.000 C 
ATOM      5  O   UNL     1       3.881   4.917  19.667  0.00  0.00    +0.000 OA
ATOM      6  C   UNL     1       5.151   5.105  19.203  0.00  0.00    +0.000 C 
ATOM      7  O   UNL     1       6.073   5.147  20.011  0.00  0.00    +0.000 OA
ENDROOT
BRANCH   4   8
ATOM      8  C   UNL     1       2.290   6.619  18.874  0.00  0.00    +0.000 A 
ATOM      9  C   UNL     1       1.856   7.244  20.058  0.00  0.00    +0.000 A 
ATOM     10  C   UNL     1       1.697   8.632  20.122  0.00  0.00    +0.000 A 
ATOM     11  C   UNL     1       1.939   9.418  18.997  0.00  0.00    +0.000 A 
ATOM     12  C   UNL     1       2.292   8.813  17.797  0.00  0.00    +0.000 A 
ATOM     13  C   UNL     1       2.457   7.427  17.732  0.00  0.00    +0.000 A 
ENDBRANCH   4   8
BRANCH   1  14
ATOM     14  C   UNL     1       6.710   5.422  17.311  0.00  0.00    +0.000 C 
ATOM     15  C   UNL     1       6.796   5.263  15.789  0.00  0.00    +0.000 C 
BRANCH  14  19
ATOM     16  C   UNL     1       8.563   9.200  18.505  0.00  0.00    +0.000 A 
ATOM     17  C   UNL     1       7.578   9.149  17.505  0.00  0.00    +0.000 A 
ATOM     18  C   UNL     1       6.969   7.938  17.147  0.00  0.00    +0.000 A 
ATOM     19  C   UNL     1       7.312   6.739  17.789  0.00  0.00    +0.000 A 
ATOM     20  C   UNL     1       8.217   6.809  18.853  0.00  0.00    +0.000 A 
ATOM     21  C   UNL     1       8.849   8.010  19.188  0.00  0.00    +0.000 A 
BRANCH  16  25
ATOM     22  C   UNL     1      10.807  12.662  19.453  0.00  0.00    +0.000 A 
ATOM     23  C   UNL     1      10.646  12.347  18.116  0.00  0.00    +0.000 A 
ATOM     24  C   UNL     1       9.898  11.219  17.782  0.00  0.00    +0.000 A 
ATOM     25  C   UNL     1       9.317  10.438  18.786  0.00  0.00    +0.000 A 
ATOM     26  C   UNL     1       9.521  10.879  20.099  0.00  0.00    +0.000 A 
ATOM     27  N   UNL     1      10.239  11.966  20.457  0.00  0.00    +0.000 NA
BRANCH  22  29
ATOM     28  C   UNL     1      10.872  14.750  20.470  0.00  0.00    +0.000 C 
ATOM     29  O   UNL     1      11.595  13.755  19.749  0.00  0.00    +0.000 OA
ENDBRANCH  22  29
ENDBRANCH  16  25
ENDBRANCH  14  19
ENDBRANCH   1  14
BRANCH   4  30
ATOM     30  C   UNL     1       1.546   4.249  19.448  0.00  0.00    +0.000 C 
BRANCH  30  31
ATOM     31  C   UNL     1       1.807   2.828  20.010  0.00  0.00    +0.000 C 
ATOM     32  C   UNL     1       1.663   1.706  18.981  0.00  0.00    +0.000 C 
ATOM     33  C   UNL     1       3.120   2.678  20.779  0.00  0.00    +0.000 C 
BRANCH  31  34
ATOM     34  O   UNL     1       0.789   2.615  21.016  0.00  0.00    +0.000 OA
ATOM     35  H   UNL     1       0.414   3.481  21.249  0.00  0.00    +0.000 HD
ENDBRANCH  31  34
ENDBRANCH  30  31
ENDBRANCH   4  30
TORSDOF 8
ENDMDL
MODEL 7
REMARK VINA RESULT:      -7.8      0.958      1.726
REMARK  Name = 
REMARK  12 active torsions:
REMARK  status: ('A' for Active; 'I' for Inactive)
REMARK    1  A    between atoms: C_1  and  O_2
REMARK    2  A    between atoms: O_2  and  C_3
REMARK    3  A    between atoms: C_6  and  C_7
REMARK    4  A    between atoms: C_10  and  C_11
REMARK    5  A    between atoms: C_11  and  C_12
REMARK    6  A    between atoms: C_11  and  N_13
REMARK    7  A    between atoms: C_16  and  C_17
REMARK    8  A    between atoms: C_16  and  C_22
REMARK    9  A    between atoms: C_17  and  C_18
REMARK   10  A    between atoms: C_18  and  C_19
REMARK   11  A    between atoms: C_18  and  C_20
REMARK   12  A    between atoms: C_18  and  O_21
REMARK                            x       y       z     vdW  Elec       q    Type
REMARK                         _______ _______ _______ _____ _____    ______ ____
ROOT
ATOM      1  N   UNL     1       5.380   4.792  17.974  0.00  0.00    +0.000 N 
ATOM      2  C   UNL     1       4.300   4.890  17.012  0.00  0.00    +0.000 C 
ATOM      3  C   UNL     1       3.015   4.311  17.538  0.00  0.00    +0.000 C 
ATOM      4  C   UNL     1       2.692   4.956  18.890  0.00  0.00    +0.000 C 
ATOM      5  O   UNL     1       3.830   4.703  19.755  0.00  0.00    +0.000 OA
ATOM      6  C   UNL     1       5.129   4.791  19.341  0.00  0.00    +0.000 C 
ATOM      7  O   UNL     1       6.017   4.818  20.187  0.00  0.00    +0.000 OA
ENDROOT
BRANCH   4   8
ATOM      8  C   UNL     1       2.384   6.456  18.810  0.00  0.00    +0.000 A 
ATOM      9  C   UNL     1       1.915   7.159  19.936  0.00  0.00    +0.000 A 
ATOM     10  C   UNL     1       1.839   8.555  19.931  0.00  0.00    +0.000 A 
ATOM     11  C   UNL     1       2.200   9.273  18.794  0.00  0.00    +0.000 A 
ATOM     12  C   UNL     1       2.591   8.595  17.645  0.00  0.00    +0.000 A 
ATOM     13  C   UNL     1       2.674   7.200  17.650  0.00  0.00    +0.000 A 
ENDBRANCH   4   8
BRANCH   1  14
ATOM     14  C   UNL     1       6.784   4.919  17.510  0.00  0.00    +0.000 C 
ATOM     15  C   UNL     1       6.972   4.421  16.072  0.00  0.00    +0.000 C 
BRANCH  14  19
ATOM     16  C   UNL     1       8.303   8.948  18.277  0.00  0.00    +0.000 A 
ATOM     17  C   UNL     1       8.723   7.847  19.041  0.00  0.00    +0.000 A 
ATOM     18  C   UNL     1       8.252   6.555  18.771  0.00  0.00    +0.000 A 
ATOM     19  C   UNL     1       7.359   6.316  17.717  0.00  0.00    +0.000 A 
ATOM     20  C   UNL     1       7.023   7.397  16.895  0.00  0.00    +0.000 A 
ATOM     21  C   UNL     1       7.465   8.691  17.184  0.00  0.00    +0.000 A 
BRANCH  16  25
ATOM     22  C   UNL     1       9.522  12.847  19.389  0.00  0.00    +0.000 A 
ATOM     23  C   UNL     1       8.840  12.703  18.193  0.00  0.00    +0.000 A 
ATOM     24  C   UNL     1       8.418  11.429  17.816  0.00  0.00    +0.000 A 
ATOM     25  C   UNL     1       8.672  10.330  18.643  0.00  0.00    +0.000 A 
ATOM     26  C   UNL     1       9.337  10.609  19.843  0.00  0.00    +0.000 A 
ATOM     27  N   UNL     1       9.760  11.829  20.238  0.00  0.00    +0.000 NA
BRANCH  22  29
ATOM     28  C   UNL     1      11.358  14.117  20.032  0.00  0.00    +0.000 C 
ATOM     29  O   UNL     1       9.970  14.112  19.706  0.00  0.00    +0.000 OA
ENDBRANCH  22  29
ENDBRANCH  16  25
ENDBRANCH  14  19
ENDBRANCH   1  14
BRANCH   4  30
ATOM     30  C   UNL     1       1.470   4.166  19.462  0.00  0.00    +0.000 C 
BRANCH  30  31
ATOM     31  C   UNL     1       1.597   2.717  19.994  0.00  0.00    +0.000 C 
ATOM     32  C   UNL     1       1.486   2.589  21.514  0.00  0.00    +0.000 C 
ATOM     33  C   UNL     1       0.681   1.702  19.307  0.00  0.00    +0.000 C 
BRANCH  31  34
ATOM     34  O   UNL     1       2.929   2.284  19.627  0.00  0.00    +0.000 OA
ATOM     35  H   UNL     1       3.028   2.403  18.668  0.00  0.00    +0.000 HD
ENDBRANCH  31  34
ENDBRANCH  30  31
ENDBRANCH   4  30
TORSDOF 8
ENDMDL
MODEL 8
REMARK VINA RESULT:      -7.5      0.943      1.173
REMARK  Name = 
REMARK  12 active torsions:
REMARK  status: ('A' for Active; 'I' for Inactive)
REMARK    1  A    between atoms: C_1  and  O_2
REMARK    2  A    between atoms: O_2  and  C_3
REMARK    3  A    between atoms: C_6  and  C_7
REMARK    4  A    between atoms: C_10  and  C_11
REMARK    5  A    between atoms: C_11  and  C_12
REMARK    6  A    between atoms: C_11  and  N_13
REMARK    7  A    between atoms: C_16  and  C_17
REMARK    8  A    between atoms: C_16  and  C_22
REMARK    9  A    between atoms: C_17  and  C_18
REMARK   10  A    between atoms: C_18  and  C_19
REMARK   11  A    between atoms: C_18  and  C_20
REMARK   12  A    between atoms: C_18  and  O_21
REMARK                            x       y       z     vdW  Elec       q    Type
REMARK                         _______ _______ _______ _____ _____    ______ ____
ROOT
ATOM      1  N   UNL     1       5.704   5.319  18.005  0.00  0.00    +0.000 N 
ATOM      2  C   UNL     1       4.531   5.370  17.155  0.00  0.00    +0.000 C 
ATOM      3  C   UNL     1       3.371   4.612  17.741  0.00  0.00    +0.000 C 
ATOM      4  C   UNL     1       3.117   5.111  19.168  0.00  0.00    +0.000 C 
ATOM      5  O   UNL     1       4.354   4.922  19.903  0.00  0.00    +0.000 OA
ATOM      6  C   UNL     1       5.590   5.186  19.384  0.00  0.00    +0.000 C 
ATOM      7  O   UNL     1       6.548   5.247  20.147  0.00  0.00    +0.000 OA
ENDROOT
BRANCH   4   8
ATOM      8  C   UNL     1       2.647   6.570  19.246  0.00  0.00    +0.000 A 
ATOM      9  C   UNL     1       2.684   7.402  18.112  0.00  0.00    +0.000 A 
ATOM     10  C   UNL     1       2.061   8.654  18.120  0.00  0.00    +0.000 A 
ATOM     11  C   UNL     1       1.418   9.111  19.268  0.00  0.00    +0.000 A 
ATOM     12  C   UNL     1       1.439   8.338  20.423  0.00  0.00    +0.000 A 
ATOM     13  C   UNL     1       2.055   7.083  20.416  0.00  0.00    +0.000 A 
ENDBRANCH   4   8
BRANCH   1  14
ATOM     14  C   UNL     1       7.035   5.638  17.431  0.00  0.00    +0.000 C 
ATOM     15  C   UNL     1       7.099   5.374  15.922  0.00  0.00    +0.000 C 
BRANCH  14  19
ATOM     16  C   UNL     1       8.565   9.643  18.294  0.00  0.00    +0.000 A 
ATOM     17  C   UNL     1       7.572   9.430  17.325  0.00  0.00    +0.000 A 
ATOM     18  C   UNL     1       7.067   8.146  17.073  0.00  0.00    +0.000 A 
ATOM     19  C   UNL     1       7.526   7.035  17.795  0.00  0.00    +0.000 A 
ATOM     20  C   UNL     1       8.440   7.265  18.829  0.00  0.00    +0.000 A 
ATOM     21  C   UNL     1       8.968   8.539  19.057  0.00  0.00    +0.000 A 
BRANCH  16  25
ATOM     22  C   UNL     1      10.250  13.495  18.793  0.00  0.00    +0.000 A 
ATOM     23  C   UNL     1      10.860  12.438  19.444  0.00  0.00    +0.000 A 
ATOM     24  C   UNL     1      10.329  11.159  19.281  0.00  0.00    +0.000 A 
ATOM     25  C   UNL     1       9.212  10.960  18.464  0.00  0.00    +0.000 A 
ATOM     26  C   UNL     1       8.707  12.102  17.830  0.00  0.00    +0.000 A 
ATOM     27  N   UNL     1       9.196  13.354  17.967  0.00  0.00    +0.000 NA
BRANCH  22  29
ATOM     28  C   UNL     1       9.806  15.775  18.780  0.00  0.00    +0.000 C 
ATOM     29  O   UNL     1      10.770  14.753  19.017  0.00  0.00    +0.000 OA
ENDBRANCH  22  29
ENDBRANCH  16  25
ENDBRANCH  14  19
ENDBRANCH   1  14
BRANCH   4  30
ATOM     30  C   UNL     1       2.045   4.149  19.775  0.00  0.00    +0.000 C 
BRANCH  30  31
ATOM     31  C   UNL     1       1.223   3.168  18.900  0.00  0.00    +0.000 C 
ATOM     32  C   UNL     1       0.776   3.744  17.556  0.00  0.00    +0.000 C 
ATOM     33  C   UNL     1       1.870   1.796  18.702  0.00  0.00    +0.000 C 
BRANCH  31  34
ATOM     34  O   UNL     1       0.025   2.881  19.660  0.00  0.00    +0.000 OA
ATOM     35  H   UNL     1      -0.561   2.344  19.101  0.00  0.00    +0.000 HD
ENDBRANCH  31  34
ENDBRANCH  30  31
ENDBRANCH   4  30
TORSDOF 8
ENDMDL
MODEL 9
REMARK VINA RESULT:      -7.3      5.623      9.813
REMARK  Name = 
REMARK  12 active torsions:
REMARK  status: ('A' for Active; 'I' for Inactive)
REMARK    1  A    between atoms: C_1  and  O_2
REMARK    2  A    between atoms: O_2  and  C_3
REMARK    3  A    between atoms: C_6  and  C_7
REMARK    4  A    between atoms: C_10  and  C_11
REMARK    5  A    between atoms: C_11  and  C_12
REMARK    6  A    between atoms: C_11  and  N_13
REMARK    7  A    between atoms: C_16  and  C_17
REMARK    8  A    between atoms: C_16  and  C_22
REMARK    9  A    between atoms: C_17  and  C_18
REMARK   10  A    between atoms: C_18  and  C_19
REMARK   11  A    between atoms: C_18  and  C_20
REMARK   12  A    between atoms: C_18  and  O_21
REMARK                            x       y       z     vdW  Elec       q    Type
REMARK                         _______ _______ _______ _____ _____    ______ ____
ROOT
ATOM      1  N   UNL     1      -0.538  12.318  19.961  0.00  0.00    +0.000 N 
ATOM      2  C   UNL     1      -0.521  13.266  18.866  0.00  0.00    +0.000 C 
ATOM      3  C   UNL     1      -0.521  14.692  19.347  0.00  0.00    +0.000 C 
ATOM      4  C   UNL     1       0.629  14.884  20.341  0.00  0.00    +0.000 C 
ATOM      5  O   UNL     1       0.425  13.920  21.407  0.00  0.00    +0.000 OA
ATOM      6  C   UNL     1       0.022  12.632  21.195  0.00  0.00    +0.000 C 
ATOM      7  O   UNL     1       0.124  11.824  22.112  0.00  0.00    +0.000 OA
ENDROOT
BRANCH   4   8
ATOM      8  C   UNL     1       2.024  14.732  19.721  0.00  0.00    +0.000 A 
ATOM      9  C   UNL     1       2.249  15.032  18.365  0.00  0.00    +0.000 A 
ATOM     10  C   UNL     1       3.547  15.104  17.851  0.00  0.00    +0.000 A 
ATOM     11  C   UNL     1       4.643  14.848  18.672  0.00  0.00    +0.000 A 
ATOM     12  C   UNL     1       4.439  14.473  19.995  0.00  0.00    +0.000 A 
ATOM     13  C   UNL     1       3.143  14.406  20.513  0.00  0.00    +0.000 A 
ENDBRANCH   4   8
BRANCH   1  14
ATOM     14  C   UNL     1      -0.951  10.916  19.706  0.00  0.00    +0.000 C 
ATOM     15  C   UNL     1      -2.070  10.817  18.663  0.00  0.00    +0.000 C 
BRANCH  14  19
ATOM     16  C   UNL     1       2.273   8.148  18.672  0.00  0.00    +0.000 A 
ATOM     17  C   UNL     1       1.793   9.092  17.751  0.00  0.00    +0.000 A 
ATOM     18  C   UNL     1       0.778   9.994  18.099  0.00  0.00    +0.000 A 
ATOM     19  C   UNL     1       0.221   9.994  19.386  0.00  0.00    +0.000 A 
ATOM     20  C   UNL     1       0.771   9.122  20.331  0.00  0.00    +0.000 A 
ATOM     21  C   UNL     1       1.760   8.200  19.975  0.00  0.00    +0.000 A 
BRANCH  16  25
ATOM     22  C   UNL     1       4.895   5.008  17.579  0.00  0.00    +0.000 A 
ATOM     23  C   UNL     1       4.864   6.130  16.771  0.00  0.00    +0.000 A 
ATOM     24  C   UNL     1       4.018   7.182  17.121  0.00  0.00    +0.000 A 
ATOM     25  C   UNL     1       3.232   7.097  18.275  0.00  0.00    +0.000 A 
ATOM     26  C   UNL     1       3.378   5.927  19.030  0.00  0.00    +0.000 A 
ATOM     27  N   UNL     1       4.187   4.891  18.719  0.00  0.00    +0.000 NA
BRANCH  22  29
ATOM     28  C   UNL     1       6.628   4.373  16.169  0.00  0.00    +0.000 C 
ATOM     29  O   UNL     1       5.704   3.967  17.176  0.00  0.00    +0.000 OA
ENDBRANCH  22  29
ENDBRANCH  16  25
ENDBRANCH  14  19
ENDBRANCH   1  14
BRANCH   4  30
ATOM     30  C   UNL     1       0.442  16.314  20.944  0.00  0.00    +0.000 C 
BRANCH  30  31
ATOM     31  C   UNL     1       0.251  16.552  22.464  0.00  0.00    +0.000 C 
ATOM     32  C   UNL     1       0.396  18.011  22.898  0.00  0.00    +0.000 C 
ATOM     33  C   UNL     1      -1.027  15.948  23.048  0.00  0.00    +0.000 C 
BRANCH  31  34
ATOM     34  O   UNL     1       1.312  15.809  23.109  0.00  0.00    +0.000 OA
ATOM     35  H   UNL     1       2.100  15.860  22.542  0.00  0.00    +0.000 HD
ENDBRANCH  31  34
ENDBRANCH  30  31
ENDBRANCH   4  30
TORSDOF 8
ENDMDL
