MODEL 1
REMARK VINA RESULT:      -7.2      0.000      0.000
REMARK  Name = 
REMARK  7 active torsions:
REMARK  status: ('A' for Active; 'I' for Inactive)
REMARK    1  A    between atoms: C_1  and  N_2
REMARK    2  A    between atoms: N_2  and  C_3
REMARK    3  A    between atoms: C_3  and  C_4
REMARK    4  A    between atoms: C_4  and  O_5
REMARK    5  A    between atoms: C_17  and  C_19
REMARK    6  A    between atoms: C_19  and  C_20
REMARK    7  A    between atoms: C_20  and  C_21
REMARK                            x       y       z     vdW  Elec       q    Type
REMARK                         _______ _______ _______ _____ _____    ______ ____
ROOT
ATOM      1  C   UNL     1       2.835   5.127  19.895  0.00  0.00    +0.000 C 
ATOM      2  C   UNL     1       1.541   4.759  19.121  0.00  0.00    +0.000 C 
ATOM      3  C   UNL     1       1.726   4.370  17.660  0.00  0.00    +0.000 C 
ATOM      4  C   UNL     1       2.822   3.326  17.522  0.00  0.00    +0.000 C 
ATOM      5  N   UNL     1       4.052   3.846  18.099  0.00  0.00    +0.000 N 
ATOM      6  C   UNL     1       5.055   4.247  17.242  0.00  0.00    +0.000 A 
ATOM      7  C   UNL     1       6.389   4.292  17.642  0.00  0.00    +0.000 A 
ATOM      8  C   UNL     1       7.393   4.586  16.716  0.00  0.00    +0.000 A 
ATOM      9  C   UNL     1       7.052   4.850  15.400  0.00  0.00    +0.000 A 
ATOM     10  C   UNL     1       5.711   4.816  15.076  0.00  0.00    +0.000 A 
ATOM     11  N   UNL     1       4.730   4.525  15.955  0.00  0.00    +0.000 NA
ATOM     12  C   UNL     1       4.014   4.173  19.527  0.00  0.00    +0.000 C 
ENDROOT
BRANCH   1  13
ATOM     13  O   UNL     1       2.444   4.915  21.274  0.00  0.00    +0.000 OA
ATOM     14  H   UNL     1       1.479   4.778  21.286  0.00  0.00    +0.000 HD
ENDBRANCH   1  13
BRANCH   1  15
ATOM     15  C   UNL     1       3.272   6.622  19.725  0.00  0.00    +0.000 C 
BRANCH  15  17
ATOM     16  C   UNL     1       2.653   7.941  17.620  0.00  0.00    +0.000 C 
ATOM     17  N   UNL     1       2.332   7.518  18.983  0.00  0.00    +0.000 N 
ATOM     18  C   UNL     1       1.414   8.362  19.617  0.00  0.00    +0.000 C 
ATOM     19  O   UNL     1       0.890   9.305  19.016  0.00  0.00    +0.000 OA
BRANCH  18  20
ATOM     20  C   UNL     1       1.066   8.101  21.068  0.00  0.00    +0.000 C 
BRANCH  20  21
ATOM     21  C   UNL     1       1.469   9.320  21.906  0.00  0.00    +0.000 C 
BRANCH  21  22
ATOM     22  C   UNL     1       0.318  10.233  22.197  0.00  0.00    +0.000 A 
ATOM     23  C   UNL     1      -0.686  10.062  23.129  0.00  0.00    +0.000 A 
ATOM     24  C   UNL     1      -1.588  11.163  23.155  0.00  0.00    +0.000 A 
ATOM     25  C   UNL     1      -1.238  12.138  22.247  0.00  0.00    +0.000 A 
ATOM     26  S   UNL     1       0.164  11.721  21.365  0.00  0.00    +0.000 S 
ENDBRANCH  21  22
ENDBRANCH  20  21
ENDBRANCH  18  20
ENDBRANCH  15  17
ENDBRANCH   1  15
TORSDOF 6
ENDMDL
MODEL 2
REMARK VINA RESULT:      -6.9      0.930      1.184
REMARK  Name = 
REMARK  7 active torsions:
REMARK  status: ('A' for Active; 'I' for Inactive)
REMARK    1  A    between atoms: C_1  and  N_2
REMARK    2  A    between atoms: N_2  and  C_3
REMARK    3  A    between atoms: C_3  and  C_4
REMARK    4  A    between atoms: C_4  and  O_5
REMARK    5  A    between atoms: C_17  and  C_19
REMARK    6  A    between atoms: C_19  and  C_20
REMARK    7  A    between atoms: C_20  and  C_21
REMARK                            x       y       z     vdW  Elec       q    Type
REMARK                         _______ _______ _______ _____ _____    ______ ____
ROOT
ATOM      1  C   UNL     1       2.854   5.204  19.841  0.00  0.00    +0.000 C 
ATOM      2  C   UNL     1       1.555   4.851  19.067  0.00  0.00    +0.000 C 
ATOM      3  C   UNL     1       1.739   4.422  17.617  0.00  0.00    +0.000 C 
ATOM      4  C   UNL     1       2.809   3.347  17.511  0.00  0.00    +0.000 C 
ATOM      5  N   UNL     1       4.048   3.849  18.085  0.00  0.00    +0.000 N 
ATOM      6  C   UNL     1       5.067   4.203  17.225  0.00  0.00    +0.000 A 
ATOM      7  C   UNL     1       6.399   4.222  17.633  0.00  0.00    +0.000 A 
ATOM      8  C   UNL     1       7.416   4.467  16.708  0.00  0.00    +0.000 A 
ATOM      9  C   UNL     1       7.091   4.709  15.384  0.00  0.00    +0.000 A 
ATOM     10  C   UNL     1       5.751   4.701  15.051  0.00  0.00    +0.000 A 
ATOM     11  N   UNL     1       4.757   4.458  15.930  0.00  0.00    +0.000 NA
ATOM     12  C   UNL     1       4.009   4.211  19.504  0.00  0.00    +0.000 C 
ENDROOT
BRANCH   1  13
ATOM     13  O   UNL     1       2.449   5.036  21.222  0.00  0.00    +0.000 OA
ATOM     14  H   UNL     1       3.131   5.453  21.778  0.00  0.00    +0.000 HD
ENDBRANCH   1  13
BRANCH   1  15
ATOM     15  C   UNL     1       3.331   6.682  19.638  0.00  0.00    +0.000 C 
BRANCH  15  17
ATOM     16  C   UNL     1       3.547   7.339  17.173  0.00  0.00    +0.000 C 
ATOM     17  N   UNL     1       2.808   7.400  18.434  0.00  0.00    +0.000 N 
ATOM     18  C   UNL     1       1.939   8.494  18.508  0.00  0.00    +0.000 C 
ATOM     19  O   UNL     1       1.782   9.253  17.547  0.00  0.00    +0.000 OA
BRANCH  18  20
ATOM     20  C   UNL     1       1.183   8.737  19.798  0.00  0.00    +0.000 C 
BRANCH  20  21
ATOM     21  C   UNL     1       0.187   9.883  19.584  0.00  0.00    +0.000 C 
BRANCH  21  22
ATOM     22  C   UNL     1      -0.345  10.440  20.868  0.00  0.00    +0.000 A 
ATOM     23  C   UNL     1      -0.916  11.678  21.084  0.00  0.00    +0.000 A 
ATOM     24  C   UNL     1      -1.349  11.843  22.431  0.00  0.00    +0.000 A 
ATOM     25  C   UNL     1      -1.099  10.724  23.193  0.00  0.00    +0.000 A 
ATOM     26  S   UNL     1      -0.340   9.487  22.291  0.00  0.00    +0.000 S 
ENDBRANCH  21  22
ENDBRANCH  20  21
ENDBRANCH  18  20
ENDBRANCH  15  17
ENDBRANCH   1  15
TORSDOF 6
ENDMDL
MODEL 3
REMARK VINA RESULT:      -6.8      1.657      1.918
REMARK  Name = 
REMARK  7 active torsions:
REMARK  status: ('A' for Active; 'I' for Inactive)
REMARK    1  A    between atoms: C_1  and  N_2
REMARK    2  A    between atoms: N_2  and  C_3
REMARK    3  A    between atoms: C_3  and  C_4
REMARK    4  A    between atoms: C_4  and  O_5
REMARK    5  A    between atoms: C_17  and  C_19
REMARK    6  A    between atoms: C_19  and  C_20
REMARK    7  A    between atoms: C_20  and  C_21
REMARK                            x       y       z     vdW  Elec       q    Type
REMARK                         _______ _______ _______ _____ _____    ______ ____
ROOT
ATOM      1  C   UNL     1       2.793   5.297  19.898  0.00  0.00    +0.000 C 
ATOM      2  C   UNL     1       1.513   4.928  19.102  0.00  0.00    +0.000 C 
ATOM      3  C   UNL     1       1.730   4.474  17.665  0.00  0.00    +0.000 C 
ATOM      4  C   UNL     1       2.805   3.401  17.601  0.00  0.00    +0.000 C 
ATOM      5  N   UNL     1       4.030   3.916  18.193  0.00  0.00    +0.000 N 
ATOM      6  C   UNL     1       5.066   4.258  17.349  0.00  0.00    +0.000 A 
ATOM      7  C   UNL     1       6.389   4.289  17.786  0.00  0.00    +0.000 A 
ATOM      8  C   UNL     1       7.425   4.521  16.879  0.00  0.00    +0.000 A 
ATOM      9  C   UNL     1       7.128   4.739  15.544  0.00  0.00    +0.000 A 
ATOM     10  C   UNL     1       5.796   4.722  15.182  0.00  0.00    +0.000 A 
ATOM     11  N   UNL     1       4.784   4.491  16.043  0.00  0.00    +0.000 NA
ATOM     12  C   UNL     1       3.959   4.303  19.604  0.00  0.00    +0.000 C 
ENDROOT
BRANCH   1  13
ATOM     13  O   UNL     1       2.359   5.153  21.272  0.00  0.00    +0.000 OA
ATOM     14  H   UNL     1       2.486   4.219  21.522  0.00  0.00    +0.000 HD
ENDBRANCH   1  13
BRANCH   1  15
ATOM     15  C   UNL     1       3.271   6.774  19.680  0.00  0.00    +0.000 C 
BRANCH  15  17
ATOM     16  C   UNL     1       3.761   7.311  17.225  0.00  0.00    +0.000 C 
ATOM     17  N   UNL     1       2.882   7.424  18.390  0.00  0.00    +0.000 N 
ATOM     18  C   UNL     1       2.003   8.508  18.310  0.00  0.00    +0.000 C 
ATOM     19  O   UNL     1       1.950   9.218  17.301  0.00  0.00    +0.000 OA
BRANCH  18  20
ATOM     20  C   UNL     1       1.102   8.805  19.493  0.00  0.00    +0.000 C 
BRANCH  20  21
ATOM     21  C   UNL     1       0.933  10.323  19.622  0.00  0.00    +0.000 C 
BRANCH  21  22
ATOM     22  C   UNL     1      -0.446  10.788  19.266  0.00  0.00    +0.000 A 
ATOM     23  C   UNL     1      -1.235  10.374  18.212  0.00  0.00    +0.000 A 
ATOM     24  C   UNL     1      -2.511  11.007  18.215  0.00  0.00    +0.000 A 
ATOM     25  C   UNL     1      -2.653  11.876  19.274  0.00  0.00    +0.000 A 
ATOM     26  S   UNL     1      -1.252  11.933  20.251  0.00  0.00    +0.000 S 
ENDBRANCH  21  22
ENDBRANCH  20  21
ENDBRANCH  18  20
ENDBRANCH  15  17
ENDBRANCH   1  15
TORSDOF 6
ENDMDL
MODEL 4
REMARK VINA RESULT:      -6.4      1.530      1.720
REMARK  Name = 
REMARK  7 active torsions:
REMARK  status: ('A' for Active; 'I' for Inactive)
REMARK    1  A    between atoms: C_1  and  N_2
REMARK    2  A    between atoms: N_2  and  C_3
REMARK    3  A    between atoms: C_3  and  C_4
REMARK    4  A    between atoms: C_4  and  O_5
REMARK    5  A    between atoms: C_17  and  C_19
REMARK    6  A    between atoms: C_19  and  C_20
REMARK    7  A    between atoms: C_20  and  C_21
REMARK                            x       y       z     vdW  Elec       q    Type
REMARK                         _______ _______ _______ _____ _____    ______ ____
ROOT
ATOM      1  C   UNL     1       2.755   5.314  19.882  0.00  0.00    +0.000 C 
ATOM      2  C   UNL     1       1.482   4.942  19.078  0.00  0.00    +0.000 C 
ATOM      3  C   UNL     1       1.710   4.480  17.644  0.00  0.00    +0.000 C 
ATOM      4  C   UNL     1       2.785   3.405  17.595  0.00  0.00    +0.000 C 
ATOM      5  N   UNL     1       4.005   3.923  18.195  0.00  0.00    +0.000 N 
ATOM      6  C   UNL     1       5.049   4.259  17.359  0.00  0.00    +0.000 A 
ATOM      7  C   UNL     1       6.368   4.291  17.807  0.00  0.00    +0.000 A 
ATOM      8  C   UNL     1       7.412   4.517  16.907  0.00  0.00    +0.000 A 
ATOM      9  C   UNL     1       7.127   4.728  15.568  0.00  0.00    +0.000 A 
ATOM     10  C   UNL     1       5.798   4.710  15.195  0.00  0.00    +0.000 A 
ATOM     11  N   UNL     1       4.778   4.484  16.049  0.00  0.00    +0.000 NA
ATOM     12  C   UNL     1       3.922   4.317  19.603  0.00  0.00    +0.000 C 
ENDROOT
BRANCH   1  13
ATOM     13  O   UNL     1       2.309   5.177  21.254  0.00  0.00    +0.000 OA
ATOM     14  H   UNL     1       2.494   6.020  21.706  0.00  0.00    +0.000 HD
ENDBRANCH   1  13
BRANCH   1  15
ATOM     15  C   UNL     1       3.236   6.789  19.660  0.00  0.00    +0.000 C 
BRANCH  15  17
ATOM     16  C   UNL     1       3.541   7.334  17.177  0.00  0.00    +0.000 C 
ATOM     17  N   UNL     1       2.769   7.469  18.413  0.00  0.00    +0.000 N 
ATOM     18  C   UNL     1       1.932   8.590  18.415  0.00  0.00    +0.000 C 
ATOM     19  O   UNL     1       1.824   9.312  17.420  0.00  0.00    +0.000 OA
BRANCH  18  20
ATOM     20  C   UNL     1       1.147   8.909  19.672  0.00  0.00    +0.000 C 
BRANCH  20  21
ATOM     21  C   UNL     1      -0.000   9.862  19.314  0.00  0.00    +0.000 C 
BRANCH  21  22
ATOM     22  C   UNL     1       0.277  11.280  19.707  0.00  0.00    +0.000 A 
ATOM     23  C   UNL     1       1.042  11.735  20.762  0.00  0.00    +0.000 A 
ATOM     24  C   UNL     1       1.117  13.157  20.799  0.00  0.00    +0.000 A 
ATOM     25  C   UNL     1       0.411  13.737  19.768  0.00  0.00    +0.000 A 
ATOM     26  S   UNL     1      -0.342  12.572  18.769  0.00  0.00    +0.000 S 
ENDBRANCH  21  22
ENDBRANCH  20  21
ENDBRANCH  18  20
ENDBRANCH  15  17
ENDBRANCH   1  15
TORSDOF 6
ENDMDL
MODEL 5
REMARK VINA RESULT:      -6.4      5.536      8.592
REMARK  Name = 
REMARK  7 active torsions:
REMARK  status: ('A' for Active; 'I' for Inactive)
REMARK    1  A    between atoms: C_1  and  N_2
REMARK    2  A    between atoms: N_2  and  C_3
REMARK    3  A    between atoms: C_3  and  C_4
REMARK    4  A    between atoms: C_4  and  O_5
REMARK    5  A    between atoms: C_17  and  C_19
REMARK    6  A    between atoms: C_19  and  C_20
REMARK    7  A    between atoms: C_20  and  C_21
REMARK                            x       y       z     vdW  Elec       q    Type
REMARK                         _______ _______ _______ _____ _____    ______ ____
ROOT
ATOM      1  C   UNL     1      -0.529  10.787  19.206  0.00  0.00    +0.000 C 
ATOM      2  C   UNL     1      -0.394  10.070  17.837  0.00  0.00    +0.000 C 
ATOM      3  C   UNL     1      -1.681   9.916  17.036  0.00  0.00    +0.000 C 
ATOM      4  C   UNL     1      -2.415  11.245  16.946  0.00  0.00    +0.000 C 
ATOM      5  N   UNL     1      -2.673  11.739  18.290  0.00  0.00    +0.000 N 
ATOM      6  C   UNL     1      -3.962  11.663  18.774  0.00  0.00    +0.000 A 
ATOM      7  C   UNL     1      -4.417  12.504  19.788  0.00  0.00    +0.000 A 
ATOM      8  C   UNL     1      -5.760  12.483  20.171  0.00  0.00    +0.000 A 
ATOM      9  C   UNL     1      -6.634  11.607  19.550  0.00  0.00    +0.000 A 
ATOM     10  C   UNL     1      -6.113  10.782  18.573  0.00  0.00    +0.000 A 
ATOM     11  N   UNL     1      -4.822  10.796  18.185  0.00  0.00    +0.000 NA
ATOM     12  C   UNL     1      -1.498  12.007  19.123  0.00  0.00    +0.000 C 
ENDROOT
BRANCH   1  13
ATOM     13  O   UNL     1       0.822  11.249  19.450  0.00  0.00    +0.000 OA
ATOM     14  H   UNL     1       0.761  12.068  19.975  0.00  0.00    +0.000 HD
ENDBRANCH   1  13
BRANCH   1  15
ATOM     15  C   UNL     1      -0.950   9.838  20.380  0.00  0.00    +0.000 C 
BRANCH  15  17
ATOM     16  C   UNL     1       1.063   8.722  21.500  0.00  0.00    +0.000 C 
ATOM     17  N   UNL     1       0.000   9.727  21.530  0.00  0.00    +0.000 N 
ATOM     18  C   UNL     1      -0.303  10.166  22.823  0.00  0.00    +0.000 C 
ATOM     19  O   UNL     1       0.348   9.781  23.800  0.00  0.00    +0.000 OA
BRANCH  18  20
ATOM     20  C   UNL     1      -1.453  11.135  23.012  0.00  0.00    +0.000 C 
BRANCH  20  21
ATOM     21  C   UNL     1      -0.936  12.566  22.824  0.00  0.00    +0.000 C 
BRANCH  21  22
ATOM     22  C   UNL     1      -2.038  13.573  22.709  0.00  0.00    +0.000 A 
ATOM     23  C   UNL     1      -2.153  14.606  21.801  0.00  0.00    +0.000 A 
ATOM     24  C   UNL     1      -3.365  15.335  21.966  0.00  0.00    +0.000 A 
ATOM     25  C   UNL     1      -4.135  14.830  22.990  0.00  0.00    +0.000 A 
ATOM     26  S   UNL     1      -3.395  13.490  23.750  0.00  0.00    +0.000 S 
ENDBRANCH  21  22
ENDBRANCH  20  21
ENDBRANCH  18  20
ENDBRANCH  15  17
ENDBRANCH   1  15
TORSDOF 6
ENDMDL
MODEL 6
REMARK VINA RESULT:      -6.3      6.608     10.478
REMARK  Name = 
REMARK  7 active torsions:
REMARK  status: ('A' for Active; 'I' for Inactive)
REMARK    1  A    between atoms: C_1  and  N_2
REMARK    2  A    between atoms: N_2  and  C_3
REMARK    3  A    between atoms: C_3  and  C_4
REMARK    4  A    between atoms: C_4  and  O_5
REMARK    5  A    between atoms: C_17  and  C_19
REMARK    6  A    between atoms: C_19  and  C_20
REMARK    7  A    between atoms: C_20  and  C_21
REMARK                            x       y       z     vdW  Elec       q    Type
REMARK                         _______ _______ _______ _____ _____    ______ ____
ROOT
ATOM      1  C   UNL     1      -5.615  11.520  18.243  0.00  0.00    +0.000 C 
ATOM      2  C   UNL     1      -6.806  10.603  18.627  0.00  0.00    +0.000 C 
ATOM      3  C   UNL     1      -7.253  10.666  20.082  0.00  0.00    +0.000 C 
ATOM      4  C   UNL     1      -7.443  12.110  20.519  0.00  0.00    +0.000 C 
ATOM      5  N   UNL     1      -6.204  12.841  20.305  0.00  0.00    +0.000 N 
ATOM      6  C   UNL     1      -5.440  13.162  21.407  0.00  0.00    +0.000 A 
ATOM      7  C   UNL     1      -4.542  14.228  21.392  0.00  0.00    +0.000 A 
ATOM      8  C   UNL     1      -3.873  14.602  22.560  0.00  0.00    +0.000 A 
ATOM      9  C   UNL     1      -4.094  13.895  23.730  0.00  0.00    +0.000 A 
ATOM     10  C   UNL     1      -4.975  12.834  23.670  0.00  0.00    +0.000 A 
ATOM     11  N   UNL     1      -5.636  12.465  22.553  0.00  0.00    +0.000 NA
ATOM     12  C   UNL     1      -5.725  12.919  18.923  0.00  0.00    +0.000 C 
ENDROOT
BRANCH   1  13
ATOM     13  O   UNL     1      -5.776  11.655  16.809  0.00  0.00    +0.000 OA
ATOM     14  H   UNL     1      -6.073  12.567  16.634  0.00  0.00    +0.000 HD
ENDBRANCH   1  13
BRANCH   1  15
ATOM     15  C   UNL     1      -4.210  10.886  18.528  0.00  0.00    +0.000 C 
BRANCH  15  17
ATOM     16  C   UNL     1      -2.683  11.167  16.493  0.00  0.00    +0.000 C 
ATOM     17  N   UNL     1      -3.034  11.531  17.866  0.00  0.00    +0.000 N 
ATOM     18  C   UNL     1      -1.967  12.095  18.574  0.00  0.00    +0.000 C 
ATOM     19  O   UNL     1      -0.884  12.323  18.026  0.00  0.00    +0.000 OA
BRANCH  18  20
ATOM     20  C   UNL     1      -2.160  12.427  20.039  0.00  0.00    +0.000 C 
BRANCH  20  21
ATOM     21  C   UNL     1      -0.786  12.554  20.707  0.00  0.00    +0.000 C 
BRANCH  21  22
ATOM     22  C   UNL     1      -0.415  11.345  21.510  0.00  0.00    +0.000 A 
ATOM     23  C   UNL     1      -0.865  10.988  22.764  0.00  0.00    +0.000 A 
ATOM     24  C   UNL     1      -0.326   9.742  23.195  0.00  0.00    +0.000 A 
ATOM     25  C   UNL     1       0.513   9.190  22.252  0.00  0.00    +0.000 A 
ATOM     26  S   UNL     1       0.653  10.173  20.862  0.00  0.00    +0.000 S 
ENDBRANCH  21  22
ENDBRANCH  20  21
ENDBRANCH  18  20
ENDBRANCH  15  17
ENDBRANCH   1  15
TORSDOF 6
ENDMDL
MODEL 7
REMARK VINA RESULT:      -6.2      5.201      8.851
REMARK  Name = 
REMARK  7 active torsions:
REMARK  status: ('A' for Active; 'I' for Inactive)
REMARK    1  A    between atoms: C_1  and  N_2
REMARK    2  A    between atoms: N_2  and  C_3
REMARK    3  A    between atoms: C_3  and  C_4
REMARK    4  A    between atoms: C_4  and  O_5
REMARK    5  A    between atoms: C_17  and  C_19
REMARK    6  A    between atoms: C_19  and  C_20
REMARK    7  A    between atoms: C_20  and  C_21
REMARK                            x       y       z     vdW  Elec       q    Type
REMARK                         _______ _______ _______ _____ _____    ______ ____
ROOT
ATOM      1  C   UNL     1      -1.348  10.997  18.403  0.00  0.00    +0.000 C 
ATOM      2  C   UNL     1      -1.535  10.192  17.089  0.00  0.00    +0.000 C 
ATOM      3  C   UNL     1      -2.972   9.860  16.708  0.00  0.00    +0.000 C 
ATOM      4  C   UNL     1      -3.842  11.105  16.777  0.00  0.00    +0.000 C 
ATOM      5  N   UNL     1      -3.757  11.675  18.113  0.00  0.00    +0.000 N 
ATOM      6  C   UNL     1      -4.835  11.517  18.957  0.00  0.00    +0.000 A 
ATOM      7  C   UNL     1      -5.070  12.388  20.020  0.00  0.00    +0.000 A 
ATOM      8  C   UNL     1      -6.235  12.272  20.781  0.00  0.00    +0.000 A 
ATOM      9  C   UNL     1      -7.149  11.274  20.485  0.00  0.00    +0.000 A 
ATOM     10  C   UNL     1      -6.843  10.429  19.438  0.00  0.00    +0.000 A 
ATOM     11  N   UNL     1      -5.727  10.532  18.687  0.00  0.00    +0.000 NA
ATOM     12  C   UNL     1      -2.429  12.112  18.551  0.00  0.00    +0.000 C 
ENDROOT
BRANCH   1  13
ATOM     13  O   UNL     1      -0.044  11.598  18.217  0.00  0.00    +0.000 OA
ATOM     14  H   UNL     1       0.623  10.935  18.474  0.00  0.00    +0.000 HD
ENDBRANCH   1  13
BRANCH   1  15
ATOM     15  C   UNL     1      -1.307  10.105  19.691  0.00  0.00    +0.000 C 
BRANCH  15  17
ATOM     16  C   UNL     1       1.116   9.279  19.679  0.00  0.00    +0.000 C 
ATOM     17  N   UNL     1       0.019   9.961  20.367  0.00  0.00    +0.000 N 
ATOM     18  C   UNL     1       0.182   9.997  21.756  0.00  0.00    +0.000 C 
ATOM     19  O   UNL     1       1.206   9.563  22.293  0.00  0.00    +0.000 OA
BRANCH  18  20
ATOM     20  C   UNL     1      -0.927  10.585  22.604  0.00  0.00    +0.000 C 
BRANCH  20  21
ATOM     21  C   UNL     1      -0.796  12.113  22.607  0.00  0.00    +0.000 C 
BRANCH  21  22
ATOM     22  C   UNL     1      -1.998  12.800  23.177  0.00  0.00    +0.000 A 
ATOM     23  C   UNL     1      -3.237  12.256  23.450  0.00  0.00    +0.000 A 
ATOM     24  C   UNL     1      -4.125  13.205  24.032  0.00  0.00    +0.000 A 
ATOM     25  C   UNL     1      -3.532  14.438  24.187  0.00  0.00    +0.000 A 
ATOM     26  S   UNL     1      -1.917  14.450  23.627  0.00  0.00    +0.000 S 
ENDBRANCH  21  22
ENDBRANCH  20  21
ENDBRANCH  18  20
ENDBRANCH  15  17
ENDBRANCH   1  15
TORSDOF 6
ENDMDL
MODEL 8
REMARK VINA RESULT:      -6.2      4.505      7.221
REMARK  Name = 
REMARK  7 active torsions:
REMARK  status: ('A' for Active; 'I' for Inactive)
REMARK    1  A    between atoms: C_1  and  N_2
REMARK    2  A    between atoms: N_2  and  C_3
REMARK    3  A    between atoms: C_3  and  C_4
REMARK    4  A    between atoms: C_4  and  O_5
REMARK    5  A    between atoms: C_17  and  C_19
REMARK    6  A    between atoms: C_19  and  C_20
REMARK    7  A    between atoms: C_20  and  C_21
REMARK                            x       y       z     vdW  Elec       q    Type
REMARK                         _______ _______ _______ _____ _____    ______ ____
ROOT
ATOM      1  C   UNL     1      -1.070  11.551  18.460  0.00  0.00    +0.000 C 
ATOM      2  C   UNL     1      -1.333  12.095  19.889  0.00  0.00    +0.000 C 
ATOM      3  C   UNL     1      -0.631  11.358  21.022  0.00  0.00    +0.000 C 
ATOM      4  C   UNL     1       0.846  11.182  20.710  0.00  0.00    +0.000 C 
ATOM      5  N   UNL     1       0.987  10.481  19.443  0.00  0.00    +0.000 N 
ATOM      6  C   UNL     1       1.378   9.160  19.471  0.00  0.00    +0.000 A 
ATOM      7  C   UNL     1       1.997   8.553  18.379  0.00  0.00    +0.000 A 
ATOM      8  C   UNL     1       2.489   7.250  18.482  0.00  0.00    +0.000 A 
ATOM      9  C   UNL     1       2.342   6.556  19.672  0.00  0.00    +0.000 A 
ATOM     10  C   UNL     1       1.696   7.205  20.706  0.00  0.00    +0.000 A 
ATOM     11  N   UNL     1       1.223   8.466  20.626  0.00  0.00    +0.000 NA
ATOM     12  C   UNL     1       0.423  11.146  18.265  0.00  0.00    +0.000 C 
ENDROOT
BRANCH   1  13
ATOM     13  O   UNL     1      -1.381  12.697  17.629  0.00  0.00    +0.000 OA
ATOM     14  H   UNL     1      -2.307  12.605  17.339  0.00  0.00    +0.000 HD
ENDBRANCH   1  13
BRANCH   1  15
ATOM     15  C   UNL     1      -2.013  10.368  18.049  0.00  0.00    +0.000 C 
BRANCH  15  17
ATOM     16  C   UNL     1      -2.711  10.719  15.611  0.00  0.00    +0.000 C 
ATOM     17  N   UNL     1      -3.066  10.669  17.030  0.00  0.00    +0.000 N 
ATOM     18  C   UNL     1      -4.246  11.358  17.325  0.00  0.00    +0.000 C 
ATOM     19  O   UNL     1      -4.931  11.868  16.432  0.00  0.00    +0.000 OA
BRANCH  18  20
ATOM     20  C   UNL     1      -4.681  11.473  18.772  0.00  0.00    +0.000 C 
BRANCH  20  21
ATOM     21  C   UNL     1      -6.156  11.890  18.818  0.00  0.00    +0.000 C 
BRANCH  21  22
ATOM     22  C   UNL     1      -6.689  11.990  20.213  0.00  0.00    +0.000 A 
ATOM     23  C   UNL     1      -7.684  11.233  20.798  0.00  0.00    +0.000 A 
ATOM     24  C   UNL     1      -7.896  11.584  22.162  0.00  0.00    +0.000 A 
ATOM     25  C   UNL     1      -7.051  12.591  22.572  0.00  0.00    +0.000 A 
ATOM     26  S   UNL     1      -6.017  13.115  21.316  0.00  0.00    +0.000 S 
ENDBRANCH  21  22
ENDBRANCH  20  21
ENDBRANCH  18  20
ENDBRANCH  15  17
ENDBRANCH   1  15
TORSDOF 6
ENDMDL
MODEL 9
REMARK VINA RESULT:      -6.1      5.795      8.986
REMARK  Name = 
REMARK  7 active torsions:
REMARK  status: ('A' for Active; 'I' for Inactive)
REMARK    1  A    between atoms: C_1  and  N_2
REMARK    2  A    between atoms: N_2  and  C_3
REMARK    3  A    between atoms: C_3  and  C_4
REMARK    4  A    between atoms: C_4  and  O_5
REMARK    5  A    between atoms: C_17  and  C_19
REMARK    6  A    between atoms: C_19  and  C_20
REMARK    7  A    between atoms: C_20  and  C_21
REMARK                            x       y       z     vdW  Elec       q    Type
REMARK                         _______ _______ _______ _____ _____    ______ ____
ROOT
ATOM      1  C   UNL     1      -1.261  10.799  18.330  0.00  0.00    +0.000 C 
ATOM      2  C   UNL     1      -1.438   9.940  17.049  0.00  0.00    +0.000 C 
ATOM      3  C   UNL     1      -2.873   9.712  16.593  0.00  0.00    +0.000 C 
ATOM      4  C   UNL     1      -3.632  11.028  16.541  0.00  0.00    +0.000 C 
ATOM      5  N   UNL     1      -3.577  11.663  17.849  0.00  0.00    +0.000 N 
ATOM      6  C   UNL     1      -4.715  11.646  18.628  0.00  0.00    +0.000 A 
ATOM      7  C   UNL     1      -4.936  12.592  19.626  0.00  0.00    +0.000 A 
ATOM      8  C   UNL     1      -6.151  12.620  20.315  0.00  0.00    +0.000 A 
ATOM      9  C   UNL     1      -7.130  11.689  20.011  0.00  0.00    +0.000 A 
ATOM     10  C   UNL     1      -6.837  10.763  19.030  0.00  0.00    +0.000 A 
ATOM     11  N   UNL     1      -5.673  10.727  18.349  0.00  0.00    +0.000 NA
ATOM     12  C   UNL     1      -2.245  12.009  18.350  0.00  0.00    +0.000 C 
ENDROOT
BRANCH   1  13
ATOM     13  O   UNL     1       0.101  11.275  18.200  0.00  0.00    +0.000 OA
ATOM     14  H   UNL     1       0.143  12.155  18.617  0.00  0.00    +0.000 HD
ENDBRANCH   1  13
BRANCH   1  15
ATOM     15  C   UNL     1      -1.378   9.981  19.662  0.00  0.00    +0.000 C 
BRANCH  15  17
ATOM     16  C   UNL     1       0.743   9.363  20.955  0.00  0.00    +0.000 C 
ATOM     17  N   UNL     1      -0.372  10.282  20.727  0.00  0.00    +0.000 N 
ATOM     18  C   UNL     1      -0.640  11.102  21.828  0.00  0.00    +0.000 C 
ATOM     19  O   UNL     1       0.074  11.077  22.835  0.00  0.00    +0.000 OA
BRANCH  18  20
ATOM     20  C   UNL     1      -1.833  12.035  21.768  0.00  0.00    +0.000 C 
BRANCH  20  21
ATOM     21  C   UNL     1      -2.532  12.039  23.132  0.00  0.00    +0.000 C 
BRANCH  21  22
ATOM     22  C   UNL     1      -2.565  13.396  23.766  0.00  0.00    +0.000 A 
ATOM     23  C   UNL     1      -3.557  13.940  24.556  0.00  0.00    +0.000 A 
ATOM     24  C   UNL     1      -3.221  15.244  25.020  0.00  0.00    +0.000 A 
ATOM     25  C   UNL     1      -1.983  15.647  24.572  0.00  0.00    +0.000 A 
ATOM     26  S   UNL     1      -1.236  14.462  23.593  0.00  0.00    +0.000 S 
ENDBRANCH  21  22
ENDBRANCH  20  21
ENDBRANCH  18  20
ENDBRANCH  15  17
ENDBRANCH   1  15
TORSDOF 6
ENDMDL
