MODEL 1
REMARK VINA RESULT:      -8.9      0.000      0.000
REMARK  Name = 
REMARK  4 active torsions:
REMARK  status: ('A' for Active; 'I' for Inactive)
REMARK    1  A    between atoms: N_1  and  N_2
REMARK    2  A    between atoms: C_3  and  C_5
REMARK    3  A    between atoms: C_7  and  C_8
REMARK    4  A    between atoms: C_15  and  C_16
REMARK                            x       y       z     vdW  Elec       q    Type
REMARK                         _______ _______ _______ _____ _____    ______ ____
ROOT
ATOM      1  C   UNL     1       4.677   5.878  17.048  0.00  0.00    +0.000 A 
ATOM      2  N   UNL     1       4.055   6.970  17.530  0.00  0.00    +0.000 NA
ATOM      3  C   UNL     1       2.866   6.755  18.126  0.00  0.00    +0.000 A 
ATOM      4  C   UNL     1       2.340   5.482  18.276  0.00  0.00    +0.000 A 
ATOM      5  C   UNL     1       3.054   4.414  17.768  0.00  0.00    +0.000 A 
ATOM      6  N   UNL     1       4.220   4.602  17.123  0.00  0.00    +0.000 NA
ENDROOT
BRANCH   3   7
ATOM      7  C   UNL     1       2.172   7.928  18.696  0.00  0.00    +0.000 A 
ATOM      8  C   UNL     1       1.821   9.030  17.891  0.00  0.00    +0.000 A 
ATOM      9  C   UNL     1       1.062  10.088  18.395  0.00  0.00    +0.000 A 
ATOM     10  C   UNL     1       0.654  10.075  19.724  0.00  0.00    +0.000 A 
ATOM     11  C   UNL     1       1.024   9.019  20.553  0.00  0.00    +0.000 A 
ATOM     12  C   UNL     1       1.782   7.959  20.045  0.00  0.00    +0.000 A 
ENDBRANCH   3   7
BRANCH   5  13
ATOM     13  C   UNL     1       2.542   2.998  18.002  0.00  0.00    +0.000 C 
ATOM     14  C   UNL     1       3.461   2.157  18.895  0.00  0.00    +0.000 C 
ATOM     15  C   UNL     1       3.390   2.536  20.371  0.00  0.00    +0.000 C 
ATOM     16  C   UNL     1       1.960   2.631  20.902  0.00  0.00    +0.000 C 
ATOM     17  C   UNL     1       0.991   3.385  19.996  0.00  0.00    +0.000 C 
ATOM     18  C   UNL     1       1.103   2.979  18.531  0.00  0.00    +0.000 C 
ENDBRANCH   5  13
BRANCH   1  20
ATOM     19  N   UNL     1       6.301   5.123  15.390  0.00  0.00    +0.000 N 
ATOM     20  C   UNL     1       6.037   6.056  16.404  0.00  0.00    +0.000 C 
ATOM     21  O   UNL     1       6.840   6.923  16.744  0.00  0.00    +0.000 OA
ATOM     22  H   UNL     1       5.543   4.491  15.126  0.00  0.00    +0.000 HD
BRANCH  19  23
ATOM     23  N   UNL     1       7.467   5.227  14.604  0.00  0.00    +0.000 NA
ATOM     24  H   UNL     1       7.205   5.342  13.624  0.00  0.00    +0.000 HD
ATOM     25  H   UNL     1       7.951   4.322  14.659  0.00  0.00    +0.000 HD
ENDBRANCH  19  23
ENDBRANCH   1  20
TORSDOF 4
ENDMDL
MODEL 2
REMARK VINA RESULT:      -8.9      2.983      5.679
REMARK  Name = 
REMARK  4 active torsions:
REMARK  status: ('A' for Active; 'I' for Inactive)
REMARK    1  A    between atoms: N_1  and  N_2
REMARK    2  A    between atoms: C_3  and  C_5
REMARK    3  A    between atoms: C_7  and  C_8
REMARK    4  A    between atoms: C_15  and  C_16
REMARK                            x       y       z     vdW  Elec       q    Type
REMARK                         _______ _______ _______ _____ _____    ______ ____
ROOT
ATOM      1  C   UNL     1       6.644   4.961  18.044  0.00  0.00    +0.000 A 
ATOM      2  N   UNL     1       6.921   4.997  16.727  0.00  0.00    +0.000 NA
ATOM      3  C   UNL     1       6.131   4.243  15.939  0.00  0.00    +0.000 A 
ATOM      4  C   UNL     1       5.068   3.513  16.447  0.00  0.00    +0.000 A 
ATOM      5  C   UNL     1       4.844   3.547  17.810  0.00  0.00    +0.000 A 
ATOM      6  N   UNL     1       5.645   4.251  18.630  0.00  0.00    +0.000 NA
ENDROOT
BRANCH   3   7
ATOM      7  C   UNL     1       6.386   4.286  14.485  0.00  0.00    +0.000 A 
ATOM      8  C   UNL     1       7.398   5.106  13.946  0.00  0.00    +0.000 A 
ATOM      9  C   UNL     1       7.725   5.065  12.590  0.00  0.00    +0.000 A 
ATOM     10  C   UNL     1       7.032   4.214  11.736  0.00  0.00    +0.000 A 
ATOM     11  C   UNL     1       5.998   3.424  12.235  0.00  0.00    +0.000 A 
ATOM     12  C   UNL     1       5.675   3.465  13.595  0.00  0.00    +0.000 A 
ENDBRANCH   3   7
BRANCH   5  13
ATOM     13  C   UNL     1       3.626   2.829  18.381  0.00  0.00    +0.000 C 
ATOM     14  C   UNL     1       3.406   3.095  19.873  0.00  0.00    +0.000 C 
ATOM     15  C   UNL     1       2.851   4.485  20.170  0.00  0.00    +0.000 C 
ATOM     16  C   UNL     1       1.641   4.848  19.310  0.00  0.00    +0.000 C 
ATOM     17  C   UNL     1       1.787   4.514  17.828  0.00  0.00    +0.000 C 
ATOM     18  C   UNL     1       2.350   3.119  17.581  0.00  0.00    +0.000 C 
ENDBRANCH   5  13
BRANCH   1  20
ATOM     19  N   UNL     1       7.996   6.968  18.355  0.00  0.00    +0.000 N 
ATOM     20  C   UNL     1       7.475   5.821  18.973  0.00  0.00    +0.000 C 
ATOM     21  O   UNL     1       7.687   5.538  20.151  0.00  0.00    +0.000 OA
ATOM     22  H   UNL     1       7.702   7.158  17.396  0.00  0.00    +0.000 HD
BRANCH  19  23
ATOM     23  N   UNL     1       8.686   7.940  19.109  0.00  0.00    +0.000 NA
ATOM     24  H   UNL     1       8.718   8.815  18.583  0.00  0.00    +0.000 HD
ATOM     25  H   UNL     1       9.661   7.626  19.188  0.00  0.00    +0.000 HD
ENDBRANCH  19  23
ENDBRANCH   1  20
TORSDOF 4
ENDMDL
MODEL 3
REMARK VINA RESULT:      -8.8      2.916      5.682
REMARK  Name = 
REMARK  4 active torsions:
REMARK  status: ('A' for Active; 'I' for Inactive)
REMARK    1  A    between atoms: N_1  and  N_2
REMARK    2  A    between atoms: C_3  and  C_5
REMARK    3  A    between atoms: C_7  and  C_8
REMARK    4  A    between atoms: C_15  and  C_16
REMARK                            x       y       z     vdW  Elec       q    Type
REMARK                         _______ _______ _______ _____ _____    ______ ____
ROOT
ATOM      1  C   UNL     1       6.387   5.450  17.930  0.00  0.00    +0.000 A 
ATOM      2  N   UNL     1       6.766   5.185  16.666  0.00  0.00    +0.000 NA
ATOM      3  C   UNL     1       5.777   4.857  15.812  0.00  0.00    +0.000 A 
ATOM      4  C   UNL     1       4.447   4.841  16.199  0.00  0.00    +0.000 A 
ATOM      5  C   UNL     1       4.144   5.144  17.512  0.00  0.00    +0.000 A 
ATOM      6  N   UNL     1       5.113   5.427  18.402  0.00  0.00    +0.000 NA
ENDROOT
BRANCH   3   7
ATOM      7  C   UNL     1       6.156   4.593  14.408  0.00  0.00    +0.000 A 
ATOM      8  C   UNL     1       7.303   5.181  13.840  0.00  0.00    +0.000 A 
ATOM      9  C   UNL     1       7.733   4.846  12.555  0.00  0.00    +0.000 A 
ATOM     10  C   UNL     1       7.012   3.926  11.801  0.00  0.00    +0.000 A 
ATOM     11  C   UNL     1       5.850   3.362  12.324  0.00  0.00    +0.000 A 
ATOM     12  C   UNL     1       5.423   3.698  13.612  0.00  0.00    +0.000 A 
ENDBRANCH   3   7
BRANCH   5  13
ATOM     13  C   UNL     1       2.683   5.224  17.939  0.00  0.00    +0.000 C 
ATOM     14  C   UNL     1       1.830   4.063  17.418  0.00  0.00    +0.000 C 
ATOM     15  C   UNL     1       2.077   2.748  18.152  0.00  0.00    +0.000 C 
ATOM     16  C   UNL     1       2.035   2.888  19.673  0.00  0.00    +0.000 C 
ATOM     17  C   UNL     1       2.800   4.087  20.225  0.00  0.00    +0.000 C 
ATOM     18  C   UNL     1       2.528   5.376  19.458  0.00  0.00    +0.000 C 
ENDBRANCH   5  13
BRANCH   1  20
ATOM     19  N   UNL     1       7.503   5.045  20.062  0.00  0.00    +0.000 N 
ATOM     20  C   UNL     1       7.451   5.865  18.924  0.00  0.00    +0.000 C 
ATOM     21  O   UNL     1       8.191   6.833  18.761  0.00  0.00    +0.000 OA
ATOM     22  H   UNL     1       6.901   4.220  20.073  0.00  0.00    +0.000 HD
BRANCH  19  23
ATOM     23  N   UNL     1       8.518   5.216  21.025  0.00  0.00    +0.000 NA
ATOM     24  H   UNL     1       9.344   4.684  20.743  0.00  0.00    +0.000 HD
ATOM     25  H   UNL     1       8.188   4.778  21.894  0.00  0.00    +0.000 HD
ENDBRANCH  19  23
ENDBRANCH   1  20
TORSDOF 4
ENDMDL
MODEL 4
REMARK VINA RESULT:      -8.8      2.939      5.727
REMARK  Name = 
REMARK  4 active torsions:
REMARK  status: ('A' for Active; 'I' for Inactive)
REMARK    1  A    between atoms: N_1  and  N_2
REMARK    2  A    between atoms: C_3  and  C_5
REMARK    3  A    between atoms: C_7  and  C_8
REMARK    4  A    between atoms: C_15  and  C_16
REMARK                            x       y       z     vdW  Elec       q    Type
REMARK                         _______ _______ _______ _____ _____    ______ ____
ROOT
ATOM      1  C   UNL     1       6.399   5.456  17.908  0.00  0.00    +0.000 A 
ATOM      2  N   UNL     1       6.805   5.132  16.667  0.00  0.00    +0.000 NA
ATOM      3  C   UNL     1       5.834   4.785  15.801  0.00  0.00    +0.000 A 
ATOM      4  C   UNL     1       4.494   4.806  16.154  0.00  0.00    +0.000 A 
ATOM      5  C   UNL     1       4.163   5.169  17.445  0.00  0.00    +0.000 A 
ATOM      6  N   UNL     1       5.114   5.474  18.347  0.00  0.00    +0.000 NA
ENDROOT
BRANCH   3   7
ATOM      7  C   UNL     1       6.243   4.456  14.420  0.00  0.00    +0.000 A 
ATOM      8  C   UNL     1       5.487   3.570  13.626  0.00  0.00    +0.000 A 
ATOM      9  C   UNL     1       5.800   3.346  12.285  0.00  0.00    +0.000 A 
ATOM     10  C   UNL     1       6.890   3.991  11.711  0.00  0.00    +0.000 A 
ATOM     11  C   UNL     1       7.679   4.839  12.485  0.00  0.00    +0.000 A 
ATOM     12  C   UNL     1       7.362   5.064  13.828  0.00  0.00    +0.000 A 
ENDBRANCH   3   7
BRANCH   5  13
ATOM     13  C   UNL     1       2.693   5.291  17.829  0.00  0.00    +0.000 C 
ATOM     14  C   UNL     1       1.861   4.060  17.457  0.00  0.00    +0.000 C 
ATOM     15  C   UNL     1       2.104   2.861  18.367  0.00  0.00    +0.000 C 
ATOM     16  C   UNL     1       2.031   3.206  19.854  0.00  0.00    +0.000 C 
ATOM     17  C   UNL     1       2.774   4.478  20.251  0.00  0.00    +0.000 C 
ATOM     18  C   UNL     1       2.506   5.647  19.310  0.00  0.00    +0.000 C 
ENDBRANCH   5  13
BRANCH   1  20
ATOM     19  N   UNL     1       7.484   5.095  20.064  0.00  0.00    +0.000 N 
ATOM     20  C   UNL     1       7.445   5.895  18.912  0.00  0.00    +0.000 C 
ATOM     21  O   UNL     1       8.180   6.866  18.744  0.00  0.00    +0.000 OA
ATOM     22  H   UNL     1       6.887   4.266  20.079  0.00  0.00    +0.000 HD
BRANCH  19  23
ATOM     23  N   UNL     1       8.482   5.289  21.040  0.00  0.00    +0.000 NA
ATOM     24  H   UNL     1       8.990   6.153  20.837  0.00  0.00    +0.000 HD
ATOM     25  H   UNL     1       9.167   4.531  20.928  0.00  0.00    +0.000 HD
ENDBRANCH  19  23
ENDBRANCH   1  20
TORSDOF 4
ENDMDL
MODEL 5
REMARK VINA RESULT:      -8.8      0.112      1.032
REMARK  Name = 
REMARK  4 active torsions:
REMARK  status: ('A' for Active; 'I' for Inactive)
REMARK    1  A    between atoms: N_1  and  N_2
REMARK    2  A    between atoms: C_3  and  C_5
REMARK    3  A    between atoms: C_7  and  C_8
REMARK    4  A    between atoms: C_15  and  C_16
REMARK                            x       y       z     vdW  Elec       q    Type
REMARK                         _______ _______ _______ _____ _____    ______ ____
ROOT
ATOM      1  C   UNL     1       4.622   5.932  17.079  0.00  0.00    +0.000 A 
ATOM      2  N   UNL     1       3.967   7.012  17.546  0.00  0.00    +0.000 NA
ATOM      3  C   UNL     1       2.776   6.773  18.127  0.00  0.00    +0.000 A 
ATOM      4  C   UNL     1       2.277   5.489  18.278  0.00  0.00    +0.000 A 
ATOM      5  C   UNL     1       3.023   4.435  17.786  0.00  0.00    +0.000 A 
ATOM      6  N   UNL     1       4.194   4.646  17.156  0.00  0.00    +0.000 NA
ENDROOT
BRANCH   3   7
ATOM      7  C   UNL     1       2.047   7.933  18.680  0.00  0.00    +0.000 A 
ATOM      8  C   UNL     1       1.663   7.974  20.035  0.00  0.00    +0.000 A 
ATOM      9  C   UNL     1       1.080   9.113  20.593  0.00  0.00    +0.000 A 
ATOM     10  C   UNL     1       0.852  10.233  19.801  0.00  0.00    +0.000 A 
ATOM     11  C   UNL     1       1.184  10.203  18.448  0.00  0.00    +0.000 A 
ATOM     12  C   UNL     1       1.770   9.061  17.892  0.00  0.00    +0.000 A 
ENDBRANCH   3   7
BRANCH   5  13
ATOM     13  C   UNL     1       2.541   3.008  18.023  0.00  0.00    +0.000 C 
ATOM     14  C   UNL     1       3.478   2.189  18.916  0.00  0.00    +0.000 C 
ATOM     15  C   UNL     1       3.400   2.568  20.392  0.00  0.00    +0.000 C 
ATOM     16  C   UNL     1       1.969   2.633  20.923  0.00  0.00    +0.000 C 
ATOM     17  C   UNL     1       0.983   3.365  20.017  0.00  0.00    +0.000 C 
ATOM     18  C   UNL     1       1.103   2.960  18.552  0.00  0.00    +0.000 C 
ENDBRANCH   5  13
BRANCH   1  20
ATOM     19  N   UNL     1       6.325   5.149  15.518  0.00  0.00    +0.000 N 
ATOM     20  C   UNL     1       5.985   6.138  16.453  0.00  0.00    +0.000 C 
ATOM     21  O   UNL     1       6.731   7.071  16.744  0.00  0.00    +0.000 OA
ATOM     22  H   UNL     1       5.610   4.457  15.286  0.00  0.00    +0.000 HD
BRANCH  19  23
ATOM     23  N   UNL     1       7.504   5.259  14.751  0.00  0.00    +0.000 NA
ATOM     24  H   UNL     1       7.765   4.336  14.399  0.00  0.00    +0.000 HD
ATOM     25  H   UNL     1       8.257   5.536  15.393  0.00  0.00    +0.000 HD
ENDBRANCH  19  23
ENDBRANCH   1  20
TORSDOF 4
ENDMDL
MODEL 6
REMARK VINA RESULT:      -8.7      0.949      1.074
REMARK  Name = 
REMARK  4 active torsions:
REMARK  status: ('A' for Active; 'I' for Inactive)
REMARK    1  A    between atoms: N_1  and  N_2
REMARK    2  A    between atoms: C_3  and  C_5
REMARK    3  A    between atoms: C_7  and  C_8
REMARK    4  A    between atoms: C_15  and  C_16
REMARK                            x       y       z     vdW  Elec       q    Type
REMARK                         _______ _______ _______ _____ _____    ______ ____
ROOT
ATOM      1  C   UNL     1       5.204   4.974  17.279  0.00  0.00    +0.000 A 
ATOM      2  N   UNL     1       4.580   6.139  17.533  0.00  0.00    +0.000 NA
ATOM      3  C   UNL     1       3.416   6.050  18.206  0.00  0.00    +0.000 A 
ATOM      4  C   UNL     1       2.916   4.836  18.650  0.00  0.00    +0.000 A 
ATOM      5  C   UNL     1       3.630   3.689  18.362  0.00  0.00    +0.000 A 
ATOM      6  N   UNL     1       4.771   3.741  17.649  0.00  0.00    +0.000 NA
ENDROOT
BRANCH   3   7
ATOM      7  C   UNL     1       2.723   7.313  18.530  0.00  0.00    +0.000 A 
ATOM      8  C   UNL     1       2.602   8.344  17.577  0.00  0.00    +0.000 A 
ATOM      9  C   UNL     1       1.848   9.491  17.835  0.00  0.00    +0.000 A 
ATOM     10  C   UNL     1       1.213   9.639  19.063  0.00  0.00    +0.000 A 
ATOM     11  C   UNL     1       1.351   8.654  20.039  0.00  0.00    +0.000 A 
ATOM     12  C   UNL     1       2.105   7.506  19.776  0.00  0.00    +0.000 A 
ENDBRANCH   3   7
BRANCH   5  13
ATOM     13  C   UNL     1       3.151   2.355  18.920  0.00  0.00    +0.000 C 
ATOM     14  C   UNL     1       3.564   2.118  20.376  0.00  0.00    +0.000 C 
ATOM     15  C   UNL     1       2.762   2.941  21.380  0.00  0.00    +0.000 C 
ATOM     16  C   UNL     1       1.252   2.852  21.163  0.00  0.00    +0.000 C 
ATOM     17  C   UNL     1       0.806   2.993  19.710  0.00  0.00    +0.000 C 
ATOM     18  C   UNL     1       1.640   2.159  18.744  0.00  0.00    +0.000 C 
ENDBRANCH   5  13
BRANCH   1  20
ATOM     19  N   UNL     1       6.425   5.298  15.192  0.00  0.00    +0.000 N 
ATOM     20  C   UNL     1       6.537   5.018  16.562  0.00  0.00    +0.000 C 
ATOM     21  O   UNL     1       7.613   4.813  17.119  0.00  0.00    +0.000 OA
ATOM     22  H   UNL     1       5.496   5.529  14.835  0.00  0.00    +0.000 HD
BRANCH  19  23
ATOM     23  N   UNL     1       7.576   5.499  14.403  0.00  0.00    +0.000 NA
ATOM     24  H   UNL     1       8.389   5.118  14.890  0.00  0.00    +0.000 HD
ATOM     25  H   UNL     1       7.733   6.513  14.348  0.00  0.00    +0.000 HD
ENDBRANCH  19  23
ENDBRANCH   1  20
TORSDOF 4
ENDMDL
MODEL 7
REMARK VINA RESULT:      -8.7      2.976      5.848
REMARK  Name = 
REMARK  4 active torsions:
REMARK  status: ('A' for Active; 'I' for Inactive)
REMARK    1  A    between atoms: N_1  and  N_2
REMARK    2  A    between atoms: C_3  and  C_5
REMARK    3  A    between atoms: C_7  and  C_8
REMARK    4  A    between atoms: C_15  and  C_16
REMARK                            x       y       z     vdW  Elec       q    Type
REMARK                         _______ _______ _______ _____ _____    ______ ____
ROOT
ATOM      1  C   UNL     1       7.054   6.074  17.545  0.00  0.00    +0.000 A 
ATOM      2  N   UNL     1       7.170   5.826  16.226  0.00  0.00    +0.000 NA
ATOM      3  C   UNL     1       6.420   4.814  15.749  0.00  0.00    +0.000 A 
ATOM      4  C   UNL     1       5.546   4.104  16.556  0.00  0.00    +0.000 A 
ATOM      5  C   UNL     1       5.475   4.436  17.895  0.00  0.00    +0.000 A 
ATOM      6  N   UNL     1       6.248   5.409  18.412  0.00  0.00    +0.000 NA
ENDROOT
BRANCH   3   7
ATOM      7  C   UNL     1       6.499   4.538  14.300  0.00  0.00    +0.000 A 
ATOM      8  C   UNL     1       7.505   5.118  13.501  0.00  0.00    +0.000 A 
ATOM      9  C   UNL     1       7.659   4.771  12.158  0.00  0.00    +0.000 A 
ATOM     10  C   UNL     1       6.796   3.847  11.578  0.00  0.00    +0.000 A 
ATOM     11  C   UNL     1       5.767   3.291  12.334  0.00  0.00    +0.000 A 
ATOM     12  C   UNL     1       5.616   3.639  13.681  0.00  0.00    +0.000 A 
ENDBRANCH   3   7
BRANCH   5  13
ATOM     13  C   UNL     1       4.454   3.734  18.783  0.00  0.00    +0.000 C 
ATOM     14  C   UNL     1       3.553   4.700  19.558  0.00  0.00    +0.000 C 
ATOM     15  C   UNL     1       2.489   5.369  18.693  0.00  0.00    +0.000 C 
ATOM     16  C   UNL     1       1.707   4.384  17.826  0.00  0.00    +0.000 C 
ATOM     17  C   UNL     1       2.564   3.346  17.106  0.00  0.00    +0.000 C 
ATOM     18  C   UNL     1       3.616   2.709  18.008  0.00  0.00    +0.000 C 
ENDBRANCH   5  13
BRANCH   1  20
ATOM     19  N   UNL     1       7.678   8.430  17.426  0.00  0.00    +0.000 N 
ATOM     20  C   UNL     1       7.844   7.226  18.128  0.00  0.00    +0.000 C 
ATOM     21  O   UNL     1       8.573   7.119  19.112  0.00  0.00    +0.000 OA
ATOM     22  H   UNL     1       6.993   8.439  16.668  0.00  0.00    +0.000 HD
BRANCH  19  23
ATOM     23  N   UNL     1       8.242   9.628  17.909  0.00  0.00    +0.000 NA
ATOM     24  H   UNL     1       9.240   9.643  17.690  0.00  0.00    +0.000 HD
ATOM     25  H   UNL     1       8.182   9.599  18.934  0.00  0.00    +0.000 HD
ENDBRANCH  19  23
ENDBRANCH   1  20
TORSDOF 4
ENDMDL
MODEL 8
REMARK VINA RESULT:      -8.6      0.985      1.560
REMARK  Name = 
REMARK  4 active torsions:
REMARK  status: ('A' for Active; 'I' for Inactive)
REMARK    1  A    between atoms: N_1  and  N_2
REMARK    2  A    between atoms: C_3  and  C_5
REMARK    3  A    between atoms: C_7  and  C_8
REMARK    4  A    between atoms: C_15  and  C_16
REMARK                            x       y       z     vdW  Elec       q    Type
REMARK                         _______ _______ _______ _____ _____    ______ ____
ROOT
ATOM      1  C   UNL     1       4.281   6.280  17.321  0.00  0.00    +0.000 A 
ATOM      2  N   UNL     1       3.550   7.366  17.635  0.00  0.00    +0.000 NA
ATOM      3  C   UNL     1       2.677   7.215  18.649  0.00  0.00    +0.000 A 
ATOM      4  C   UNL     1       2.573   6.029  19.357  0.00  0.00    +0.000 A 
ATOM      5  C   UNL     1       3.374   4.969  18.980  0.00  0.00    +0.000 A 
ATOM      6  N   UNL     1       4.221   5.073  17.940  0.00  0.00    +0.000 NA
ENDROOT
BRANCH   3   7
ATOM      7  C   UNL     1       1.884   8.398  19.041  0.00  0.00    +0.000 A 
ATOM      8  C   UNL     1       1.527   9.382  18.098  0.00  0.00    +0.000 A 
ATOM      9  C   UNL     1       0.679  10.439  18.433  0.00  0.00    +0.000 A 
ATOM     10  C   UNL     1       0.184  10.546  19.728  0.00  0.00    +0.000 A 
ATOM     11  C   UNL     1       0.556   9.611  20.691  0.00  0.00    +0.000 A 
ATOM     12  C   UNL     1       1.403   8.551  20.352  0.00  0.00    +0.000 A 
ENDBRANCH   3   7
BRANCH   5  13
ATOM     13  C   UNL     1       3.345   3.685  19.802  0.00  0.00    +0.000 C 
ATOM     14  C   UNL     1       2.107   3.560  20.695  0.00  0.00    +0.000 C 
ATOM     15  C   UNL     1       0.834   3.217  19.928  0.00  0.00    +0.000 C 
ATOM     16  C   UNL     1       1.004   2.038  18.971  0.00  0.00    +0.000 C 
ATOM     17  C   UNL     1       2.275   2.080  18.126  0.00  0.00    +0.000 C 
ATOM     18  C   UNL     1       3.519   2.433  18.933  0.00  0.00    +0.000 C 
ENDBRANCH   5  13
BRANCH   1  20
ATOM     19  N   UNL     1       6.501   5.715  16.480  0.00  0.00    +0.000 N 
ATOM     20  C   UNL     1       5.308   6.405  16.215  0.00  0.00    +0.000 C 
ATOM     21  O   UNL     1       5.124   7.058  15.190  0.00  0.00    +0.000 OA
ATOM     22  H   UNL     1       6.531   5.138  17.322  0.00  0.00    +0.000 HD
BRANCH  19  23
ATOM     23  N   UNL     1       7.511   5.624  15.500  0.00  0.00    +0.000 NA
ATOM     24  H   UNL     1       7.467   6.444  14.892  0.00  0.00    +0.000 HD
ATOM     25  H   UNL     1       7.282   4.821  14.902  0.00  0.00    +0.000 HD
ENDBRANCH  19  23
ENDBRANCH   1  20
TORSDOF 4
ENDMDL
MODEL 9
REMARK VINA RESULT:      -8.6      2.942      5.820
REMARK  Name = 
REMARK  4 active torsions:
REMARK  status: ('A' for Active; 'I' for Inactive)
REMARK    1  A    between atoms: N_1  and  N_2
REMARK    2  A    between atoms: C_3  and  C_5
REMARK    3  A    between atoms: C_7  and  C_8
REMARK    4  A    between atoms: C_15  and  C_16
REMARK                            x       y       z     vdW  Elec       q    Type
REMARK                         _______ _______ _______ _____ _____    ______ ____
ROOT
ATOM      1  C   UNL     1       6.733   6.230  17.379  0.00  0.00    +0.000 A 
ATOM      2  N   UNL     1       7.029   5.798  16.139  0.00  0.00    +0.000 NA
ATOM      3  C   UNL     1       6.121   4.985  15.567  0.00  0.00    +0.000 A 
ATOM      4  C   UNL     1       4.933   4.652  16.198  0.00  0.00    +0.000 A 
ATOM      5  C   UNL     1       4.701   5.154  17.463  0.00  0.00    +0.000 A 
ATOM      6  N   UNL     1       5.610   5.929  18.082  0.00  0.00    +0.000 NA
ENDROOT
BRANCH   3   7
ATOM      7  C   UNL     1       6.399   4.520  14.193  0.00  0.00    +0.000 A 
ATOM      8  C   UNL     1       5.555   3.591  13.552  0.00  0.00    +0.000 A 
ATOM      9  C   UNL     1       5.743   3.237  12.215  0.00  0.00    +0.000 A 
ATOM     10  C   UNL     1       6.793   3.792  11.493  0.00  0.00    +0.000 A 
ATOM     11  C   UNL     1       7.668   4.681  12.114  0.00  0.00    +0.000 A 
ATOM     12  C   UNL     1       7.476   5.036  13.453  0.00  0.00    +0.000 A 
ENDBRANCH   3   7
BRANCH   5  13
ATOM     13  C   UNL     1       3.362   4.880  18.139  0.00  0.00    +0.000 C 
ATOM     14  C   UNL     1       2.501   3.855  17.393  0.00  0.00    +0.000 C 
ATOM     15  C   UNL     1       2.990   2.418  17.550  0.00  0.00    +0.000 C 
ATOM     16  C   UNL     1       3.263   2.029  19.002  0.00  0.00    +0.000 C 
ATOM     17  C   UNL     1       4.043   3.066  19.806  0.00  0.00    +0.000 C 
ATOM     18  C   UNL     1       3.524   4.486  19.613  0.00  0.00    +0.000 C 
ENDBRANCH   5  13
BRANCH   1  20
ATOM     19  N   UNL     1       7.719   8.460  17.479  0.00  0.00    +0.000 N 
ATOM     20  C   UNL     1       7.700   7.181  18.055  0.00  0.00    +0.000 C 
ATOM     21  O   UNL     1       8.411   6.862  19.005  0.00  0.00    +0.000 OA
ATOM     22  H   UNL     1       7.038   8.653  16.743  0.00  0.00    +0.000 HD
BRANCH  19  23
ATOM     23  N   UNL     1       8.470   9.500  18.065  0.00  0.00    +0.000 NA
ATOM     24  H   UNL     1       8.996   9.131  18.859  0.00  0.00    +0.000 HD
ATOM     25  H   UNL     1       7.800  10.171  18.462  0.00  0.00    +0.000 HD
ENDBRANCH  19  23
ENDBRANCH   1  20
TORSDOF 4
ENDMDL
