MODEL 1
REMARK VINA RESULT:      -8.4      0.000      0.000
REMARK  Name = 
REMARK  5 active torsions:
REMARK  status: ('A' for Active; 'I' for Inactive)
REMARK    1  A    between atoms: C_1  and  C_2
REMARK    2  A    between atoms: N_4  and  S_5
REMARK    3  A    between atoms: S_5  and  C_8
REMARK    4  A    between atoms: C_11  and  N_12
REMARK    5  A    between atoms: C_13  and  C_15
REMARK                            x       y       z     vdW  Elec       q    Type
REMARK                         _______ _______ _______ _____ _____    ______ ____
ROOT
ATOM      1  N   UNL     1       1.145   8.583  18.153  0.00  0.00    +0.000 N 
ATOM      2  C   UNL     1       0.736   9.611  18.991  0.00  0.00    +0.000 C 
ATOM      3  O   UNL     1       1.321  10.053  19.969  0.00  0.00    +0.000 OA
ATOM      4  H   UNL     1       0.635   8.461  17.285  0.00  0.00    +0.000 HD
ENDROOT
BRANCH   2   5
ATOM      5  C   UNL     1      -0.568  10.219  18.626  0.00  0.00    +0.000 A 
ATOM      6  C   UNL     1      -1.259   9.788  17.484  0.00  0.00    +0.000 A 
ATOM      7  C   UNL     1      -2.521  10.323  17.181  0.00  0.00    +0.000 A 
ATOM      8  C   UNL     1      -3.069  11.314  17.998  0.00  0.00    +0.000 A 
ATOM      9  C   UNL     1      -2.291  11.824  19.043  0.00  0.00    +0.000 A 
ATOM     10  C   UNL     1      -1.070  11.270  19.391  0.00  0.00    +0.000 A 
ATOM     11  N   UNL     1      -2.748  12.953  19.762  0.00  0.00    +0.000 N 
ATOM     12  C   UNL     1      -3.962  12.698  20.379  0.00  0.00    +0.000 C 
ATOM     13  O   UNL     1      -4.065  12.614  21.599  0.00  0.00    +0.000 OA
ATOM     14  C   UNL     1      -5.145  12.589  19.432  0.00  0.00    +0.000 C 
ATOM     15  S   UNL     1      -4.726  11.936  17.752  0.00  0.00    +0.000 S 
ATOM     16  H   UNL     1      -2.952  13.657  19.050  0.00  0.00    +0.000 HD
ENDBRANCH   2   5
BRANCH   1  20
ATOM     17  C   UNL     1       4.339   5.883  18.636  0.00  0.00    +0.000 A 
ATOM     18  C   UNL     1       3.302   5.881  19.568  0.00  0.00    +0.000 A 
ATOM     19  C   UNL     1       2.243   6.776  19.428  0.00  0.00    +0.000 A 
ATOM     20  C   UNL     1       2.211   7.687  18.368  0.00  0.00    +0.000 A 
ATOM     21  C   UNL     1       3.270   7.691  17.444  0.00  0.00    +0.000 A 
ATOM     22  C   UNL     1       4.339   6.799  17.583  0.00  0.00    +0.000 A 
BRANCH  17  23
ATOM     23  S   UNL     1       5.684   4.744  18.833  0.00  0.00    +0.000 S 
ATOM     24  O   UNL     1       5.156   3.548  19.462  0.00  0.00    +0.000 OA
ATOM     25  O   UNL     1       6.812   5.436  19.405  0.00  0.00    +0.000 OA
BRANCH  23  29
ATOM     26  C   UNL     1       7.080   4.306  15.078  0.00  0.00    +0.000 C 
ATOM     27  C   UNL     1       6.928   4.952  16.427  0.00  0.00    +0.000 C 
ATOM     28  O   UNL     1       7.523   5.974  16.732  0.00  0.00    +0.000 OA
ATOM     29  N   UNL     1       6.028   4.295  17.274  0.00  0.00    +0.000 N 
ATOM     30  H   UNL     1       5.532   3.461  16.979  0.00  0.00    +0.000 HD
ENDBRANCH  23  29
ENDBRANCH  17  23
ENDBRANCH   1  20
TORSDOF 4
ENDMDL
MODEL 2
REMARK VINA RESULT:      -8.4      1.616      2.068
REMARK  Name = 
REMARK  5 active torsions:
REMARK  status: ('A' for Active; 'I' for Inactive)
REMARK    1  A    between atoms: C_1  and  C_2
REMARK    2  A    between atoms: N_4  and  S_5
REMARK    3  A    between atoms: S_5  and  C_8
REMARK    4  A    between atoms: C_11  and  N_12
REMARK    5  A    between atoms: C_13  and  C_15
REMARK                            x       y       z     vdW  Elec       q    Type
REMARK                         _______ _______ _______ _____ _____    ______ ____
ROOT
ATOM      1  N   UNL     1       1.418   8.890  19.230  0.00  0.00    +0.000 N 
ATOM      2  C   UNL     1       0.942   9.287  20.472  0.00  0.00    +0.000 C 
ATOM      3  O   UNL     1       1.304   8.894  21.571  0.00  0.00    +0.000 OA
ATOM      4  H   UNL     1       1.140   9.443  18.427  0.00  0.00    +0.000 HD
ENDROOT
BRANCH   2   5
ATOM      5  C   UNL     1      -0.132  10.311  20.418  0.00  0.00    +0.000 A 
ATOM      6  C   UNL     1      -0.692  10.692  19.190  0.00  0.00    +0.000 A 
ATOM      7  C   UNL     1      -1.751  11.613  19.153  0.00  0.00    +0.000 A 
ATOM      8  C   UNL     1      -2.218  12.180  20.341  0.00  0.00    +0.000 A 
ATOM      9  C   UNL     1      -1.541  11.890  21.531  0.00  0.00    +0.000 A 
ATOM     10  C   UNL     1      -0.534  10.941  21.594  0.00  0.00    +0.000 A 
ATOM     11  N   UNL     1      -1.877  12.597  22.709  0.00  0.00    +0.000 N 
ATOM     12  C   UNL     1      -3.204  12.397  23.054  0.00  0.00    +0.000 C 
ATOM     13  O   UNL     1      -3.528  11.757  24.049  0.00  0.00    +0.000 OA
ATOM     14  C   UNL     1      -4.207  13.078  22.137  0.00  0.00    +0.000 C 
ATOM     15  S   UNL     1      -3.649  13.249  20.382  0.00  0.00    +0.000 S 
ATOM     16  H   UNL     1      -1.811  13.584  22.456  0.00  0.00    +0.000 HD
ENDBRANCH   2   5
BRANCH   1  20
ATOM     17  C   UNL     1       3.978   5.613  18.571  0.00  0.00    +0.000 A 
ATOM     18  C   UNL     1       3.981   6.670  17.662  0.00  0.00    +0.000 A 
ATOM     19  C   UNL     1       3.132   7.757  17.860  0.00  0.00    +0.000 A 
ATOM     20  C   UNL     1       2.265   7.797  18.957  0.00  0.00    +0.000 A 
ATOM     21  C   UNL     1       2.258   6.718  19.856  0.00  0.00    +0.000 A 
ATOM     22  C   UNL     1       3.105   5.622  19.659  0.00  0.00    +0.000 A 
BRANCH  17  23
ATOM     23  S   UNL     1       5.058   4.233  18.299  0.00  0.00    +0.000 S 
ATOM     24  O   UNL     1       4.263   3.025  18.417  0.00  0.00    +0.000 OA
ATOM     25  O   UNL     1       6.254   4.403  19.086  0.00  0.00    +0.000 OA
BRANCH  23  29
ATOM     26  C   UNL     1       6.757   4.502  14.654  0.00  0.00    +0.000 C 
ATOM     27  C   UNL     1       6.715   4.446  16.156  0.00  0.00    +0.000 C 
ATOM     28  O   UNL     1       7.724   4.507  16.840  0.00  0.00    +0.000 OA
ATOM     29  N   UNL     1       5.422   4.352  16.685  0.00  0.00    +0.000 N 
ATOM     30  H   UNL     1       4.603   4.329  16.087  0.00  0.00    +0.000 HD
ENDBRANCH  23  29
ENDBRANCH  17  23
ENDBRANCH   1  20
TORSDOF 4
ENDMDL
MODEL 3
REMARK VINA RESULT:      -8.4      0.726      1.266
REMARK  Name = 
REMARK  5 active torsions:
REMARK  status: ('A' for Active; 'I' for Inactive)
REMARK    1  A    between atoms: C_1  and  C_2
REMARK    2  A    between atoms: N_4  and  S_5
REMARK    3  A    between atoms: S_5  and  C_8
REMARK    4  A    between atoms: C_11  and  N_12
REMARK    5  A    between atoms: C_13  and  C_15
REMARK                            x       y       z     vdW  Elec       q    Type
REMARK                         _______ _______ _______ _____ _____    ______ ____
ROOT
ATOM      1  N   UNL     1       1.238   8.606  18.023  0.00  0.00    +0.000 N 
ATOM      2  C   UNL     1       0.779   9.539  18.941  0.00  0.00    +0.000 C 
ATOM      3  O   UNL     1       1.317   9.892  19.980  0.00  0.00    +0.000 OA
ATOM      4  H   UNL     1       0.764   8.561  17.128  0.00  0.00    +0.000 HD
ENDROOT
BRANCH   2   5
ATOM      5  C   UNL     1      -0.523  10.160  18.586  0.00  0.00    +0.000 A 
ATOM      6  C   UNL     1      -1.230   9.731  17.453  0.00  0.00    +0.000 A 
ATOM      7  C   UNL     1      -2.490  10.277  17.160  0.00  0.00    +0.000 A 
ATOM      8  C   UNL     1      -3.018  11.279  17.977  0.00  0.00    +0.000 A 
ATOM      9  C   UNL     1      -2.224  11.786  19.011  0.00  0.00    +0.000 A 
ATOM     10  C   UNL     1      -1.005  11.220  19.350  0.00  0.00    +0.000 A 
ATOM     11  N   UNL     1      -2.661  12.924  19.728  0.00  0.00    +0.000 N 
ATOM     12  C   UNL     1      -3.871  12.685  20.359  0.00  0.00    +0.000 C 
ATOM     13  O   UNL     1      -3.963  12.609  21.581  0.00  0.00    +0.000 OA
ATOM     14  C   UNL     1      -5.065  12.584  19.425  0.00  0.00    +0.000 C 
ATOM     15  S   UNL     1      -4.670  11.918  17.744  0.00  0.00    +0.000 S 
ATOM     16  H   UNL     1      -2.865  13.626  19.015  0.00  0.00    +0.000 HD
ENDBRANCH   2   5
BRANCH   1  20
ATOM     17  C   UNL     1       4.425   5.934  18.684  0.00  0.00    +0.000 A 
ATOM     18  C   UNL     1       4.536   6.886  17.671  0.00  0.00    +0.000 A 
ATOM     19  C   UNL     1       3.486   7.770  17.433  0.00  0.00    +0.000 A 
ATOM     20  C   UNL     1       2.313   7.709  18.191  0.00  0.00    +0.000 A 
ATOM     21  C   UNL     1       2.205   6.734  19.198  0.00  0.00    +0.000 A 
ATOM     22  C   UNL     1       3.254   5.840  19.438  0.00  0.00    +0.000 A 
BRANCH  17  23
ATOM     23  S   UNL     1       5.767   4.809  18.968  0.00  0.00    +0.000 S 
ATOM     24  O   UNL     1       5.199   3.562  19.442  0.00  0.00    +0.000 OA
ATOM     25  O   UNL     1       6.797   5.480  19.721  0.00  0.00    +0.000 OA
BRANCH  23  29
ATOM     26  C   UNL     1       6.271   3.785  15.102  0.00  0.00    +0.000 C 
ATOM     27  C   UNL     1       5.533   3.945  16.403  0.00  0.00    +0.000 C 
ATOM     28  O   UNL     1       4.367   3.607  16.537  0.00  0.00    +0.000 OA
ATOM     29  N   UNL     1       6.311   4.479  17.436  0.00  0.00    +0.000 N 
ATOM     30  H   UNL     1       7.285   4.725  17.295  0.00  0.00    +0.000 HD
ENDBRANCH  23  29
ENDBRANCH  17  23
ENDBRANCH   1  20
TORSDOF 4
ENDMDL
MODEL 4
REMARK VINA RESULT:      -8.3      1.790      2.135
REMARK  Name = 
REMARK  5 active torsions:
REMARK  status: ('A' for Active; 'I' for Inactive)
REMARK    1  A    between atoms: C_1  and  C_2
REMARK    2  A    between atoms: N_4  and  S_5
REMARK    3  A    between atoms: S_5  and  C_8
REMARK    4  A    between atoms: C_11  and  N_12
REMARK    5  A    between atoms: C_13  and  C_15
REMARK                            x       y       z     vdW  Elec       q    Type
REMARK                         _______ _______ _______ _____ _____    ______ ____
ROOT
ATOM      1  N   UNL     1       1.286   8.381  18.322  0.00  0.00    +0.000 N 
ATOM      2  C   UNL     1       1.253   9.768  18.328  0.00  0.00    +0.000 C 
ATOM      3  O   UNL     1       2.190  10.538  18.180  0.00  0.00    +0.000 OA
ATOM      4  H   UNL     1       0.398   7.894  18.277  0.00  0.00    +0.000 HD
ENDROOT
BRANCH   2   5
ATOM      5  C   UNL     1      -0.097  10.348  18.542  0.00  0.00    +0.000 A 
ATOM      6  C   UNL     1      -0.309  11.307  19.544  0.00  0.00    +0.000 A 
ATOM      7  C   UNL     1      -1.573  11.898  19.698  0.00  0.00    +0.000 A 
ATOM      8  C   UNL     1      -2.630  11.498  18.877  0.00  0.00    +0.000 A 
ATOM      9  C   UNL     1      -2.422  10.438  17.989  0.00  0.00    +0.000 A 
ATOM     10  C   UNL     1      -1.169   9.883  17.783  0.00  0.00    +0.000 A 
ATOM     11  N   UNL     1      -3.523   9.894  17.287  0.00  0.00    +0.000 N 
ATOM     12  C   UNL     1      -4.130  10.849  16.488  0.00  0.00    +0.000 C 
ATOM     13  O   UNL     1      -4.078  10.800  15.263  0.00  0.00    +0.000 OA
ATOM     14  C   UNL     1      -4.902  11.915  17.248  0.00  0.00    +0.000 C 
ATOM     15  S   UNL     1      -4.223  12.305  18.924  0.00  0.00    +0.000 S 
ATOM     16  H   UNL     1      -4.212   9.669  18.006  0.00  0.00    +0.000 HD
ENDBRANCH   2   5
BRANCH   1  20
ATOM     17  C   UNL     1       4.699   5.915  18.273  0.00  0.00    +0.000 A 
ATOM     18  C   UNL     1       3.787   5.790  19.320  0.00  0.00    +0.000 A 
ATOM     19  C   UNL     1       2.658   6.607  19.356  0.00  0.00    +0.000 A 
ATOM     20  C   UNL     1       2.432   7.560  18.359  0.00  0.00    +0.000 A 
ATOM     21  C   UNL     1       3.367   7.690  17.318  0.00  0.00    +0.000 A 
ATOM     22  C   UNL     1       4.505   6.877  17.279  0.00  0.00    +0.000 A 
BRANCH  17  23
ATOM     23  S   UNL     1       6.135   4.876  18.246  0.00  0.00    +0.000 S 
ATOM     24  O   UNL     1       5.891   3.769  19.152  0.00  0.00    +0.000 OA
ATOM     25  O   UNL     1       7.315   5.692  18.386  0.00  0.00    +0.000 OA
BRANCH  23  29
ATOM     26  C   UNL     1       6.556   3.897  14.359  0.00  0.00    +0.000 C 
ATOM     27  C   UNL     1       6.733   4.727  15.600  0.00  0.00    +0.000 C 
ATOM     28  O   UNL     1       7.363   5.773  15.600  0.00  0.00    +0.000 OA
ATOM     29  N   UNL     1       6.088   4.208  16.728  0.00  0.00    +0.000 N 
ATOM     30  H   UNL     1       5.552   3.348  16.686  0.00  0.00    +0.000 HD
ENDBRANCH  23  29
ENDBRANCH  17  23
ENDBRANCH   1  20
TORSDOF 4
ENDMDL
MODEL 5
REMARK VINA RESULT:      -8.3      2.823      3.546
REMARK  Name = 
REMARK  5 active torsions:
REMARK  status: ('A' for Active; 'I' for Inactive)
REMARK    1  A    between atoms: C_1  and  C_2
REMARK    2  A    between atoms: N_4  and  S_5
REMARK    3  A    between atoms: S_5  and  C_8
REMARK    4  A    between atoms: C_11  and  N_12
REMARK    5  A    between atoms: C_13  and  C_15
REMARK                            x       y       z     vdW  Elec       q    Type
REMARK                         _______ _______ _______ _____ _____    ______ ____
ROOT
ATOM      1  N   UNL     1       2.352   7.364  18.635  0.00  0.00    +0.000 N 
ATOM      2  C   UNL     1       1.836   8.632  18.406  0.00  0.00    +0.000 C 
ATOM      3  O   UNL     1       1.953   9.314  17.399  0.00  0.00    +0.000 OA
ATOM      4  H   UNL     1       2.012   6.864  19.450  0.00  0.00    +0.000 HD
ENDROOT
BRANCH   2   5
ATOM      5  C   UNL     1       1.059   9.192  19.539  0.00  0.00    +0.000 A 
ATOM      6  C   UNL     1       1.189   8.653  20.828  0.00  0.00    +0.000 A 
ATOM      7  C   UNL     1       0.500   9.230  21.906  0.00  0.00    +0.000 A 
ATOM      8  C   UNL     1      -0.349  10.317  21.685  0.00  0.00    +0.000 A 
ATOM      9  C   UNL     1      -0.570  10.735  20.368  0.00  0.00    +0.000 A 
ATOM     10  C   UNL     1       0.145  10.217  19.301  0.00  0.00    +0.000 A 
ATOM     11  N   UNL     1      -1.565  11.705  20.106  0.00  0.00    +0.000 N 
ATOM     12  C   UNL     1      -1.295  12.893  20.764  0.00  0.00    +0.000 C 
ATOM     13  O   UNL     1      -0.975  13.913  20.160  0.00  0.00    +0.000 OA
ATOM     14  C   UNL     1      -1.480  12.840  22.272  0.00  0.00    +0.000 C 
ATOM     15  S   UNL     1      -1.147  11.184  23.027  0.00  0.00    +0.000 S 
ATOM     16  H   UNL     1      -2.413  11.342  20.545  0.00  0.00    +0.000 HD
ENDBRANCH   2   5
BRANCH   1  20
ATOM     17  C   UNL     1       5.163   5.428  16.170  0.00  0.00    +0.000 A 
ATOM     18  C   UNL     1       4.240   4.661  16.879  0.00  0.00    +0.000 A 
ATOM     19  C   UNL     1       3.310   5.286  17.707  0.00  0.00    +0.000 A 
ATOM     20  C   UNL     1       3.296   6.677  17.847  0.00  0.00    +0.000 A 
ATOM     21  C   UNL     1       4.244   7.439  17.142  0.00  0.00    +0.000 A 
ATOM     22  C   UNL     1       5.183   6.817  16.312  0.00  0.00    +0.000 A 
BRANCH  17  23
ATOM     23  S   UNL     1       6.346   4.617  15.127  0.00  0.00    +0.000 S 
ATOM     24  O   UNL     1       6.795   3.424  15.820  0.00  0.00    +0.000 OA
ATOM     25  O   UNL     1       7.298   5.586  14.645  0.00  0.00    +0.000 OA
BRANCH  23  29
ATOM     26  C   UNL     1       4.855   3.124  11.693  0.00  0.00    +0.000 C 
ATOM     27  C   UNL     1       5.917   3.612  12.640  0.00  0.00    +0.000 C 
ATOM     28  O   UNL     1       7.099   3.635  12.338  0.00  0.00    +0.000 OA
ATOM     29  N   UNL     1       5.419   4.061  13.869  0.00  0.00    +0.000 N 
ATOM     30  H   UNL     1       4.427   4.050  14.077  0.00  0.00    +0.000 HD
ENDBRANCH  23  29
ENDBRANCH  17  23
ENDBRANCH   1  20
TORSDOF 4
ENDMDL
MODEL 6
REMARK VINA RESULT:      -8.2      1.318      1.993
REMARK  Name = 
REMARK  5 active torsions:
REMARK  status: ('A' for Active; 'I' for Inactive)
REMARK    1  A    between atoms: C_1  and  C_2
REMARK    2  A    between atoms: N_4  and  S_5
REMARK    3  A    between atoms: S_5  and  C_8
REMARK    4  A    between atoms: C_11  and  N_12
REMARK    5  A    between atoms: C_13  and  C_15
REMARK                            x       y       z     vdW  Elec       q    Type
REMARK                         _______ _______ _______ _____ _____    ______ ____
ROOT
ATOM      1  N   UNL     1       1.192   8.602  17.890  0.00  0.00    +0.000 N 
ATOM      2  C   UNL     1       0.904   9.700  18.688  0.00  0.00    +0.000 C 
ATOM      3  O   UNL     1       1.624  10.225  19.524  0.00  0.00    +0.000 OA
ATOM      4  H   UNL     1       0.559   8.406  17.122  0.00  0.00    +0.000 HD
ENDROOT
BRANCH   2   5
ATOM      5  C   UNL     1      -0.446  10.278  18.472  0.00  0.00    +0.000 A 
ATOM      6  C   UNL     1      -1.266   9.804  17.438  0.00  0.00    +0.000 A 
ATOM      7  C   UNL     1      -2.566  10.310  17.280  0.00  0.00    +0.000 A 
ATOM      8  C   UNL     1      -3.026  11.318  18.131  0.00  0.00    +0.000 A 
ATOM      9  C   UNL     1      -2.133  11.870  19.056  0.00  0.00    +0.000 A 
ATOM     10  C   UNL     1      -0.868  11.344  19.264  0.00  0.00    +0.000 A 
ATOM     11  N   UNL     1      -2.517  13.013  19.794  0.00  0.00    +0.000 N 
ATOM     12  C   UNL     1      -3.639  12.759  20.565  0.00  0.00    +0.000 C 
ATOM     13  O   UNL     1      -3.589  12.711  21.790  0.00  0.00    +0.000 OA
ATOM     14  C   UNL     1      -4.929  12.604  19.777  0.00  0.00    +0.000 C 
ATOM     15  S   UNL     1      -4.711  11.908  18.077  0.00  0.00    +0.000 S 
ATOM     16  H   UNL     1      -2.821  13.692  19.094  0.00  0.00    +0.000 HD
ENDBRANCH   2   5
BRANCH   1  20
ATOM     17  C   UNL     1       4.457   5.998  18.433  0.00  0.00    +0.000 A 
ATOM     18  C   UNL     1       4.457   6.870  17.345  0.00  0.00    +0.000 A 
ATOM     19  C   UNL     1       3.380   7.730  17.145  0.00  0.00    +0.000 A 
ATOM     20  C   UNL     1       2.288   7.725  18.019  0.00  0.00    +0.000 A 
ATOM     21  C   UNL     1       2.290   6.829  19.102  0.00  0.00    +0.000 A 
ATOM     22  C   UNL     1       3.367   5.960  19.304  0.00  0.00    +0.000 A 
BRANCH  17  23
ATOM     23  S   UNL     1       5.831   4.903  18.668  0.00  0.00    +0.000 S 
ATOM     24  O   UNL     1       6.476   5.271  19.914  0.00  0.00    +0.000 OA
ATOM     25  O   UNL     1       6.590   4.825  17.445  0.00  0.00    +0.000 OA
BRANCH  23  29
ATOM     26  C   UNL     1       3.720   1.470  18.630  0.00  0.00    +0.000 C 
ATOM     27  C   UNL     1       4.196   2.804  18.122  0.00  0.00    +0.000 C 
ATOM     28  O   UNL     1       3.797   3.283  17.073  0.00  0.00    +0.000 OA
ATOM     29  N   UNL     1       5.102   3.445  18.974  0.00  0.00    +0.000 N 
ATOM     30  H   UNL     1       5.394   3.028  19.852  0.00  0.00    +0.000 HD
ENDBRANCH  23  29
ENDBRANCH  17  23
ENDBRANCH   1  20
TORSDOF 4
ENDMDL
MODEL 7
REMARK VINA RESULT:      -8.2      3.281      3.959
REMARK  Name = 
REMARK  5 active torsions:
REMARK  status: ('A' for Active; 'I' for Inactive)
REMARK    1  A    between atoms: C_1  and  C_2
REMARK    2  A    between atoms: N_4  and  S_5
REMARK    3  A    between atoms: S_5  and  C_8
REMARK    4  A    between atoms: C_11  and  N_12
REMARK    5  A    between atoms: C_13  and  C_15
REMARK                            x       y       z     vdW  Elec       q    Type
REMARK                         _______ _______ _______ _____ _____    ______ ____
ROOT
ATOM      1  N   UNL     1       1.430   8.543  20.747  0.00  0.00    +0.000 N 
ATOM      2  C   UNL     1       0.203   8.764  21.358  0.00  0.00    +0.000 C 
ATOM      3  O   UNL     1      -0.645   7.934  21.652  0.00  0.00    +0.000 OA
ATOM      4  H   UNL     1       2.090   9.312  20.739  0.00  0.00    +0.000 HD
ENDROOT
BRANCH   2   5
ATOM      5  C   UNL     1      -0.077  10.187  21.675  0.00  0.00    +0.000 A 
ATOM      6  C   UNL     1      -1.006  10.525  22.670  0.00  0.00    +0.000 A 
ATOM      7  C   UNL     1      -1.217  11.870  23.009  0.00  0.00    +0.000 A 
ATOM      8  C   UNL     1      -0.530  12.875  22.324  0.00  0.00    +0.000 A 
ATOM      9  C   UNL     1       0.277  12.511  21.240  0.00  0.00    +0.000 A 
ATOM     10  C   UNL     1       0.543  11.188  20.929  0.00  0.00    +0.000 A 
ATOM     11  N   UNL     1       0.830  13.521  20.418  0.00  0.00    +0.000 N 
ATOM     12  C   UNL     1       1.653  14.365  21.144  0.00  0.00    +0.000 C 
ATOM     13  O   UNL     1       2.869  14.387  20.981  0.00  0.00    +0.000 OA
ATOM     14  C   UNL     1       0.925  15.288  22.107  0.00  0.00    +0.000 C 
ATOM     15  S   UNL     1      -0.646  14.594  22.795  0.00  0.00    +0.000 S 
ATOM     16  H   UNL     1       0.037  14.098  20.135  0.00  0.00    +0.000 HD
ENDBRANCH   2   5
BRANCH   1  20
ATOM     17  C   UNL     1       2.696   5.032  18.799  0.00  0.00    +0.000 A 
ATOM     18  C   UNL     1       2.194   4.944  20.097  0.00  0.00    +0.000 A 
ATOM     19  C   UNL     1       1.781   6.098  20.759  0.00  0.00    +0.000 A 
ATOM     20  C   UNL     1       1.873   7.350  20.142  0.00  0.00    +0.000 A 
ATOM     21  C   UNL     1       2.397   7.428  18.840  0.00  0.00    +0.000 A 
ATOM     22  C   UNL     1       2.818   6.273  18.172  0.00  0.00    +0.000 A 
BRANCH  17  23
ATOM     23  S   UNL     1       3.227   3.555  17.973  0.00  0.00    +0.000 S 
ATOM     24  O   UNL     1       2.263   3.269  16.926  0.00  0.00    +0.000 OA
ATOM     25  O   UNL     1       3.560   2.555  18.956  0.00  0.00    +0.000 OA
BRANCH  23  29
ATOM     26  C   UNL     1       6.916   4.692  16.814  0.00  0.00    +0.000 C 
ATOM     27  C   UNL     1       5.830   4.306  17.781  0.00  0.00    +0.000 C 
ATOM     28  O   UNL     1       6.017   4.260  18.986  0.00  0.00    +0.000 OA
ATOM     29  N   UNL     1       4.597   4.042  17.174  0.00  0.00    +0.000 N 
ATOM     30  H   UNL     1       4.471   4.114  16.171  0.00  0.00    +0.000 HD
ENDBRANCH  23  29
ENDBRANCH  17  23
ENDBRANCH   1  20
TORSDOF 4
ENDMDL
MODEL 8
REMARK VINA RESULT:      -8.2      2.087      2.659
REMARK  Name = 
REMARK  5 active torsions:
REMARK  status: ('A' for Active; 'I' for Inactive)
REMARK    1  A    between atoms: C_1  and  C_2
REMARK    2  A    between atoms: N_4  and  S_5
REMARK    3  A    between atoms: S_5  and  C_8
REMARK    4  A    between atoms: C_11  and  N_12
REMARK    5  A    between atoms: C_13  and  C_15
REMARK                            x       y       z     vdW  Elec       q    Type
REMARK                         _______ _______ _______ _____ _____    ______ ____
ROOT
ATOM      1  N   UNL     1       1.403   8.612  19.694  0.00  0.00    +0.000 N 
ATOM      2  C   UNL     1       1.016   9.090  20.938  0.00  0.00    +0.000 C 
ATOM      3  O   UNL     1       1.321   8.648  22.036  0.00  0.00    +0.000 OA
ATOM      4  H   UNL     1       1.211   9.199  18.890  0.00  0.00    +0.000 HD
ENDROOT
BRANCH   2   5
ATOM      5  C   UNL     1       0.127  10.278  20.890  0.00  0.00    +0.000 A 
ATOM      6  C   UNL     1      -0.129  10.926  19.672  0.00  0.00    +0.000 A 
ATOM      7  C   UNL     1      -1.021  12.009  19.625  0.00  0.00    +0.000 A 
ATOM      8  C   UNL     1      -1.621  12.466  20.800  0.00  0.00    +0.000 A 
ATOM      9  C   UNL     1      -1.231  11.892  22.015  0.00  0.00    +0.000 A 
ATOM     10  C   UNL     1      -0.399  10.787  22.076  0.00  0.00    +0.000 A 
ATOM     11  N   UNL     1      -1.682  12.464  23.228  0.00  0.00    +0.000 N 
ATOM     12  C   UNL     1      -3.065  12.444  23.309  0.00  0.00    +0.000 C 
ATOM     13  O   UNL     1      -3.659  11.728  24.109  0.00  0.00    +0.000 OA
ATOM     14  C   UNL     1      -3.769  13.414  22.374  0.00  0.00    +0.000 C 
ATOM     15  S   UNL     1      -2.868  13.745  20.792  0.00  0.00    +0.000 S 
ATOM     16  H   UNL     1      -1.431  13.451  23.167  0.00  0.00    +0.000 HD
ENDBRANCH   2   5
BRANCH   1  20
ATOM     17  C   UNL     1       3.376   4.952  19.029  0.00  0.00    +0.000 A 
ATOM     18  C   UNL     1       3.521   5.981  18.098  0.00  0.00    +0.000 A 
ATOM     19  C   UNL     1       2.865   7.194  18.299  0.00  0.00    +0.000 A 
ATOM     20  C   UNL     1       2.053   7.392  19.419  0.00  0.00    +0.000 A 
ATOM     21  C   UNL     1       1.900   6.342  20.341  0.00  0.00    +0.000 A 
ATOM     22  C   UNL     1       2.551   5.120  20.142  0.00  0.00    +0.000 A 
BRANCH  17  23
ATOM     23  S   UNL     1       4.208   3.411  18.754  0.00  0.00    +0.000 S 
ATOM     24  O   UNL     1       3.311   2.558  17.997  0.00  0.00    +0.000 OA
ATOM     25  O   UNL     1       4.782   2.954  19.995  0.00  0.00    +0.000 OA
BRANCH  23  29
ATOM     26  C   UNL     1       7.530   4.704  16.873  0.00  0.00    +0.000 C 
ATOM     27  C   UNL     1       6.588   4.501  18.028  0.00  0.00    +0.000 C 
ATOM     28  O   UNL     1       6.829   4.923  19.148  0.00  0.00    +0.000 OA
ATOM     29  N   UNL     1       5.414   3.819  17.690  0.00  0.00    +0.000 N 
ATOM     30  H   UNL     1       5.235   3.503  16.743  0.00  0.00    +0.000 HD
ENDBRANCH  23  29
ENDBRANCH  17  23
ENDBRANCH   1  20
TORSDOF 4
ENDMDL
MODEL 9
REMARK VINA RESULT:      -8.1      1.474      1.893
REMARK  Name = 
REMARK  5 active torsions:
REMARK  status: ('A' for Active; 'I' for Inactive)
REMARK    1  A    between atoms: C_1  and  C_2
REMARK    2  A    between atoms: N_4  and  S_5
REMARK    3  A    between atoms: S_5  and  C_8
REMARK    4  A    between atoms: C_11  and  N_12
REMARK    5  A    between atoms: C_13  and  C_15
REMARK                            x       y       z     vdW  Elec       q    Type
REMARK                         _______ _______ _______ _____ _____    ______ ____
ROOT
ATOM      1  N   UNL     1       1.355   8.568  18.562  0.00  0.00    +0.000 N 
ATOM      2  C   UNL     1       1.414   9.940  18.369  0.00  0.00    +0.000 C 
ATOM      3  O   UNL     1       2.339  10.590  17.905  0.00  0.00    +0.000 OA
ATOM      4  H   UNL     1       0.450   8.168  18.787  0.00  0.00    +0.000 HD
ENDROOT
BRANCH   2   5
ATOM      5  C   UNL     1       0.191  10.672  18.787  0.00  0.00    +0.000 A 
ATOM      6  C   UNL     1      -1.018  10.489  18.100  0.00  0.00    +0.000 A 
ATOM      7  C   UNL     1      -2.184  11.135  18.542  0.00  0.00    +0.000 A 
ATOM      8  C   UNL     1      -2.127  11.992  19.643  0.00  0.00    +0.000 A 
ATOM      9  C   UNL     1      -0.879  12.265  20.213  0.00  0.00    +0.000 A 
ATOM     10  C   UNL     1       0.270  11.594  19.829  0.00  0.00    +0.000 A 
ATOM     11  N   UNL     1      -0.774  13.271  21.203  0.00  0.00    +0.000 N 
ATOM     12  C   UNL     1      -1.557  12.974  22.306  0.00  0.00    +0.000 C 
ATOM     13  O   UNL     1      -1.066  12.679  23.391  0.00  0.00    +0.000 OA
ATOM     14  C   UNL     1      -3.054  13.098  22.074  0.00  0.00    +0.000 C 
ATOM     15  S   UNL     1      -3.594  12.735  20.342  0.00  0.00    +0.000 S 
ATOM     16  H   UNL     1      -1.200  14.100  20.786  0.00  0.00    +0.000 HD
ENDBRANCH   2   5
BRANCH   1  20
ATOM     17  C   UNL     1       4.558   5.837  18.435  0.00  0.00    +0.000 A 
ATOM     18  C   UNL     1       4.433   6.785  17.420  0.00  0.00    +0.000 A 
ATOM     19  C   UNL     1       3.373   7.689  17.442  0.00  0.00    +0.000 A 
ATOM     20  C   UNL     1       2.422   7.651  18.466  0.00  0.00    +0.000 A 
ATOM     21  C   UNL     1       2.547   6.680  19.474  0.00  0.00    +0.000 A 
ATOM     22  C   UNL     1       3.607   5.767  19.454  0.00  0.00    +0.000 A 
BRANCH  17  23
ATOM     23  S   UNL     1       5.907   4.688  18.387  0.00  0.00    +0.000 S 
ATOM     24  O   UNL     1       5.546   3.554  19.217  0.00  0.00    +0.000 OA
ATOM     25  O   UNL     1       7.142   5.397  18.610  0.00  0.00    +0.000 OA
BRANCH  23  29
ATOM     26  C   UNL     1       6.384   3.899  14.463  0.00  0.00    +0.000 C 
ATOM     27  C   UNL     1       6.587   4.639  15.757  0.00  0.00    +0.000 C 
ATOM     28  O   UNL     1       7.304   5.623  15.840  0.00  0.00    +0.000 OA
ATOM     29  N   UNL     1       5.858   4.115  16.831  0.00  0.00    +0.000 N 
ATOM     30  H   UNL     1       5.252   3.309  16.720  0.00  0.00    +0.000 HD
ENDBRANCH  23  29
ENDBRANCH  17  23
ENDBRANCH   1  20
TORSDOF 4
ENDMDL
