MODEL 1
REMARK VINA RESULT:      -7.3      0.000      0.000
REMARK  Name = 
REMARK  3 active torsions:
REMARK  status: ('A' for Active; 'I' for Inactive)
REMARK    1  A    between atoms: C_5  and  C_6
REMARK    2  A    between atoms: C_6  and  S_7
REMARK    3  A    between atoms: S_7  and  C_8
REMARK                            x       y       z     vdW  Elec       q    Type
REMARK                         _______ _______ _______ _____ _____    ______ ____
ROOT
ATOM      1  C   UNL     1       5.459   4.260  18.134  0.00  0.00    +0.000 A 
ATOM      2  N   UNL     1       5.954   4.699  19.313  0.00  0.00    +0.000 NA
ATOM      3  C   UNL     1       6.981   5.579  19.270  0.00  0.00    +0.000 A 
ATOM      4  N   UNL     1       7.596   6.094  18.187  0.00  0.00    +0.000 NA
ATOM      5  C   UNL     1       7.064   5.618  17.054  0.00  0.00    +0.000 A 
ATOM      6  N   UNL     1       7.437   5.925  15.777  0.00  0.00    +0.000 N 
ATOM      7  N   UNL     1       6.716   5.283  14.832  0.00  0.00    +0.000 NA
ATOM      8  C   UNL     1       5.855   4.551  15.550  0.00  0.00    +0.000 A 
ATOM      9  C   UNL     1       6.022   4.719  16.942  0.00  0.00    +0.000 A 
ATOM     10  H   UNL     1       8.169   6.561  15.488  0.00  0.00    +0.000 HD
ENDROOT
BRANCH   1  11
ATOM     11  S   UNL     1       4.103   3.135  18.032  0.00  0.00    +0.000 S 
BRANCH  11  12
ATOM     12  C   UNL     1       2.750   4.207  17.437  0.00  0.00    +0.000 C 
BRANCH  12  17
ATOM     13 CL   UNL     1       1.409   8.487  21.494  0.00  0.00    +0.000 Cl
ATOM     14  C   UNL     1       1.807   7.271  20.344  0.00  0.00    +0.000 A 
ATOM     15  C   UNL     1       1.673   5.928  20.686  0.00  0.00    +0.000 A 
ATOM     16  C   UNL     1       1.995   4.939  19.751  0.00  0.00    +0.000 A 
ATOM     17  C   UNL     1       2.438   5.283  18.461  0.00  0.00    +0.000 A 
ATOM     18  C   UNL     1       2.573   6.643  18.140  0.00  0.00    +0.000 A 
ATOM     19  C   UNL     1       2.262   7.632  19.079  0.00  0.00    +0.000 A 
ENDBRANCH  12  17
ENDBRANCH  11  12
ENDBRANCH   1  11
TORSDOF 3
ENDMDL
MODEL 2
REMARK VINA RESULT:      -7.2      0.234      1.162
REMARK  Name = 
REMARK  3 active torsions:
REMARK  status: ('A' for Active; 'I' for Inactive)
REMARK    1  A    between atoms: C_5  and  C_6
REMARK    2  A    between atoms: C_6  and  S_7
REMARK    3  A    between atoms: S_7  and  C_8
REMARK                            x       y       z     vdW  Elec       q    Type
REMARK                         _______ _______ _______ _____ _____    ______ ____
ROOT
ATOM      1  C   UNL     1       5.431   4.153  18.173  0.00  0.00    +0.000 A 
ATOM      2  N   UNL     1       5.908   4.732  19.298  0.00  0.00    +0.000 NA
ATOM      3  C   UNL     1       6.939   5.597  19.166  0.00  0.00    +0.000 A 
ATOM      4  N   UNL     1       7.575   5.975  18.039  0.00  0.00    +0.000 NA
ATOM      5  C   UNL     1       7.060   5.365  16.963  0.00  0.00    +0.000 A 
ATOM      6  N   UNL     1       7.456   5.513  15.665  0.00  0.00    +0.000 N 
ATOM      7  N   UNL     1       6.749   4.763  14.793  0.00  0.00    +0.000 NA
ATOM      8  C   UNL     1       5.872   4.126  15.580  0.00  0.00    +0.000 A 
ATOM      9  C   UNL     1       6.016   4.461  16.944  0.00  0.00    +0.000 A 
ATOM     10  H   UNL     1       8.196   6.108  15.314  0.00  0.00    +0.000 HD
ENDROOT
BRANCH   1  11
ATOM     11  S   UNL     1       4.072   3.028  18.184  0.00  0.00    +0.000 S 
BRANCH  11  12
ATOM     12  C   UNL     1       2.709   4.053  17.534  0.00  0.00    +0.000 C 
BRANCH  12  17
ATOM     13 CL   UNL     1       1.488   8.520  21.424  0.00  0.00    +0.000 Cl
ATOM     14  C   UNL     1       1.819   7.248  20.313  0.00  0.00    +0.000 A 
ATOM     15  C   UNL     1       2.271   7.551  19.032  0.00  0.00    +0.000 A 
ATOM     16  C   UNL     1       2.540   6.518  18.129  0.00  0.00    +0.000 A 
ATOM     17  C   UNL     1       2.378   5.172  18.504  0.00  0.00    +0.000 A 
ATOM     18  C   UNL     1       1.915   4.889  19.799  0.00  0.00    +0.000 A 
ATOM     19  C   UNL     1       1.634   5.923  20.698  0.00  0.00    +0.000 A 
ENDBRANCH  12  17
ENDBRANCH  11  12
ENDBRANCH   1  11
TORSDOF 3
ENDMDL
MODEL 3
REMARK VINA RESULT:      -7.0      4.053      5.849
REMARK  Name = 
REMARK  3 active torsions:
REMARK  status: ('A' for Active; 'I' for Inactive)
REMARK    1  A    between atoms: C_5  and  C_6
REMARK    2  A    between atoms: C_6  and  S_7
REMARK    3  A    between atoms: S_7  and  C_8
REMARK                            x       y       z     vdW  Elec       q    Type
REMARK                         _______ _______ _______ _____ _____    ______ ____
ROOT
ATOM      1  C   UNL     1       2.596   4.738  19.846  0.00  0.00    +0.000 A 
ATOM      2  N   UNL     1       2.270   4.618  21.153  0.00  0.00    +0.000 NA
ATOM      3  C   UNL     1       1.764   3.432  21.564  0.00  0.00    +0.000 A 
ATOM      4  N   UNL     1       1.534   2.323  20.834  0.00  0.00    +0.000 NA
ATOM      5  C   UNL     1       1.873   2.507  19.551  0.00  0.00    +0.000 A 
ATOM      6  N   UNL     1       1.777   1.599  18.536  0.00  0.00    +0.000 N 
ATOM      7  N   UNL     1       2.194   2.073  17.342  0.00  0.00    +0.000 NA
ATOM      8  C   UNL     1       2.569   3.327  17.626  0.00  0.00    +0.000 A 
ATOM      9  C   UNL     1       2.395   3.655  18.989  0.00  0.00    +0.000 A 
ATOM     10  H   UNL     1       1.440   0.647  18.595  0.00  0.00    +0.000 HD
ENDROOT
BRANCH   1  11
ATOM     11  S   UNL     1       3.292   6.212  19.171  0.00  0.00    +0.000 S 
BRANCH  11  12
ATOM     12  C   UNL     1       5.080   5.838  19.176  0.00  0.00    +0.000 C 
BRANCH  12  17
ATOM     13 CL   UNL     1       6.940   4.617  13.553  0.00  0.00    +0.000 Cl
ATOM     14  C   UNL     1       6.423   4.977  15.154  0.00  0.00    +0.000 A 
ATOM     15  C   UNL     1       5.346   5.835  15.355  0.00  0.00    +0.000 A 
ATOM     16  C   UNL     1       4.924   6.127  16.656  0.00  0.00    +0.000 A 
ATOM     17  C   UNL     1       5.564   5.549  17.767  0.00  0.00    +0.000 A 
ATOM     18  C   UNL     1       6.653   4.692  17.543  0.00  0.00    +0.000 A 
ATOM     19  C   UNL     1       7.082   4.410  16.241  0.00  0.00    +0.000 A 
ENDBRANCH  12  17
ENDBRANCH  11  12
ENDBRANCH   1  11
TORSDOF 3
ENDMDL
MODEL 4
REMARK VINA RESULT:      -6.9      2.147      3.305
REMARK  Name = 
REMARK  3 active torsions:
REMARK  status: ('A' for Active; 'I' for Inactive)
REMARK    1  A    between atoms: C_5  and  C_6
REMARK    2  A    between atoms: C_6  and  S_7
REMARK    3  A    between atoms: S_7  and  C_8
REMARK                            x       y       z     vdW  Elec       q    Type
REMARK                         _______ _______ _______ _____ _____    ______ ____
ROOT
ATOM      1  C   UNL     1       5.182   6.139  16.996  0.00  0.00    +0.000 A 
ATOM      2  N   UNL     1       5.067   5.883  15.673  0.00  0.00    +0.000 NA
ATOM      3  C   UNL     1       6.017   5.107  15.102  0.00  0.00    +0.000 A 
ATOM      4  N   UNL     1       7.092   4.538  15.683  0.00  0.00    +0.000 NA
ATOM      5  C   UNL     1       7.152   4.832  16.988  0.00  0.00    +0.000 A 
ATOM      6  N   UNL     1       8.100   4.424  17.882  0.00  0.00    +0.000 N 
ATOM      7  N   UNL     1       7.898   4.884  19.135  0.00  0.00    +0.000 NA
ATOM      8  C   UNL     1       6.775   5.604  19.019  0.00  0.00    +0.000 A 
ATOM      9  C   UNL     1       6.261   5.608  17.704  0.00  0.00    +0.000 A 
ATOM     10  H   UNL     1       8.901   3.833  17.698  0.00  0.00    +0.000 HD
ENDROOT
BRANCH   1  11
ATOM     11  S   UNL     1       4.005   7.108  17.883  0.00  0.00    +0.000 S 
BRANCH  11  12
ATOM     12  C   UNL     1       2.444   6.216  17.564  0.00  0.00    +0.000 C 
BRANCH  12  17
ATOM     13 CL   UNL     1       1.344   2.334  22.069  0.00  0.00    +0.000 Cl
ATOM     14  C   UNL     1       1.641   3.445  20.789  0.00  0.00    +0.000 A 
ATOM     15  C   UNL     1       2.303   4.640  21.053  0.00  0.00    +0.000 A 
ATOM     16  C   UNL     1       2.545   5.543  20.013  0.00  0.00    +0.000 A 
ATOM     17  C   UNL     1       2.145   5.251  18.697  0.00  0.00    +0.000 A 
ATOM     18  C   UNL     1       1.472   4.043  18.454  0.00  0.00    +0.000 A 
ATOM     19  C   UNL     1       1.219   3.146  19.497  0.00  0.00    +0.000 A 
ENDBRANCH  12  17
ENDBRANCH  11  12
ENDBRANCH   1  11
TORSDOF 3
ENDMDL
MODEL 5
REMARK VINA RESULT:      -6.8      2.114      3.271
REMARK  Name = 
REMARK  3 active torsions:
REMARK  status: ('A' for Active; 'I' for Inactive)
REMARK    1  A    between atoms: C_5  and  C_6
REMARK    2  A    between atoms: C_6  and  S_7
REMARK    3  A    between atoms: S_7  and  C_8
REMARK                            x       y       z     vdW  Elec       q    Type
REMARK                         _______ _______ _______ _____ _____    ______ ____
ROOT
ATOM      1  C   UNL     1       5.235   6.244  16.878  0.00  0.00    +0.000 A 
ATOM      2  N   UNL     1       5.046   5.928  15.578  0.00  0.00    +0.000 NA
ATOM      3  C   UNL     1       5.900   5.037  15.021  0.00  0.00    +0.000 A 
ATOM      4  N   UNL     1       6.939   4.403  15.598  0.00  0.00    +0.000 NA
ATOM      5  C   UNL     1       7.075   4.760  16.882  0.00  0.00    +0.000 A 
ATOM      6  N   UNL     1       8.015   4.314  17.766  0.00  0.00    +0.000 N 
ATOM      7  N   UNL     1       7.904   4.859  18.997  0.00  0.00    +0.000 NA
ATOM      8  C   UNL     1       6.848   5.673  18.876  0.00  0.00    +0.000 A 
ATOM      9  C   UNL     1       6.287   5.654  17.581  0.00  0.00    +0.000 A 
ATOM     10  H   UNL     1       8.752   3.643  17.590  0.00  0.00    +0.000 HD
ENDROOT
BRANCH   1  11
ATOM     11  S   UNL     1       4.185   7.366  17.746  0.00  0.00    +0.000 S 
BRANCH  11  12
ATOM     12  C   UNL     1       2.536   6.618  17.514  0.00  0.00    +0.000 C 
BRANCH  12  17
ATOM     13 CL   UNL     1       1.394   2.462  21.756  0.00  0.00    +0.000 Cl
ATOM     14  C   UNL     1       1.736   3.641  20.550  0.00  0.00    +0.000 A 
ATOM     15  C   UNL     1       1.583   3.316  19.205  0.00  0.00    +0.000 A 
ATOM     16  C   UNL     1       1.860   4.274  18.224  0.00  0.00    +0.000 A 
ATOM     17  C   UNL     1       2.274   5.570  18.580  0.00  0.00    +0.000 A 
ATOM     18  C   UNL     1       2.428   5.875  19.942  0.00  0.00    +0.000 A 
ATOM     19  C   UNL     1       2.163   4.913  20.922  0.00  0.00    +0.000 A 
ENDBRANCH  12  17
ENDBRANCH  11  12
ENDBRANCH   1  11
TORSDOF 3
ENDMDL
MODEL 6
REMARK VINA RESULT:      -6.8      4.071      5.738
REMARK  Name = 
REMARK  3 active torsions:
REMARK  status: ('A' for Active; 'I' for Inactive)
REMARK    1  A    between atoms: C_5  and  C_6
REMARK    2  A    between atoms: C_6  and  S_7
REMARK    3  A    between atoms: S_7  and  C_8
REMARK                            x       y       z     vdW  Elec       q    Type
REMARK                         _______ _______ _______ _____ _____    ______ ____
ROOT
ATOM      1  C   UNL     1       2.469   4.820  19.811  0.00  0.00    +0.000 A 
ATOM      2  N   UNL     1       2.263   4.704  21.142  0.00  0.00    +0.000 NA
ATOM      3  C   UNL     1       1.884   3.493  21.612  0.00  0.00    +0.000 A 
ATOM      4  N   UNL     1       1.679   2.354  20.921  0.00  0.00    +0.000 NA
ATOM      5  C   UNL     1       1.896   2.536  19.611  0.00  0.00    +0.000 A 
ATOM      6  N   UNL     1       1.785   1.602  18.622  0.00  0.00    +0.000 N 
ATOM      7  N   UNL     1       2.064   2.080  17.390  0.00  0.00    +0.000 NA
ATOM      8  C   UNL     1       2.366   3.364  17.623  0.00  0.00    +0.000 A 
ATOM      9  C   UNL     1       2.281   3.708  18.989  0.00  0.00    +0.000 A 
ATOM     10  H   UNL     1       1.527   0.628  18.723  0.00  0.00    +0.000 HD
ENDROOT
BRANCH   1  11
ATOM     11  S   UNL     1       2.994   6.327  19.057  0.00  0.00    +0.000 S 
BRANCH  11  12
ATOM     12  C   UNL     1       4.804   6.108  18.962  0.00  0.00    +0.000 C 
BRANCH  12  17
ATOM     13 CL   UNL     1       6.499   4.193  13.482  0.00  0.00    +0.000 Cl
ATOM     14  C   UNL     1       6.001   4.731  15.038  0.00  0.00    +0.000 A 
ATOM     15  C   UNL     1       6.284   3.957  16.160  0.00  0.00    +0.000 A 
ATOM     16  C   UNL     1       5.880   4.394  17.425  0.00  0.00    +0.000 A 
ATOM     17  C   UNL     1       5.206   5.618  17.583  0.00  0.00    +0.000 A 
ATOM     18  C   UNL     1       4.924   6.381  16.438  0.00  0.00    +0.000 A 
ATOM     19  C   UNL     1       5.318   5.937  15.171  0.00  0.00    +0.000 A 
ENDBRANCH  12  17
ENDBRANCH  11  12
ENDBRANCH   1  11
TORSDOF 3
ENDMDL
MODEL 7
REMARK VINA RESULT:      -6.7      3.458      5.238
REMARK  Name = 
REMARK  3 active torsions:
REMARK  status: ('A' for Active; 'I' for Inactive)
REMARK    1  A    between atoms: C_5  and  C_6
REMARK    2  A    between atoms: C_6  and  S_7
REMARK    3  A    between atoms: S_7  and  C_8
REMARK                            x       y       z     vdW  Elec       q    Type
REMARK                         _______ _______ _______ _____ _____    ______ ____
ROOT
ATOM      1  C   UNL     1       2.762   3.857  18.779  0.00  0.00    +0.000 A 
ATOM      2  N   UNL     1       2.734   2.778  19.593  0.00  0.00    +0.000 NA
ATOM      3  C   UNL     1       2.458   2.989  20.901  0.00  0.00    +0.000 A 
ATOM      4  N   UNL     1       2.199   4.156  21.523  0.00  0.00    +0.000 NA
ATOM      5  C   UNL     1       2.246   5.184  20.666  0.00  0.00    +0.000 A 
ATOM      6  N   UNL     1       2.032   6.502  20.949  0.00  0.00    +0.000 N 
ATOM      7  N   UNL     1       2.151   7.314  19.876  0.00  0.00    +0.000 NA
ATOM      8  C   UNL     1       2.445   6.466  18.883  0.00  0.00    +0.000 A 
ATOM      9  C   UNL     1       2.516   5.123  19.312  0.00  0.00    +0.000 A 
ATOM     10  H   UNL     1       1.802   6.907  21.848  0.00  0.00    +0.000 HD
ENDROOT
BRANCH   1  11
ATOM     11  S   UNL     1       3.079   3.735  17.048  0.00  0.00    +0.000 S 
BRANCH  11  12
ATOM     12  C   UNL     1       4.868   3.376  17.001  0.00  0.00    +0.000 C 
BRANCH  12  17
ATOM     13 CL   UNL     1       8.018   8.467  17.855  0.00  0.00    +0.000 Cl
ATOM     14  C   UNL     1       7.129   7.016  17.597  0.00  0.00    +0.000 A 
ATOM     15  C   UNL     1       7.573   5.825  18.164  0.00  0.00    +0.000 A 
ATOM     16  C   UNL     1       6.852   4.646  17.955  0.00  0.00    +0.000 A 
ATOM     17  C   UNL     1       5.670   4.650  17.193  0.00  0.00    +0.000 A 
ATOM     18  C   UNL     1       5.243   5.861  16.624  0.00  0.00    +0.000 A 
ATOM     19  C   UNL     1       5.972   7.038  16.823  0.00  0.00    +0.000 A 
ENDBRANCH  12  17
ENDBRANCH  11  12
ENDBRANCH   1  11
TORSDOF 3
ENDMDL
MODEL 8
REMARK VINA RESULT:      -6.7      1.225      1.759
REMARK  Name = 
REMARK  3 active torsions:
REMARK  status: ('A' for Active; 'I' for Inactive)
REMARK    1  A    between atoms: C_5  and  C_6
REMARK    2  A    between atoms: C_6  and  S_7
REMARK    3  A    between atoms: S_7  and  C_8
REMARK                            x       y       z     vdW  Elec       q    Type
REMARK                         _______ _______ _______ _____ _____    ______ ____
ROOT
ATOM      1  C   UNL     1       5.233   4.719  18.112  0.00  0.00    +0.000 A 
ATOM      2  N   UNL     1       5.963   4.948  19.227  0.00  0.00    +0.000 NA
ATOM      3  C   UNL     1       7.212   5.441  19.066  0.00  0.00    +0.000 A 
ATOM      4  N   UNL     1       7.850   5.745  17.918  0.00  0.00    +0.000 NA
ATOM      5  C   UNL     1       7.078   5.493  16.852  0.00  0.00    +0.000 A 
ATOM      6  N   UNL     1       7.400   5.685  15.539  0.00  0.00    +0.000 N 
ATOM      7  N   UNL     1       6.416   5.335  14.683  0.00  0.00    +0.000 NA
ATOM      8  C   UNL     1       5.439   4.913  15.496  0.00  0.00    +0.000 A 
ATOM      9  C   UNL     1       5.792   4.990  16.861  0.00  0.00    +0.000 A 
ATOM     10  H   UNL     1       8.267   6.049  15.168  0.00  0.00    +0.000 HD
ENDROOT
BRANCH   1  11
ATOM     11  S   UNL     1       3.580   4.106  18.165  0.00  0.00    +0.000 S 
BRANCH  11  12
ATOM     12  C   UNL     1       2.928   4.873  19.688  0.00  0.00    +0.000 C 
BRANCH  12  17
ATOM     13 CL   UNL     1       1.163  10.552  18.588  0.00  0.00    +0.000 Cl
ATOM     14  C   UNL     1       1.649   8.930  18.900  0.00  0.00    +0.000 A 
ATOM     15  C   UNL     1       2.158   8.152  17.864  0.00  0.00    +0.000 A 
ATOM     16  C   UNL     1       2.554   6.835  18.117  0.00  0.00    +0.000 A 
ATOM     17  C   UNL     1       2.461   6.290  19.410  0.00  0.00    +0.000 A 
ATOM     18  C   UNL     1       1.938   7.090  20.439  0.00  0.00    +0.000 A 
ATOM     19  C   UNL     1       1.531   8.404  20.183  0.00  0.00    +0.000 A 
ENDBRANCH  12  17
ENDBRANCH  11  12
ENDBRANCH   1  11
TORSDOF 3
ENDMDL
MODEL 9
REMARK VINA RESULT:      -6.7      3.509      5.313
REMARK  Name = 
REMARK  3 active torsions:
REMARK  status: ('A' for Active; 'I' for Inactive)
REMARK    1  A    between atoms: C_5  and  C_6
REMARK    2  A    between atoms: C_6  and  S_7
REMARK    3  A    between atoms: S_7  and  C_8
REMARK                            x       y       z     vdW  Elec       q    Type
REMARK                         _______ _______ _______ _____ _____    ______ ____
ROOT
ATOM      1  C   UNL     1       2.572   3.620  18.891  0.00  0.00    +0.000 A 
ATOM      2  N   UNL     1       2.513   2.559  19.728  0.00  0.00    +0.000 NA
ATOM      3  C   UNL     1       2.265   2.808  21.035  0.00  0.00    +0.000 A 
ATOM      4  N   UNL     1       2.062   3.997  21.636  0.00  0.00    +0.000 NA
ATOM      5  C   UNL     1       2.137   5.005  20.756  0.00  0.00    +0.000 A 
ATOM      6  N   UNL     1       1.979   6.336  21.015  0.00  0.00    +0.000 N 
ATOM      7  N   UNL     1       2.114   7.120  19.924  0.00  0.00    +0.000 NA
ATOM      8  C   UNL     1       2.360   6.241  18.944  0.00  0.00    +0.000 A 
ATOM      9  C   UNL     1       2.384   4.905  19.401  0.00  0.00    +0.000 A 
ATOM     10  H   UNL     1       1.779   6.768  21.908  0.00  0.00    +0.000 HD
ENDROOT
BRANCH   1  11
ATOM     11  S   UNL     1       2.858   3.449  17.158  0.00  0.00    +0.000 S 
BRANCH  11  12
ATOM     12  C   UNL     1       4.660   3.167  17.085  0.00  0.00    +0.000 C 
BRANCH  12  17
ATOM     13 CL   UNL     1       7.699   8.373  17.566  0.00  0.00    +0.000 Cl
ATOM     14  C   UNL     1       6.825   6.896  17.443  0.00  0.00    +0.000 A 
ATOM     15  C   UNL     1       5.785   6.785  16.524  0.00  0.00    +0.000 A 
ATOM     16  C   UNL     1       5.074   5.585  16.423  0.00  0.00    +0.000 A 
ATOM     17  C   UNL     1       5.409   4.479  17.225  0.00  0.00    +0.000 A 
ATOM     18  C   UNL     1       6.456   4.615  18.150  0.00  0.00    +0.000 A 
ATOM     19  C   UNL     1       7.159   5.820  18.259  0.00  0.00    +0.000 A 
ENDBRANCH  12  17
ENDBRANCH  11  12
ENDBRANCH   1  11
TORSDOF 3
ENDMDL
