MODEL 1
REMARK VINA RESULT:      -8.2      0.000      0.000
REMARK  Name = 
REMARK  7 active torsions:
REMARK  status: ('A' for Active; 'I' for Inactive)
REMARK    1  A    between atoms: C_1  and  C_2
REMARK    2  A    between atoms: C_6  and  C_7
REMARK    3  A    between atoms: C_7  and  C_8
REMARK    4  A    between atoms: C_8  and  C_9
REMARK    5  A    between atoms: N_15  and  S_16
REMARK    6  A    between atoms: S_16  and  C_19
REMARK    7  A    between atoms: C_27  and  C_28
REMARK                            x       y       z     vdW  Elec       q    Type
REMARK                         _______ _______ _______ _____ _____    ______ ____
ROOT
ATOM      1  C   UNL     1       1.244   9.804  19.038  0.00  0.00    +0.000 C 
ATOM      2  C   UNL     1       2.081   8.571  18.824  0.00  0.00    +0.000 A 
ATOM      3  C   UNL     1       2.839   8.460  17.644  0.00  0.00    +0.000 A 
ATOM      4  C   UNL     1       3.592   7.300  17.405  0.00  0.00    +0.000 A 
ATOM      5  N   UNL     1       4.390   6.996  16.335  0.00  0.00    +0.000 NA
ATOM      6  C   UNL     1       4.853   5.775  16.545  0.00  0.00    +0.000 A 
ATOM      7  N   UNL     1       4.321   5.278  17.720  0.00  0.00    +0.000 N 
ATOM      8  C   UNL     1       3.584   6.269  18.336  0.00  0.00    +0.000 A 
ATOM      9  C   UNL     1       2.881   6.371  19.544  0.00  0.00    +0.000 A 
ATOM     10  C   UNL     1       2.101   7.524  19.768  0.00  0.00    +0.000 A 
ATOM     11  C   UNL     1       1.263   7.592  21.018  0.00  0.00    +0.000 C 
ENDROOT
BRANCH   7  12
ATOM     12  S   UNL     1       4.515   3.712  18.324  0.00  0.00    +0.000 S 
ATOM     13  O   UNL     1       4.514   2.827  17.174  0.00  0.00    +0.000 OA
ATOM     14  O   UNL     1       5.651   3.765  19.223  0.00  0.00    +0.000 OA
BRANCH  12  15
ATOM     15  C   UNL     1       3.096   3.298  19.299  0.00  0.00    +0.000 A 
ATOM     16  C   UNL     1       1.813   3.164  18.769  0.00  0.00    +0.000 A 
ATOM     17  C   UNL     1       0.744   2.906  19.634  0.00  0.00    +0.000 A 
ATOM     18  C   UNL     1       0.959   2.775  21.009  0.00  0.00    +0.000 A 
ATOM     19  C   UNL     1       2.245   2.881  21.530  0.00  0.00    +0.000 A 
ATOM     20  C   UNL     1       3.317   3.140  20.677  0.00  0.00    +0.000 A 
ENDBRANCH  12  15
ENDBRANCH   7  12
BRANCH   6  21
ATOM     21  C   UNL     1       5.781   5.061  15.597  0.00  0.00    +0.000 C 
BRANCH  21  22
ATOM     22  C   UNL     1       5.228   5.099  14.160  0.00  0.00    +0.000 C 
BRANCH  22  23
ATOM     23  C   UNL     1       5.752   4.078  13.172  0.00  0.00    +0.000 A 
ATOM     24  C   UNL     1       4.824   3.230  12.539  0.00  0.00    +0.000 A 
ATOM     25  C   UNL     1       5.231   2.301  11.581  0.00  0.00    +0.000 A 
ATOM     26  C   UNL     1       6.572   2.212  11.227  0.00  0.00    +0.000 A 
ATOM     27  C   UNL     1       7.503   3.055  11.830  0.00  0.00    +0.000 A 
ATOM     28  C   UNL     1       7.097   3.987  12.793  0.00  0.00    +0.000 A 
ENDBRANCH  22  23
ENDBRANCH  21  22
ENDBRANCH   6  21
TORSDOF 5
ENDMDL
MODEL 2
REMARK VINA RESULT:      -8.2      0.348      1.326
REMARK  Name = 
REMARK  7 active torsions:
REMARK  status: ('A' for Active; 'I' for Inactive)
REMARK    1  A    between atoms: C_1  and  C_2
REMARK    2  A    between atoms: C_6  and  C_7
REMARK    3  A    between atoms: C_7  and  C_8
REMARK    4  A    between atoms: C_8  and  C_9
REMARK    5  A    between atoms: N_15  and  S_16
REMARK    6  A    between atoms: S_16  and  C_19
REMARK    7  A    between atoms: C_27  and  C_28
REMARK                            x       y       z     vdW  Elec       q    Type
REMARK                         _______ _______ _______ _____ _____    ______ ____
ROOT
ATOM      1  C   UNL     1       1.429   9.756  18.691  0.00  0.00    +0.000 C 
ATOM      2  C   UNL     1       2.226   8.481  18.600  0.00  0.00    +0.000 A 
ATOM      3  C   UNL     1       3.013   8.252  17.458  0.00  0.00    +0.000 A 
ATOM      4  C   UNL     1       3.729   7.051  17.335  0.00  0.00    +0.000 A 
ATOM      5  N   UNL     1       4.547   6.636  16.318  0.00  0.00    +0.000 NA
ATOM      6  C   UNL     1       4.958   5.419  16.637  0.00  0.00    +0.000 A 
ATOM      7  N   UNL     1       4.373   5.036  17.829  0.00  0.00    +0.000 N 
ATOM      8  C   UNL     1       3.656   6.098  18.342  0.00  0.00    +0.000 A 
ATOM      9  C   UNL     1       2.922   6.319  19.516  0.00  0.00    +0.000 A 
ATOM     10  C   UNL     1       2.180   7.512  19.623  0.00  0.00    +0.000 A 
ATOM     11  C   UNL     1       1.308   7.707  20.838  0.00  0.00    +0.000 C 
ENDROOT
BRANCH   7  12
ATOM     12  S   UNL     1       4.492   3.517  18.559  0.00  0.00    +0.000 S 
ATOM     13  O   UNL     1       4.399   2.541  17.490  0.00  0.00    +0.000 OA
ATOM     14  O   UNL     1       5.658   3.573  19.419  0.00  0.00    +0.000 OA
BRANCH  12  15
ATOM     15  C   UNL     1       3.084   3.276  19.606  0.00  0.00    +0.000 A 
ATOM     16  C   UNL     1       3.170   3.159  20.993  0.00  0.00    +0.000 A 
ATOM     17  C   UNL     1       2.007   2.897  21.726  0.00  0.00    +0.000 A 
ATOM     18  C   UNL     1       0.775   2.765  21.080  0.00  0.00    +0.000 A 
ATOM     19  C   UNL     1       0.690   2.911  19.699  0.00  0.00    +0.000 A 
ATOM     20  C   UNL     1       1.842   3.169  18.958  0.00  0.00    +0.000 A 
ENDBRANCH  12  15
ENDBRANCH   7  12
BRANCH   6  21
ATOM     21  C   UNL     1       5.886   4.601  15.778  0.00  0.00    +0.000 C 
BRANCH  21  22
ATOM     22  C   UNL     1       5.936   5.160  14.343  0.00  0.00    +0.000 C 
BRANCH  22  23
ATOM     23  C   UNL     1       5.929   4.171  13.197  0.00  0.00    +0.000 A 
ATOM     24  C   UNL     1       7.165   3.787  12.644  0.00  0.00    +0.000 A 
ATOM     25  C   UNL     1       7.236   2.842  11.620  0.00  0.00    +0.000 A 
ATOM     26  C   UNL     1       6.073   2.253  11.138  0.00  0.00    +0.000 A 
ATOM     27  C   UNL     1       4.842   2.607  11.685  0.00  0.00    +0.000 A 
ATOM     28  C   UNL     1       4.768   3.557  12.711  0.00  0.00    +0.000 A 
ENDBRANCH  22  23
ENDBRANCH  21  22
ENDBRANCH   6  21
TORSDOF 5
ENDMDL
MODEL 3
REMARK VINA RESULT:      -8.2      1.882      3.430
REMARK  Name = 
REMARK  7 active torsions:
REMARK  status: ('A' for Active; 'I' for Inactive)
REMARK    1  A    between atoms: C_1  and  C_2
REMARK    2  A    between atoms: C_6  and  C_7
REMARK    3  A    between atoms: C_7  and  C_8
REMARK    4  A    between atoms: C_8  and  C_9
REMARK    5  A    between atoms: N_15  and  S_16
REMARK    6  A    between atoms: S_16  and  C_19
REMARK    7  A    between atoms: C_27  and  C_28
REMARK                            x       y       z     vdW  Elec       q    Type
REMARK                         _______ _______ _______ _____ _____    ______ ____
ROOT
ATOM      1  C   UNL     1       1.383   9.660  19.243  0.00  0.00    +0.000 C 
ATOM      2  C   UNL     1       2.127   8.376  18.990  0.00  0.00    +0.000 A 
ATOM      3  C   UNL     1       2.819   8.219  17.775  0.00  0.00    +0.000 A 
ATOM      4  C   UNL     1       3.483   7.013  17.502  0.00  0.00    +0.000 A 
ATOM      5  N   UNL     1       4.207   6.661  16.394  0.00  0.00    +0.000 NA
ATOM      6  C   UNL     1       4.601   5.412  16.583  0.00  0.00    +0.000 A 
ATOM      7  N   UNL     1       4.094   4.948  17.783  0.00  0.00    +0.000 N 
ATOM      8  C   UNL     1       3.453   5.983  18.433  0.00  0.00    +0.000 A 
ATOM      9  C   UNL     1       2.817   6.128  19.673  0.00  0.00    +0.000 A 
ATOM     10  C   UNL     1       2.125   7.328  19.933  0.00  0.00    +0.000 A 
ATOM     11  C   UNL     1       1.354   7.446  21.222  0.00  0.00    +0.000 C 
ENDROOT
BRANCH   7  12
ATOM     12  S   UNL     1       4.216   3.371  18.378  0.00  0.00    +0.000 S 
ATOM     13  O   UNL     1       4.031   2.489  17.241  0.00  0.00    +0.000 OA
ATOM     14  O   UNL     1       5.434   3.330  19.163  0.00  0.00    +0.000 OA
BRANCH  12  15
ATOM     15  C   UNL     1       2.869   3.076  19.488  0.00  0.00    +0.000 A 
ATOM     16  C   UNL     1       1.538   3.002  19.078  0.00  0.00    +0.000 A 
ATOM     17  C   UNL     1       0.537   2.839  20.042  0.00  0.00    +0.000 A 
ATOM     18  C   UNL     1       0.866   2.741  21.397  0.00  0.00    +0.000 A 
ATOM     19  C   UNL     1       2.197   2.787  21.799  0.00  0.00    +0.000 A 
ATOM     20  C   UNL     1       3.202   2.952  20.847  0.00  0.00    +0.000 A 
ENDBRANCH  12  15
ENDBRANCH   7  12
BRANCH   6  21
ATOM     21  C   UNL     1       5.434   4.641  15.592  0.00  0.00    +0.000 C 
BRANCH  21  22
ATOM     22  C   UNL     1       6.877   5.180  15.558  0.00  0.00    +0.000 C 
BRANCH  22  23
ATOM     23  C   UNL     1       7.413   5.848  16.807  0.00  0.00    +0.000 A 
ATOM     24  C   UNL     1       7.653   7.234  16.765  0.00  0.00    +0.000 A 
ATOM     25  C   UNL     1       8.098   7.925  17.893  0.00  0.00    +0.000 A 
ATOM     26  C   UNL     1       8.300   7.243  19.088  0.00  0.00    +0.000 A 
ATOM     27  C   UNL     1       8.052   5.874  19.152  0.00  0.00    +0.000 A 
ATOM     28  C   UNL     1       7.606   5.180  18.021  0.00  0.00    +0.000 A 
ENDBRANCH  22  23
ENDBRANCH  21  22
ENDBRANCH   6  21
TORSDOF 5
ENDMDL
MODEL 4
REMARK VINA RESULT:      -8.0      0.790      1.535
REMARK  Name = 
REMARK  7 active torsions:
REMARK  status: ('A' for Active; 'I' for Inactive)
REMARK    1  A    between atoms: C_1  and  C_2
REMARK    2  A    between atoms: C_6  and  C_7
REMARK    3  A    between atoms: C_7  and  C_8
REMARK    4  A    between atoms: C_8  and  C_9
REMARK    5  A    between atoms: N_15  and  S_16
REMARK    6  A    between atoms: S_16  and  C_19
REMARK    7  A    between atoms: C_27  and  C_28
REMARK                            x       y       z     vdW  Elec       q    Type
REMARK                         _______ _______ _______ _____ _____    ______ ____
ROOT
ATOM      1  C   UNL     1       0.558  10.045  19.019  0.00  0.00    +0.000 C 
ATOM      2  C   UNL     1       1.542   8.907  18.952  0.00  0.00    +0.000 A 
ATOM      3  C   UNL     1       2.365   8.786  17.818  0.00  0.00    +0.000 A 
ATOM      4  C   UNL     1       3.258   7.708  17.717  0.00  0.00    +0.000 A 
ATOM      5  N   UNL     1       4.138   7.410  16.712  0.00  0.00    +0.000 NA
ATOM      6  C   UNL     1       4.729   6.276  17.052  0.00  0.00    +0.000 A 
ATOM      7  N   UNL     1       4.200   5.824  18.246  0.00  0.00    +0.000 N 
ATOM      8  C   UNL     1       3.324   6.769  18.739  0.00  0.00    +0.000 A 
ATOM      9  C   UNL     1       2.555   6.891  19.904  0.00  0.00    +0.000 A 
ATOM     10  C   UNL     1       1.637   7.957  19.989  0.00  0.00    +0.000 A 
ATOM     11  C   UNL     1       0.736   8.032  21.195  0.00  0.00    +0.000 C 
ENDROOT
BRANCH   7  12
ATOM     12  S   UNL     1       4.544   4.351  18.999  0.00  0.00    +0.000 S 
ATOM     13  O   UNL     1       4.885   3.419  17.941  0.00  0.00    +0.000 OA
ATOM     14  O   UNL     1       5.487   4.651  20.059  0.00  0.00    +0.000 OA
BRANCH  12  15
ATOM     15  C   UNL     1       3.069   3.746  19.768  0.00  0.00    +0.000 A 
ATOM     16  C   UNL     1       2.936   3.576  21.146  0.00  0.00    +0.000 A 
ATOM     17  C   UNL     1       1.755   3.021  21.652  0.00  0.00    +0.000 A 
ATOM     18  C   UNL     1       0.718   2.652  20.790  0.00  0.00    +0.000 A 
ATOM     19  C   UNL     1       0.844   2.850  19.419  0.00  0.00    +0.000 A 
ATOM     20  C   UNL     1       2.018   3.399  18.904  0.00  0.00    +0.000 A 
ENDBRANCH  12  15
ENDBRANCH   7  12
BRANCH   6  21
ATOM     21  C   UNL     1       5.779   5.598  16.210  0.00  0.00    +0.000 C 
BRANCH  21  22
ATOM     22  C   UNL     1       5.146   4.521  15.310  0.00  0.00    +0.000 C 
BRANCH  22  23
ATOM     23  C   UNL     1       5.775   4.271  13.956  0.00  0.00    +0.000 A 
ATOM     24  C   UNL     1       6.995   4.908  13.663  0.00  0.00    +0.000 A 
ATOM     25  C   UNL     1       7.656   4.684  12.455  0.00  0.00    +0.000 A 
ATOM     26  C   UNL     1       7.115   3.807  11.522  0.00  0.00    +0.000 A 
ATOM     27  C   UNL     1       5.917   3.153  11.801  0.00  0.00    +0.000 A 
ATOM     28  C   UNL     1       5.252   3.379  13.012  0.00  0.00    +0.000 A 
ENDBRANCH  22  23
ENDBRANCH  21  22
ENDBRANCH   6  21
TORSDOF 5
ENDMDL
MODEL 5
REMARK VINA RESULT:      -7.8      3.156      4.301
REMARK  Name = 
REMARK  7 active torsions:
REMARK  status: ('A' for Active; 'I' for Inactive)
REMARK    1  A    between atoms: C_1  and  C_2
REMARK    2  A    between atoms: C_6  and  C_7
REMARK    3  A    between atoms: C_7  and  C_8
REMARK    4  A    between atoms: C_8  and  C_9
REMARK    5  A    between atoms: N_15  and  S_16
REMARK    6  A    between atoms: S_16  and  C_19
REMARK    7  A    between atoms: C_27  and  C_28
REMARK                            x       y       z     vdW  Elec       q    Type
REMARK                         _______ _______ _______ _____ _____    ______ ____
ROOT
ATOM      1  C   UNL     1       0.632  11.731  19.057  0.00  0.00    +0.000 C 
ATOM      2  C   UNL     1       1.056  10.303  19.274  0.00  0.00    +0.000 A 
ATOM      3  C   UNL     1       1.766   9.642  18.256  0.00  0.00    +0.000 A 
ATOM      4  C   UNL     1       2.132   8.297  18.422  0.00  0.00    +0.000 A 
ATOM      5  N   UNL     1       2.820   7.480  17.565  0.00  0.00    +0.000 NA
ATOM      6  C   UNL     1       2.883   6.293  18.145  0.00  0.00    +0.000 A 
ATOM      7  N   UNL     1       2.203   6.334  19.348  0.00  0.00    +0.000 N 
ATOM      8  C   UNL     1       1.792   7.629  19.591  0.00  0.00    +0.000 A 
ATOM      9  C   UNL     1       1.131   8.275  20.644  0.00  0.00    +0.000 A 
ATOM     10  C   UNL     1       0.737   9.616  20.463  0.00  0.00    +0.000 A 
ATOM     11  C   UNL     1      -0.064  10.281  21.553  0.00  0.00    +0.000 C 
ENDROOT
BRANCH   7  12
ATOM     12  S   UNL     1       1.897   5.024  20.370  0.00  0.00    +0.000 S 
ATOM     13  O   UNL     1       2.614   5.291  21.603  0.00  0.00    +0.000 OA
ATOM     14  O   UNL     1       0.459   4.839  20.369  0.00  0.00    +0.000 OA
BRANCH  12  15
ATOM     15  C   UNL     1       2.611   3.568  19.660  0.00  0.00    +0.000 A 
ATOM     16  C   UNL     1       3.899   3.122  19.956  0.00  0.00    +0.000 A 
ATOM     17  C   UNL     1       4.400   2.000  19.286  0.00  0.00    +0.000 A 
ATOM     18  C   UNL     1       3.619   1.329  18.341  0.00  0.00    +0.000 A 
ATOM     19  C   UNL     1       2.325   1.761  18.070  0.00  0.00    +0.000 A 
ATOM     20  C   UNL     1       1.816   2.879  18.729  0.00  0.00    +0.000 A 
ENDBRANCH  12  15
ENDBRANCH   7  12
BRANCH   6  21
ATOM     21  C   UNL     1       3.567   5.100  17.530  0.00  0.00    +0.000 C 
BRANCH  21  22
ATOM     22  C   UNL     1       4.785   5.539  16.696  0.00  0.00    +0.000 C 
BRANCH  22  23
ATOM     23  C   UNL     1       5.985   6.096  17.433  0.00  0.00    +0.000 A 
ATOM     24  C   UNL     1       6.533   5.331  18.479  0.00  0.00    +0.000 A 
ATOM     25  C   UNL     1       7.669   5.758  19.168  0.00  0.00    +0.000 A 
ATOM     26  C   UNL     1       8.285   6.953  18.814  0.00  0.00    +0.000 A 
ATOM     27  C   UNL     1       7.767   7.715  17.769  0.00  0.00    +0.000 A 
ATOM     28  C   UNL     1       6.626   7.288  17.079  0.00  0.00    +0.000 A 
ENDBRANCH  22  23
ENDBRANCH  21  22
ENDBRANCH   6  21
TORSDOF 5
ENDMDL
MODEL 6
REMARK VINA RESULT:      -7.7      0.779      1.269
REMARK  Name = 
REMARK  7 active torsions:
REMARK  status: ('A' for Active; 'I' for Inactive)
REMARK    1  A    between atoms: C_1  and  C_2
REMARK    2  A    between atoms: C_6  and  C_7
REMARK    3  A    between atoms: C_7  and  C_8
REMARK    4  A    between atoms: C_8  and  C_9
REMARK    5  A    between atoms: N_15  and  S_16
REMARK    6  A    between atoms: S_16  and  C_19
REMARK    7  A    between atoms: C_27  and  C_28
REMARK                            x       y       z     vdW  Elec       q    Type
REMARK                         _______ _______ _______ _____ _____    ______ ____
ROOT
ATOM      1  C   UNL     1       1.346   9.797  18.346  0.00  0.00    +0.000 C 
ATOM      2  C   UNL     1       2.201   8.563  18.461  0.00  0.00    +0.000 A 
ATOM      3  C   UNL     1       3.174   8.316  17.475  0.00  0.00    +0.000 A 
ATOM      4  C   UNL     1       3.952   7.150  17.540  0.00  0.00    +0.000 A 
ATOM      5  N   UNL     1       4.941   6.726  16.694  0.00  0.00    +0.000 NA
ATOM      6  C   UNL     1       5.348   5.551  17.148  0.00  0.00    +0.000 A 
ATOM      7  N   UNL     1       4.594   5.201  18.252  0.00  0.00    +0.000 N 
ATOM      8  C   UNL     1       3.757   6.249  18.579  0.00  0.00    +0.000 A 
ATOM      9  C   UNL     1       2.833   6.493  19.604  0.00  0.00    +0.000 A 
ATOM     10  C   UNL     1       2.032   7.649  19.520  0.00  0.00    +0.000 A 
ATOM     11  C   UNL     1       0.967   7.861  20.565  0.00  0.00    +0.000 C 
ENDROOT
BRANCH   7  12
ATOM     12  S   UNL     1       4.658   3.731  19.083  0.00  0.00    +0.000 S 
ATOM     13  O   UNL     1       4.943   2.712  18.090  0.00  0.00    +0.000 OA
ATOM     14  O   UNL     1       5.546   3.943  20.209  0.00  0.00    +0.000 OA
BRANCH  12  15
ATOM     15  C   UNL     1       3.054   3.378  19.742  0.00  0.00    +0.000 A 
ATOM     16  C   UNL     1       2.790   3.280  21.108  0.00  0.00    +0.000 A 
ATOM     17  C   UNL     1       1.503   2.925  21.528  0.00  0.00    +0.000 A 
ATOM     18  C   UNL     1       0.493   2.681  20.593  0.00  0.00    +0.000 A 
ATOM     19  C   UNL     1       0.754   2.808  19.232  0.00  0.00    +0.000 A 
ATOM     20  C   UNL     1       2.033   3.158  18.803  0.00  0.00    +0.000 A 
ENDBRANCH  12  15
ENDBRANCH   7  12
BRANCH   6  21
ATOM     21  C   UNL     1       6.438   4.739  16.499  0.00  0.00    +0.000 C 
BRANCH  21  22
ATOM     22  C   UNL     1       6.937   5.425  15.213  0.00  0.00    +0.000 C 
BRANCH  22  23
ATOM     23  C   UNL     1       6.752   4.690  13.902  0.00  0.00    +0.000 A 
ATOM     24  C   UNL     1       5.616   3.872  13.754  0.00  0.00    +0.000 A 
ATOM     25  C   UNL     1       5.355   3.206  12.556  0.00  0.00    +0.000 A 
ATOM     26  C   UNL     1       6.220   3.356  11.478  0.00  0.00    +0.000 A 
ATOM     27  C   UNL     1       7.340   4.175  11.600  0.00  0.00    +0.000 A 
ATOM     28  C   UNL     1       7.604   4.843  12.802  0.00  0.00    +0.000 A 
ENDBRANCH  22  23
ENDBRANCH  21  22
ENDBRANCH   6  21
TORSDOF 5
ENDMDL
MODEL 7
REMARK VINA RESULT:      -7.6      2.569      4.759
REMARK  Name = 
REMARK  7 active torsions:
REMARK  status: ('A' for Active; 'I' for Inactive)
REMARK    1  A    between atoms: C_1  and  C_2
REMARK    2  A    between atoms: C_6  and  C_7
REMARK    3  A    between atoms: C_7  and  C_8
REMARK    4  A    between atoms: C_8  and  C_9
REMARK    5  A    between atoms: N_15  and  S_16
REMARK    6  A    between atoms: S_16  and  C_19
REMARK    7  A    between atoms: C_27  and  C_28
REMARK                            x       y       z     vdW  Elec       q    Type
REMARK                         _______ _______ _______ _____ _____    ______ ____
ROOT
ATOM      1  C   UNL     1       0.732   2.548  18.949  0.00  0.00    +0.000 C 
ATOM      2  C   UNL     1       2.101   3.129  18.712  0.00  0.00    +0.000 A 
ATOM      3  C   UNL     1       2.641   3.091  17.414  0.00  0.00    +0.000 A 
ATOM      4  C   UNL     1       3.933   3.588  17.181  0.00  0.00    +0.000 A 
ATOM      5  N   UNL     1       4.635   3.646  16.007  0.00  0.00    +0.000 NA
ATOM      6  C   UNL     1       5.819   4.158  16.300  0.00  0.00    +0.000 A 
ATOM      7  N   UNL     1       5.895   4.385  17.662  0.00  0.00    +0.000 N 
ATOM      8  C   UNL     1       4.669   4.115  18.234  0.00  0.00    +0.000 A 
ATOM      9  C   UNL     1       4.139   4.216  19.528  0.00  0.00    +0.000 A 
ATOM     10  C   UNL     1       2.854   3.688  19.765  0.00  0.00    +0.000 A 
ATOM     11  C   UNL     1       2.323   3.701  21.176  0.00  0.00    +0.000 C 
ENDROOT
BRANCH   7  12
ATOM     12  S   UNL     1       7.260   4.900  18.516  0.00  0.00    +0.000 S 
ATOM     13  O   UNL     1       6.936   4.766  19.923  0.00  0.00    +0.000 OA
ATOM     14  O   UNL     1       8.386   4.192  17.939  0.00  0.00    +0.000 OA
BRANCH  12  15
ATOM     15  C   UNL     1       7.511   6.624  18.202  0.00  0.00    +0.000 A 
ATOM     16  C   UNL     1       8.530   7.371  18.794  0.00  0.00    +0.000 A 
ATOM     17  C   UNL     1       8.601   8.745  18.539  0.00  0.00    +0.000 A 
ATOM     18  C   UNL     1       7.671   9.360  17.696  0.00  0.00    +0.000 A 
ATOM     19  C   UNL     1       6.674   8.605  17.085  0.00  0.00    +0.000 A 
ATOM     20  C   UNL     1       6.592   7.236  17.335  0.00  0.00    +0.000 A 
ENDBRANCH  12  15
ENDBRANCH   7  12
BRANCH   6  21
ATOM     21  C   UNL     1       6.901   4.395  15.279  0.00  0.00    +0.000 C 
BRANCH  21  22
ATOM     22  C   UNL     1       6.295   4.855  13.940  0.00  0.00    +0.000 C 
BRANCH  22  23
ATOM     23  C   UNL     1       6.010   3.799  12.892  0.00  0.00    +0.000 A 
ATOM     24  C   UNL     1       4.729   3.772  12.310  0.00  0.00    +0.000 A 
ATOM     25  C   UNL     1       4.412   2.860  11.303  0.00  0.00    +0.000 A 
ATOM     26  C   UNL     1       5.375   1.967  10.849  0.00  0.00    +0.000 A 
ATOM     27  C   UNL     1       6.654   1.990  11.401  0.00  0.00    +0.000 A 
ATOM     28  C   UNL     1       6.973   2.904  12.413  0.00  0.00    +0.000 A 
ENDBRANCH  22  23
ENDBRANCH  21  22
ENDBRANCH   6  21
TORSDOF 5
ENDMDL
MODEL 8
REMARK VINA RESULT:      -7.5      1.523      7.011
REMARK  Name = 
REMARK  7 active torsions:
REMARK  status: ('A' for Active; 'I' for Inactive)
REMARK    1  A    between atoms: C_1  and  C_2
REMARK    2  A    between atoms: C_6  and  C_7
REMARK    3  A    between atoms: C_7  and  C_8
REMARK    4  A    between atoms: C_8  and  C_9
REMARK    5  A    between atoms: N_15  and  S_16
REMARK    6  A    between atoms: S_16  and  C_19
REMARK    7  A    between atoms: C_27  and  C_28
REMARK                            x       y       z     vdW  Elec       q    Type
REMARK                         _______ _______ _______ _____ _____    ______ ____
ROOT
ATOM      1  C   UNL     1       8.084   5.453  14.087  0.00  0.00    +0.000 C 
ATOM      2  C   UNL     1       6.784   5.267  14.823  0.00  0.00    +0.000 A 
ATOM      3  C   UNL     1       6.460   6.155  15.865  0.00  0.00    +0.000 A 
ATOM      4  C   UNL     1       5.273   5.972  16.592  0.00  0.00    +0.000 A 
ATOM      5  N   UNL     1       4.776   6.715  17.630  0.00  0.00    +0.000 NA
ATOM      6  C   UNL     1       3.654   6.127  18.011  0.00  0.00    +0.000 A 
ATOM      7  N   UNL     1       3.453   4.988  17.253  0.00  0.00    +0.000 N 
ATOM      8  C   UNL     1       4.427   4.917  16.277  0.00  0.00    +0.000 A 
ATOM      9  C   UNL     1       4.696   4.048  15.211  0.00  0.00    +0.000 A 
ATOM     10  C   UNL     1       5.903   4.215  14.503  0.00  0.00    +0.000 A 
ATOM     11  C   UNL     1       6.243   3.219  13.424  0.00  0.00    +0.000 C 
ENDROOT
BRANCH   7  12
ATOM     12  S   UNL     1       2.229   3.844  17.471  0.00  0.00    +0.000 S 
ATOM     13  O   UNL     1       0.976   4.535  17.238  0.00  0.00    +0.000 OA
ATOM     14  O   UNL     1       2.606   2.694  16.672  0.00  0.00    +0.000 OA
BRANCH  12  15
ATOM     15  C   UNL     1       2.229   3.325  19.164  0.00  0.00    +0.000 A 
ATOM     16  C   UNL     1       1.132   3.474  20.012  0.00  0.00    +0.000 A 
ATOM     17  C   UNL     1       1.256   3.100  21.355  0.00  0.00    +0.000 A 
ATOM     18  C   UNL     1       2.458   2.574  21.838  0.00  0.00    +0.000 A 
ATOM     19  C   UNL     1       3.540   2.400  20.981  0.00  0.00    +0.000 A 
ATOM     20  C   UNL     1       3.429   2.772  19.642  0.00  0.00    +0.000 A 
ENDBRANCH  12  15
ENDBRANCH   7  12
BRANCH   6  21
ATOM     21  C   UNL     1       2.786   6.635  19.132  0.00  0.00    +0.000 C 
BRANCH  21  22
ATOM     22  C   UNL     1       2.313   8.073  18.847  0.00  0.00    +0.000 C 
BRANCH  22  23
ATOM     23  C   UNL     1       1.339   8.704  19.819  0.00  0.00    +0.000 A 
ATOM     24  C   UNL     1       1.343   8.250  21.151  0.00  0.00    +0.000 A 
ATOM     25  C   UNL     1       0.508   8.820  22.113  0.00  0.00    +0.000 A 
ATOM     26  C   UNL     1      -0.338   9.866  21.762  0.00  0.00    +0.000 A 
ATOM     27  C   UNL     1      -0.344  10.341  20.453  0.00  0.00    +0.000 A 
ATOM     28  C   UNL     1       0.492   9.768  19.487  0.00  0.00    +0.000 A 
ENDBRANCH  22  23
ENDBRANCH  21  22
ENDBRANCH   6  21
TORSDOF 5
ENDMDL
MODEL 9
REMARK VINA RESULT:      -7.5      4.825     10.395
REMARK  Name = 
REMARK  7 active torsions:
REMARK  status: ('A' for Active; 'I' for Inactive)
REMARK    1  A    between atoms: C_1  and  C_2
REMARK    2  A    between atoms: C_6  and  C_7
REMARK    3  A    between atoms: C_7  and  C_8
REMARK    4  A    between atoms: C_8  and  C_9
REMARK    5  A    between atoms: N_15  and  S_16
REMARK    6  A    between atoms: S_16  and  C_19
REMARK    7  A    between atoms: C_27  and  C_28
REMARK                            x       y       z     vdW  Elec       q    Type
REMARK                         _______ _______ _______ _____ _____    ______ ____
ROOT
ATOM      1  C   UNL     1       2.474   3.897  20.326  0.00  0.00    +0.000 C 
ATOM      2  C   UNL     1       2.247   5.367  20.095  0.00  0.00    +0.000 A 
ATOM      3  C   UNL     1       1.779   6.158  21.160  0.00  0.00    +0.000 A 
ATOM      4  C   UNL     1       1.520   7.522  20.954  0.00  0.00    +0.000 A 
ATOM      5  N   UNL     1       1.067   8.458  21.846  0.00  0.00    +0.000 NA
ATOM      6  C   UNL     1       0.941   9.590  21.173  0.00  0.00    +0.000 A 
ATOM      7  N   UNL     1       1.267   9.374  19.847  0.00  0.00    +0.000 N 
ATOM      8  C   UNL     1       1.729   8.082  19.700  0.00  0.00    +0.000 A 
ATOM      9  C   UNL     1       2.244   7.332  18.634  0.00  0.00    +0.000 A 
ATOM     10  C   UNL     1       2.474   5.956  18.835  0.00  0.00    +0.000 A 
ATOM     11  C   UNL     1       2.930   5.127  17.662  0.00  0.00    +0.000 C 
ENDROOT
BRANCH   7  12
ATOM     12  S   UNL     1       1.122  10.490  18.586  0.00  0.00    +0.000 S 
ATOM     13  O   UNL     1       1.668  11.739  19.080  0.00  0.00    +0.000 OA
ATOM     14  O   UNL     1       1.678   9.845  17.413  0.00  0.00    +0.000 OA
BRANCH  12  15
ATOM     15  C   UNL     1      -0.597  10.766  18.264  0.00  0.00    +0.000 A 
ATOM     16  C   UNL     1      -1.315  11.837  18.797  0.00  0.00    +0.000 A 
ATOM     17  C   UNL     1      -2.688  11.927  18.543  0.00  0.00    +0.000 A 
ATOM     18  C   UNL     1      -3.330  10.965  17.759  0.00  0.00    +0.000 A 
ATOM     19  C   UNL     1      -2.604   9.915  17.206  0.00  0.00    +0.000 A 
ATOM     20  C   UNL     1      -1.236   9.813  17.455  0.00  0.00    +0.000 A 
ENDBRANCH  12  15
ENDBRANCH   7  12
BRANCH   6  21
ATOM     21  C   UNL     1       0.469  10.879  21.793  0.00  0.00    +0.000 C 
BRANCH  21  22
ATOM     22  C   UNL     1      -0.980  10.744  22.297  0.00  0.00    +0.000 C 
BRANCH  22  23
ATOM     23  C   UNL     1      -1.626  11.957  22.931  0.00  0.00    +0.000 A 
ATOM     24  C   UNL     1      -0.920  13.174  22.904  0.00  0.00    +0.000 A 
ATOM     25  C   UNL     1      -1.475  14.344  23.424  0.00  0.00    +0.000 A 
ATOM     26  C   UNL     1      -2.753  14.321  23.971  0.00  0.00    +0.000 A 
ATOM     27  C   UNL     1      -3.474  13.129  23.991  0.00  0.00    +0.000 A 
ATOM     28  C   UNL     1      -2.917  11.954  23.471  0.00  0.00    +0.000 A 
ENDBRANCH  22  23
ENDBRANCH  21  22
ENDBRANCH   6  21
TORSDOF 5
ENDMDL
