MODEL 1
REMARK VINA RESULT:      -6.9      0.000      0.000
REMARK  Name = 
REMARK  9 active torsions:
REMARK  status: ('A' for Active; 'I' for Inactive)
REMARK    1  A    between atoms: C_1  and  C_2
REMARK    2  A    between atoms: C_2  and  C_3
REMARK    3  A    between atoms: C_3  and  C_4
REMARK    4  A    between atoms: C_4  and  C_5
REMARK    5  A    between atoms: C_5  and  S_6
REMARK    6  A    between atoms: S_6  and  N_9
REMARK    7  A    between atoms: C_13  and  C_14
REMARK    8  A    between atoms: N_17  and  C_18
REMARK    9  A    between atoms: C_19  and  C_20
REMARK                            x       y       z     vdW  Elec       q    Type
REMARK                         _______ _______ _______ _____ _____    ______ ____
ROOT
ATOM      1  N   UNL     1       5.904   5.319  16.769  0.00  0.00    +0.000 NA
ATOM      2  C   UNL     1       6.181   6.716  17.176  0.00  0.00    +0.000 C 
ATOM      3  C   UNL     1       6.983   6.580  18.453  0.00  0.00    +0.000 C 
ATOM      4  C   UNL     1       6.288   5.443  19.179  0.00  0.00    +0.000 C 
ATOM      5  C   UNL     1       5.688   4.552  18.062  0.00  0.00    +0.000 C 
ENDROOT
BRANCH   5   6
ATOM      6  C   UNL     1       4.201   4.346  18.280  0.00  0.00    +0.000 A 
ATOM      7  C   UNL     1       3.136   5.099  17.728  0.00  0.00    +0.000 A 
ATOM      8  N   UNL     1       1.935   4.700  18.146  0.00  0.00    +0.000 NA
ATOM      9  N   UNL     1       2.210   3.660  18.954  0.00  0.00    +0.000 N 
ATOM     10  C   UNL     1       1.104   2.954  19.562  0.00  0.00    +0.000 C 
ATOM     11  C   UNL     1       3.555   3.419  19.095  0.00  0.00    +0.000 A 
ATOM     12  C   UNL     1       4.106   2.352  19.970  0.00  0.00    +0.000 C 
ENDBRANCH   5   6
BRANCH   1  13
ATOM     13  S   UNL     1       7.046   4.655  15.683  0.00  0.00    +0.000 S 
ATOM     14  O   UNL     1       8.040   3.956  16.474  0.00  0.00    +0.000 OA
ATOM     15  O   UNL     1       7.443   5.692  14.762  0.00  0.00    +0.000 OA
BRANCH  13  16
ATOM     16  C   UNL     1       6.095   3.415  14.761  0.00  0.00    +0.000 C 
BRANCH  16  17
ATOM     17  C   UNL     1       5.686   3.977  13.399  0.00  0.00    +0.000 C 
BRANCH  17  18
ATOM     18  C   UNL     1       6.324   3.213  12.236  0.00  0.00    +0.000 C 
BRANCH  18  20
ATOM     19  C   UNL     1       3.959   3.308  11.371  0.00  0.00    +0.000 C 
ATOM     20  C   UNL     1       5.264   2.528  11.380  0.00  0.00    +0.000 C 
ENDBRANCH  18  20
ENDBRANCH  17  18
ENDBRANCH  16  17
ENDBRANCH  13  16
ENDBRANCH   1  13
TORSDOF 6
ENDMDL
MODEL 2
REMARK VINA RESULT:      -6.9      2.442      3.445
REMARK  Name = 
REMARK  9 active torsions:
REMARK  status: ('A' for Active; 'I' for Inactive)
REMARK    1  A    between atoms: C_1  and  C_2
REMARK    2  A    between atoms: C_2  and  C_3
REMARK    3  A    between atoms: C_3  and  C_4
REMARK    4  A    between atoms: C_4  and  C_5
REMARK    5  A    between atoms: C_5  and  S_6
REMARK    6  A    between atoms: S_6  and  N_9
REMARK    7  A    between atoms: C_13  and  C_14
REMARK    8  A    between atoms: N_17  and  C_18
REMARK    9  A    between atoms: C_19  and  C_20
REMARK                            x       y       z     vdW  Elec       q    Type
REMARK                         _______ _______ _______ _____ _____    ______ ____
ROOT
ATOM      1  N   UNL     1       5.128   5.553  18.186  0.00  0.00    +0.000 NA
ATOM      2  C   UNL     1       5.204   4.122  18.557  0.00  0.00    +0.000 C 
ATOM      3  C   UNL     1       4.343   3.423  17.526  0.00  0.00    +0.000 C 
ATOM      4  C   UNL     1       3.157   4.359  17.375  0.00  0.00    +0.000 C 
ATOM      5  C   UNL     1       3.710   5.772  17.689  0.00  0.00    +0.000 C 
ENDROOT
BRANCH   5   6
ATOM      6  C   UNL     1       2.893   6.438  18.780  0.00  0.00    +0.000 A 
ATOM      7  C   UNL     1       2.461   5.868  20.003  0.00  0.00    +0.000 A 
ATOM      8  N   UNL     1       1.717   6.696  20.737  0.00  0.00    +0.000 NA
ATOM      9  N   UNL     1       1.685   7.826  20.007  0.00  0.00    +0.000 N 
ATOM     10  C   UNL     1       0.976   8.967  20.542  0.00  0.00    +0.000 C 
ATOM     11  C   UNL     1       2.350   7.721  18.810  0.00  0.00    +0.000 A 
ATOM     12  C   UNL     1       2.417   8.821  17.814  0.00  0.00    +0.000 C 
ENDBRANCH   5   6
BRANCH   1  13
ATOM     13  S   UNL     1       6.379   6.087  17.149  0.00  0.00    +0.000 S 
ATOM     14  O   UNL     1       7.453   6.584  17.987  0.00  0.00    +0.000 OA
ATOM     15  O   UNL     1       5.791   6.929  16.136  0.00  0.00    +0.000 OA
BRANCH  13  16
ATOM     16  C   UNL     1       6.956   4.563  16.350  0.00  0.00    +0.000 C 
BRANCH  16  17
ATOM     17  C   UNL     1       6.980   4.746  14.832  0.00  0.00    +0.000 C 
BRANCH  17  18
ATOM     18  C   UNL     1       5.809   4.044  14.140  0.00  0.00    +0.000 C 
BRANCH  18  20
ATOM     19  C   UNL     1       4.972   3.230  11.906  0.00  0.00    +0.000 C 
ATOM     20  C   UNL     1       6.195   3.579  12.739  0.00  0.00    +0.000 C 
ENDBRANCH  18  20
ENDBRANCH  17  18
ENDBRANCH  16  17
ENDBRANCH  13  16
ENDBRANCH   1  13
TORSDOF 6
ENDMDL
MODEL 3
REMARK VINA RESULT:      -6.8      3.300      5.411
REMARK  Name = 
REMARK  9 active torsions:
REMARK  status: ('A' for Active; 'I' for Inactive)
REMARK    1  A    between atoms: C_1  and  C_2
REMARK    2  A    between atoms: C_2  and  C_3
REMARK    3  A    between atoms: C_3  and  C_4
REMARK    4  A    between atoms: C_4  and  C_5
REMARK    5  A    between atoms: C_5  and  S_6
REMARK    6  A    between atoms: S_6  and  N_9
REMARK    7  A    between atoms: C_13  and  C_14
REMARK    8  A    between atoms: N_17  and  C_18
REMARK    9  A    between atoms: C_19  and  C_20
REMARK                            x       y       z     vdW  Elec       q    Type
REMARK                         _______ _______ _______ _____ _____    ______ ____
ROOT
ATOM      1  N   UNL     1       4.898   4.689  18.573  0.00  0.00    +0.000 NA
ATOM      2  C   UNL     1       4.591   3.279  18.907  0.00  0.00    +0.000 C 
ATOM      3  C   UNL     1       3.732   2.801  17.756  0.00  0.00    +0.000 C 
ATOM      4  C   UNL     1       2.825   3.988  17.486  0.00  0.00    +0.000 C 
ATOM      5  C   UNL     1       3.644   5.233  17.909  0.00  0.00    +0.000 C 
ENDROOT
BRANCH   5   6
ATOM      6  C   UNL     1       2.871   6.071  18.909  0.00  0.00    +0.000 A 
ATOM      7  C   UNL     1       2.343   5.656  20.156  0.00  0.00    +0.000 A 
ATOM      8  N   UNL     1       1.670   6.616  20.790  0.00  0.00    +0.000 NA
ATOM      9  N   UNL     1       1.781   7.676  19.969  0.00  0.00    +0.000 N 
ATOM     10  C   UNL     1       1.182   8.927  20.380  0.00  0.00    +0.000 C 
ATOM     11  C   UNL     1       2.467   7.401  18.812  0.00  0.00    +0.000 A 
ATOM     12  C   UNL     1       2.681   8.399  17.732  0.00  0.00    +0.000 C 
ENDBRANCH   5   6
BRANCH   1  13
ATOM     13  S   UNL     1       6.361   4.916  17.716  0.00  0.00    +0.000 S 
ATOM     14  O   UNL     1       6.248   4.186  16.469  0.00  0.00    +0.000 OA
ATOM     15  O   UNL     1       7.453   4.654  18.621  0.00  0.00    +0.000 OA
BRANCH  13  16
ATOM     16  C   UNL     1       6.362   6.688  17.326  0.00  0.00    +0.000 C 
BRANCH  16  17
ATOM     17  C   UNL     1       7.751   7.277  17.578  0.00  0.00    +0.000 C 
BRANCH  17  18
ATOM     18  C   UNL     1       7.732   8.805  17.658  0.00  0.00    +0.000 C 
BRANCH  18  20
ATOM     19  C   UNL     1       9.205  10.725  18.362  0.00  0.00    +0.000 C 
ATOM     20  C   UNL     1       8.736   9.316  18.687  0.00  0.00    +0.000 C 
ENDBRANCH  18  20
ENDBRANCH  17  18
ENDBRANCH  16  17
ENDBRANCH  13  16
ENDBRANCH   1  13
TORSDOF 6
ENDMDL
MODEL 4
REMARK VINA RESULT:      -6.8      2.422      4.872
REMARK  Name = 
REMARK  9 active torsions:
REMARK  status: ('A' for Active; 'I' for Inactive)
REMARK    1  A    between atoms: C_1  and  C_2
REMARK    2  A    between atoms: C_2  and  C_3
REMARK    3  A    between atoms: C_3  and  C_4
REMARK    4  A    between atoms: C_4  and  C_5
REMARK    5  A    between atoms: C_5  and  S_6
REMARK    6  A    between atoms: S_6  and  N_9
REMARK    7  A    between atoms: C_13  and  C_14
REMARK    8  A    between atoms: N_17  and  C_18
REMARK    9  A    between atoms: C_19  and  C_20
REMARK                            x       y       z     vdW  Elec       q    Type
REMARK                         _______ _______ _______ _____ _____    ______ ____
ROOT
ATOM      1  N   UNL     1       5.624   4.964  17.208  0.00  0.00    +0.000 NA
ATOM      2  C   UNL     1       5.498   5.378  15.792  0.00  0.00    +0.000 C 
ATOM      3  C   UNL     1       5.022   6.814  15.865  0.00  0.00    +0.000 C 
ATOM      4  C   UNL     1       4.010   6.785  16.996  0.00  0.00    +0.000 C 
ATOM      5  C   UNL     1       4.482   5.650  17.938  0.00  0.00    +0.000 C 
ENDROOT
BRANCH   5   6
ATOM      6  C   UNL     1       3.367   4.650  18.176  0.00  0.00    +0.000 A 
ATOM      7  C   UNL     1       2.031   4.722  17.710  0.00  0.00    +0.000 A 
ATOM      8  N   UNL     1       1.271   3.709  18.125  0.00  0.00    +0.000 NA
ATOM      9  N   UNL     1       2.120   2.950  18.843  0.00  0.00    +0.000 N 
ATOM     10  C   UNL     1       1.620   1.722  19.421  0.00  0.00    +0.000 C 
ATOM     11  C   UNL     1       3.384   3.480  18.931  0.00  0.00    +0.000 A 
ATOM     12  C   UNL     1       4.482   2.847  19.707  0.00  0.00    +0.000 C 
ENDBRANCH   5   6
BRANCH   1  13
ATOM     13  S   UNL     1       7.183   5.182  17.878  0.00  0.00    +0.000 S 
ATOM     14  O   UNL     1       8.055   4.193  17.275  0.00  0.00    +0.000 OA
ATOM     15  O   UNL     1       7.046   5.260  19.312  0.00  0.00    +0.000 OA
BRANCH  13  16
ATOM     16  C   UNL     1       7.688   6.815  17.269  0.00  0.00    +0.000 C 
BRANCH  16  17
ATOM     17  C   UNL     1       8.179   7.677  18.434  0.00  0.00    +0.000 C 
BRANCH  17  18
ATOM     18  C   UNL     1       8.259   9.162  18.068  0.00  0.00    +0.000 C 
BRANCH  18  20
ATOM     19  C   UNL     1       9.693  11.206  18.408  0.00  0.00    +0.000 C 
ATOM     20  C   UNL     1       9.177   9.916  19.025  0.00  0.00    +0.000 C 
ENDBRANCH  18  20
ENDBRANCH  17  18
ENDBRANCH  16  17
ENDBRANCH  13  16
ENDBRANCH   1  13
TORSDOF 6
ENDMDL
MODEL 5
REMARK VINA RESULT:      -6.7      2.591      4.995
REMARK  Name = 
REMARK  9 active torsions:
REMARK  status: ('A' for Active; 'I' for Inactive)
REMARK    1  A    between atoms: C_1  and  C_2
REMARK    2  A    between atoms: C_2  and  C_3
REMARK    3  A    between atoms: C_3  and  C_4
REMARK    4  A    between atoms: C_4  and  C_5
REMARK    5  A    between atoms: C_5  and  S_6
REMARK    6  A    between atoms: S_6  and  N_9
REMARK    7  A    between atoms: C_13  and  C_14
REMARK    8  A    between atoms: N_17  and  C_18
REMARK    9  A    between atoms: C_19  and  C_20
REMARK                            x       y       z     vdW  Elec       q    Type
REMARK                         _______ _______ _______ _____ _____    ______ ____
ROOT
ATOM      1  N   UNL     1       5.755   4.754  17.597  0.00  0.00    +0.000 NA
ATOM      2  C   UNL     1       5.606   5.037  16.151  0.00  0.00    +0.000 C 
ATOM      3  C   UNL     1       5.034   6.439  16.102  0.00  0.00    +0.000 C 
ATOM      4  C   UNL     1       4.023   6.439  17.234  0.00  0.00    +0.000 C 
ATOM      5  C   UNL     1       4.567   5.422  18.268  0.00  0.00    +0.000 C 
ENDROOT
BRANCH   5   6
ATOM      6  C   UNL     1       3.521   4.373  18.593  0.00  0.00    +0.000 A 
ATOM      7  C   UNL     1       3.379   3.088  18.015  0.00  0.00    +0.000 A 
ATOM      8  N   UNL     1       2.329   2.412  18.480  0.00  0.00    +0.000 NA
ATOM      9  N   UNL     1       1.794   3.246  19.391  0.00  0.00    +0.000 N 
ATOM     10  C   UNL     1       0.633   2.800  20.129  0.00  0.00    +0.000 C 
ATOM     11  C   UNL     1       2.450   4.448  19.482  0.00  0.00    +0.000 A 
ATOM     12  C   UNL     1       2.020   5.547  20.385  0.00  0.00    +0.000 C 
ENDBRANCH   5   6
BRANCH   1  13
ATOM     13  S   UNL     1       7.294   5.133  18.241  0.00  0.00    +0.000 S 
ATOM     14  O   UNL     1       8.230   4.150  17.731  0.00  0.00    +0.000 OA
ATOM     15  O   UNL     1       7.146   5.333  19.663  0.00  0.00    +0.000 OA
BRANCH  13  16
ATOM     16  C   UNL     1       7.696   6.732  17.485  0.00  0.00    +0.000 C 
BRANCH  16  17
ATOM     17  C   UNL     1       8.129   7.726  18.564  0.00  0.00    +0.000 C 
BRANCH  17  18
ATOM     18  C   UNL     1       8.227   9.158  18.034  0.00  0.00    +0.000 C 
BRANCH  18  20
ATOM     19  C   UNL     1       9.178  11.453  18.463  0.00  0.00    +0.000 C 
ATOM     20  C   UNL     1       9.208   9.985  18.859  0.00  0.00    +0.000 C 
ENDBRANCH  18  20
ENDBRANCH  17  18
ENDBRANCH  16  17
ENDBRANCH  13  16
ENDBRANCH   1  13
TORSDOF 6
ENDMDL
MODEL 6
REMARK VINA RESULT:      -6.7      0.932      1.107
REMARK  Name = 
REMARK  9 active torsions:
REMARK  status: ('A' for Active; 'I' for Inactive)
REMARK    1  A    between atoms: C_1  and  C_2
REMARK    2  A    between atoms: C_2  and  C_3
REMARK    3  A    between atoms: C_3  and  C_4
REMARK    4  A    between atoms: C_4  and  C_5
REMARK    5  A    between atoms: C_5  and  S_6
REMARK    6  A    between atoms: S_6  and  N_9
REMARK    7  A    between atoms: C_13  and  C_14
REMARK    8  A    between atoms: N_17  and  C_18
REMARK    9  A    between atoms: C_19  and  C_20
REMARK                            x       y       z     vdW  Elec       q    Type
REMARK                         _______ _______ _______ _____ _____    ______ ____
ROOT
ATOM      1  N   UNL     1       6.251   5.733  17.007  0.00  0.00    +0.000 NA
ATOM      2  C   UNL     1       6.851   7.034  17.383  0.00  0.00    +0.000 C 
ATOM      3  C   UNL     1       7.795   6.695  18.517  0.00  0.00    +0.000 C 
ATOM      4  C   UNL     1       7.010   5.681  19.329  0.00  0.00    +0.000 C 
ATOM      5  C   UNL     1       6.087   4.968  18.309  0.00  0.00    +0.000 C 
ENDROOT
BRANCH   5   6
ATOM      6  C   UNL     1       4.639   5.038  18.753  0.00  0.00    +0.000 A 
ATOM      7  C   UNL     1       3.755   6.140  18.642  0.00  0.00    +0.000 A 
ATOM      8  N   UNL     1       2.553   5.909  19.167  0.00  0.00    +0.000 NA
ATOM      9  N   UNL     1       2.636   4.636  19.599  0.00  0.00    +0.000 N 
ATOM     10  C   UNL     1       1.464   4.041  20.203  0.00  0.00    +0.000 C 
ATOM     11  C   UNL     1       3.872   4.073  19.403  0.00  0.00    +0.000 A 
ATOM     12  C   UNL     1       4.220   2.695  19.836  0.00  0.00    +0.000 C 
ENDBRANCH   5   6
BRANCH   1  13
ATOM     13  S   UNL     1       7.066   4.910  15.749  0.00  0.00    +0.000 S 
ATOM     14  O   UNL     1       7.928   3.921  16.366  0.00  0.00    +0.000 OA
ATOM     15  O   UNL     1       7.612   5.897  14.849  0.00  0.00    +0.000 OA
BRANCH  13  16
ATOM     16  C   UNL     1       5.739   4.027  14.880  0.00  0.00    +0.000 C 
BRANCH  16  17
ATOM     17  C   UNL     1       6.177   3.703  13.451  0.00  0.00    +0.000 C 
BRANCH  17  18
ATOM     18  C   UNL     1       4.996   3.634  12.480  0.00  0.00    +0.000 C 
BRANCH  18  20
ATOM     19  C   UNL     1       6.625   2.029  11.420  0.00  0.00    +0.000 C 
ATOM     20  C   UNL     1       5.184   2.512  11.463  0.00  0.00    +0.000 C 
ENDBRANCH  18  20
ENDBRANCH  17  18
ENDBRANCH  16  17
ENDBRANCH  13  16
ENDBRANCH   1  13
TORSDOF 6
ENDMDL
MODEL 7
REMARK VINA RESULT:      -6.7      3.353      5.243
REMARK  Name = 
REMARK  9 active torsions:
REMARK  status: ('A' for Active; 'I' for Inactive)
REMARK    1  A    between atoms: C_1  and  C_2
REMARK    2  A    between atoms: C_2  and  C_3
REMARK    3  A    between atoms: C_3  and  C_4
REMARK    4  A    between atoms: C_4  and  C_5
REMARK    5  A    between atoms: C_5  and  S_6
REMARK    6  A    between atoms: S_6  and  N_9
REMARK    7  A    between atoms: C_13  and  C_14
REMARK    8  A    between atoms: N_17  and  C_18
REMARK    9  A    between atoms: C_19  and  C_20
REMARK                            x       y       z     vdW  Elec       q    Type
REMARK                         _______ _______ _______ _____ _____    ______ ____
ROOT
ATOM      1  N   UNL     1       4.945   5.069  18.423  0.00  0.00    +0.000 NA
ATOM      2  C   UNL     1       4.710   3.830  19.199  0.00  0.00    +0.000 C 
ATOM      3  C   UNL     1       3.796   3.005  18.318  0.00  0.00    +0.000 C 
ATOM      4  C   UNL     1       2.833   4.036  17.758  0.00  0.00    +0.000 C 
ATOM      5  C   UNL     1       3.633   5.361  17.714  0.00  0.00    +0.000 C 
ENDROOT
BRANCH   5   6
ATOM      6  C   UNL     1       2.896   6.459  18.457  0.00  0.00    +0.000 A 
ATOM      7  C   UNL     1       2.705   7.801  18.045  0.00  0.00    +0.000 A 
ATOM      8  N   UNL     1       2.051   8.541  18.940  0.00  0.00    +0.000 NA
ATOM      9  N   UNL     1       1.783   7.673  19.933  0.00  0.00    +0.000 N 
ATOM     10  C   UNL     1       1.033   8.148  21.074  0.00  0.00    +0.000 C 
ATOM     11  C   UNL     1       2.291   6.417  19.711  0.00  0.00    +0.000 A 
ATOM     12  C   UNL     1       2.162   5.300  20.684  0.00  0.00    +0.000 C 
ENDBRANCH   5   6
BRANCH   1  13
ATOM     13  S   UNL     1       6.341   5.037  17.436  0.00  0.00    +0.000 S 
ATOM     14  O   UNL     1       5.992   4.338  16.215  0.00  0.00    +0.000 OA
ATOM     15  O   UNL     1       7.449   4.588  18.244  0.00  0.00    +0.000 OA
BRANCH  13  16
ATOM     16  C   UNL     1       6.616   6.782  17.020  0.00  0.00    +0.000 C 
BRANCH  16  17
ATOM     17  C   UNL     1       7.766   7.343  17.858  0.00  0.00    +0.000 C 
BRANCH  17  18
ATOM     18  C   UNL     1       7.884   8.865  17.744  0.00  0.00    +0.000 C 
BRANCH  18  20
ATOM     19  C   UNL     1       9.308  10.839  18.396  0.00  0.00    +0.000 C 
ATOM     20  C   UNL     1       8.899   9.415  18.740  0.00  0.00    +0.000 C 
ENDBRANCH  18  20
ENDBRANCH  17  18
ENDBRANCH  16  17
ENDBRANCH  13  16
ENDBRANCH   1  13
TORSDOF 6
ENDMDL
MODEL 8
REMARK VINA RESULT:      -6.6      2.105      2.912
REMARK  Name = 
REMARK  9 active torsions:
REMARK  status: ('A' for Active; 'I' for Inactive)
REMARK    1  A    between atoms: C_1  and  C_2
REMARK    2  A    between atoms: C_2  and  C_3
REMARK    3  A    between atoms: C_3  and  C_4
REMARK    4  A    between atoms: C_4  and  C_5
REMARK    5  A    between atoms: C_5  and  S_6
REMARK    6  A    between atoms: S_6  and  N_9
REMARK    7  A    between atoms: C_13  and  C_14
REMARK    8  A    between atoms: N_17  and  C_18
REMARK    9  A    between atoms: C_19  and  C_20
REMARK                            x       y       z     vdW  Elec       q    Type
REMARK                         _______ _______ _______ _____ _____    ______ ____
ROOT
ATOM      1  N   UNL     1       5.116   5.073  18.036  0.00  0.00    +0.000 NA
ATOM      2  C   UNL     1       4.984   3.859  18.874  0.00  0.00    +0.000 C 
ATOM      3  C   UNL     1       4.007   2.986  18.115  0.00  0.00    +0.000 C 
ATOM      4  C   UNL     1       2.972   3.979  17.618  0.00  0.00    +0.000 C 
ATOM      5  C   UNL     1       3.736   5.316  17.450  0.00  0.00    +0.000 C 
ENDROOT
BRANCH   5   6
ATOM      6  C   UNL     1       3.052   6.427  18.224  0.00  0.00    +0.000 A 
ATOM      7  C   UNL     1       2.883   7.776  17.827  0.00  0.00    +0.000 A 
ATOM      8  N   UNL     1       2.277   8.526  18.748  0.00  0.00    +0.000 NA
ATOM      9  N   UNL     1       2.019   7.657  19.743  0.00  0.00    +0.000 N 
ATOM     10  C   UNL     1       1.317   8.143  20.911  0.00  0.00    +0.000 C 
ATOM     11  C   UNL     1       2.486   6.390  19.496  0.00  0.00    +0.000 A 
ATOM     12  C   UNL     1       2.360   5.270  20.465  0.00  0.00    +0.000 C 
ENDBRANCH   5   6
BRANCH   1  13
ATOM     13  S   UNL     1       6.411   5.030  16.919  0.00  0.00    +0.000 S 
ATOM     14  O   UNL     1       7.580   4.552  17.631  0.00  0.00    +0.000 OA
ATOM     15  O   UNL     1       6.443   6.294  16.224  0.00  0.00    +0.000 OA
BRANCH  13  16
ATOM     16  C   UNL     1       5.916   3.747  15.735  0.00  0.00    +0.000 C 
BRANCH  16  17
ATOM     17  C   UNL     1       5.540   4.388  14.398  0.00  0.00    +0.000 C 
BRANCH  17  18
ATOM     18  C   UNL     1       6.317   3.787  13.224  0.00  0.00    +0.000 C 
BRANCH  18  20
ATOM     19  C   UNL     1       5.729   2.009  11.537  0.00  0.00    +0.000 C 
ATOM     20  C   UNL     1       5.378   3.380  12.093  0.00  0.00    +0.000 C 
ENDBRANCH  18  20
ENDBRANCH  17  18
ENDBRANCH  16  17
ENDBRANCH  13  16
ENDBRANCH   1  13
TORSDOF 6
ENDMDL
MODEL 9
REMARK VINA RESULT:      -6.6      2.753      5.031
REMARK  Name = 
REMARK  9 active torsions:
REMARK  status: ('A' for Active; 'I' for Inactive)
REMARK    1  A    between atoms: C_1  and  C_2
REMARK    2  A    between atoms: C_2  and  C_3
REMARK    3  A    between atoms: C_3  and  C_4
REMARK    4  A    between atoms: C_4  and  C_5
REMARK    5  A    between atoms: C_5  and  S_6
REMARK    6  A    between atoms: S_6  and  N_9
REMARK    7  A    between atoms: C_13  and  C_14
REMARK    8  A    between atoms: N_17  and  C_18
REMARK    9  A    between atoms: C_19  and  C_20
REMARK                            x       y       z     vdW  Elec       q    Type
REMARK                         _______ _______ _______ _____ _____    ______ ____
ROOT
ATOM      1  N   UNL     1       5.541   4.981  17.706  0.00  0.00    +0.000 NA
ATOM      2  C   UNL     1       4.985   5.632  16.497  0.00  0.00    +0.000 C 
ATOM      3  C   UNL     1       4.463   6.962  16.998  0.00  0.00    +0.000 C 
ATOM      4  C   UNL     1       3.825   6.605  18.328  0.00  0.00    +0.000 C 
ATOM      5  C   UNL     1       4.619   5.379  18.845  0.00  0.00    +0.000 C 
ENDROOT
BRANCH   5   6
ATOM      6  C   UNL     1       3.684   4.227  19.159  0.00  0.00    +0.000 A 
ATOM      7  C   UNL     1       3.926   3.131  20.024  0.00  0.00    +0.000 A 
ATOM      8  N   UNL     1       2.924   2.253  20.058  0.00  0.00    +0.000 NA
ATOM      9  N   UNL     1       2.004   2.790  19.234  0.00  0.00    +0.000 N 
ATOM     10  C   UNL     1       0.747   2.096  19.066  0.00  0.00    +0.000 C 
ATOM     11  C   UNL     1       2.417   3.960  18.645  0.00  0.00    +0.000 A 
ATOM     12  C   UNL     1       1.594   4.715  17.665  0.00  0.00    +0.000 C 
ENDBRANCH   5   6
BRANCH   1  13
ATOM     13  S   UNL     1       7.210   5.256  17.959  0.00  0.00    +0.000 S 
ATOM     14  O   UNL     1       7.934   4.341  17.097  0.00  0.00    +0.000 OA
ATOM     15  O   UNL     1       7.451   5.266  19.381  0.00  0.00    +0.000 OA
BRANCH  13  16
ATOM     16  C   UNL     1       7.470   6.938  17.329  0.00  0.00    +0.000 C 
BRANCH  16  17
ATOM     17  C   UNL     1       8.243   7.766  18.357  0.00  0.00    +0.000 C 
BRANCH  17  18
ATOM     18  C   UNL     1       8.197   9.265  18.053  0.00  0.00    +0.000 C 
BRANCH  18  20
ATOM     19  C   UNL     1       9.900  11.115  18.224  0.00  0.00    +0.000 C 
ATOM     20  C   UNL     1       9.128  10.043  18.977  0.00  0.00    +0.000 C 
ENDBRANCH  18  20
ENDBRANCH  17  18
ENDBRANCH  16  17
ENDBRANCH  13  16
ENDBRANCH   1  13
TORSDOF 6
ENDMDL
