MODEL 1
REMARK VINA RESULT:      -7.8      0.000      0.000
REMARK  Name = 
REMARK  11 active torsions:
REMARK  status: ('A' for Active; 'I' for Inactive)
REMARK    1  A    between atoms: C_1  and  C_2
REMARK    2  A    between atoms: C_2  and  C_3
REMARK    3  A    between atoms: C_3  and  C_4
REMARK    4  A    between atoms: C_4  and  C_5
REMARK    5  A    between atoms: C_5  and  N_6
REMARK    6  A    between atoms: C_7  and  C_8
REMARK    7  A    between atoms: C_9  and  C_10
REMARK    8  A    between atoms: C_10  and  C_12
REMARK    9  A    between atoms: C_15  and  O_16
REMARK   10  A    between atoms: O_16  and  C_17
REMARK   11  A    between atoms: C_17  and  C_18
REMARK                            x       y       z     vdW  Elec       q    Type
REMARK                         _______ _______ _______ _____ _____    ______ ____
ROOT
ATOM      1  N   UNL     1       0.735  12.167  20.185  0.00  0.00    +0.000 N 
ATOM      2  C   UNL     1       1.468  11.442  19.253  0.00  0.00    +0.000 A 
ATOM      3  C   UNL     1       2.324  12.130  18.241  0.00  0.00    +0.000 C 
ATOM      4  C   UNL     1       1.229  10.065  19.423  0.00  0.00    +0.000 A 
ATOM      5  C   UNL     1       0.549  10.008  20.756  0.00  0.00    +0.000 A 
ATOM      6  C   UNL     1       0.129   8.988  21.659  0.00  0.00    +0.000 A 
ATOM      7  C   UNL     1      -0.619   9.287  22.820  0.00  0.00    +0.000 A 
ATOM      8  C   UNL     1      -0.984  10.590  23.120  0.00  0.00    +0.000 A 
ATOM      9  C   UNL     1      -0.577  11.620  22.282  0.00  0.00    +0.000 A 
ATOM     10  C   UNL     1       0.198  11.319  21.133  0.00  0.00    +0.000 A 
ENDROOT
BRANCH   4  11
ATOM     11  C   UNL     1       1.609   8.944  18.350  0.00  0.00    +0.000 C 
ATOM     12  O   UNL     1       1.085   8.944  17.241  0.00  0.00    +0.000 OA
BRANCH  11  13
ATOM     13  C   UNL     1       2.537   7.702  18.751  0.00  0.00    +0.000 A 
ATOM     14  C   UNL     1       1.994   7.086  19.887  0.00  0.00    +0.000 A 
ATOM     15  C   UNL     1       2.395   5.815  20.143  0.00  0.00    +0.000 A 
ATOM     16  C   UNL     1       2.162   5.090  19.005  0.00  0.00    +0.000 A 
ATOM     17  C   UNL     1       2.913   5.436  17.926  0.00  0.00    +0.000 A 
ATOM     18  C   UNL     1       3.405   4.353  17.182  0.00  0.00    +0.000 A 
ATOM     19  C   UNL     1       4.658   4.443  16.631  0.00  0.00    +0.000 A 
ATOM     20  C   UNL     1       5.310   5.670  16.721  0.00  0.00    +0.000 A 
ATOM     21  C   UNL     1       4.655   6.839  17.247  0.00  0.00    +0.000 A 
ATOM     22  C   UNL     1       3.360   6.787  17.891  0.00  0.00    +0.000 A 
BRANCH  16  23
ATOM     23  O   UNL     1       1.211   4.132  18.908  0.00  0.00    +0.000 OA
BRANCH  23  24
ATOM     24  C   UNL     1       1.113   3.355  20.099  0.00  0.00    +0.000 C 
ATOM     25  C   UNL     1       1.994   2.155  19.904  0.00  0.00    +0.000 C 
ENDBRANCH  23  24
ENDBRANCH  16  23
ENDBRANCH  11  13
ENDBRANCH   4  11
BRANCH   1  26
ATOM     26  C   UNL     1       0.539  13.621  20.241  0.00  0.00    +0.000 C 
BRANCH  26  27
ATOM     27  C   UNL     1      -0.525  14.176  19.287  0.00  0.00    +0.000 C 
BRANCH  27  28
ATOM     28  C   UNL     1      -0.162  15.526  18.671  0.00  0.00    +0.000 C 
BRANCH  28  30
ATOM     29  C   UNL     1       2.055  16.597  18.222  0.00  0.00    +0.000 C 
ATOM     30  C   UNL     1       1.124  16.071  19.294  0.00  0.00    +0.000 C 
ENDBRANCH  28  30
ENDBRANCH  27  28
ENDBRANCH  26  27
ENDBRANCH   1  26
TORSDOF 8
ENDMDL
MODEL 2
REMARK VINA RESULT:      -7.6      2.609      8.669
REMARK  Name = 
REMARK  11 active torsions:
REMARK  status: ('A' for Active; 'I' for Inactive)
REMARK    1  A    between atoms: C_1  and  C_2
REMARK    2  A    between atoms: C_2  and  C_3
REMARK    3  A    between atoms: C_3  and  C_4
REMARK    4  A    between atoms: C_4  and  C_5
REMARK    5  A    between atoms: C_5  and  N_6
REMARK    6  A    between atoms: C_7  and  C_8
REMARK    7  A    between atoms: C_9  and  C_10
REMARK    8  A    between atoms: C_10  and  C_12
REMARK    9  A    between atoms: C_15  and  O_16
REMARK   10  A    between atoms: O_16  and  C_17
REMARK   11  A    between atoms: C_17  and  C_18
REMARK                            x       y       z     vdW  Elec       q    Type
REMARK                         _______ _______ _______ _____ _____    ______ ____
ROOT
ATOM      1  N   UNL     1       4.307   4.442  19.440  0.00  0.00    +0.000 N 
ATOM      2  C   UNL     1       3.255   5.335  19.616  0.00  0.00    +0.000 A 
ATOM      3  C   UNL     1       2.244   5.132  20.696  0.00  0.00    +0.000 C 
ATOM      4  C   UNL     1       3.318   6.346  18.638  0.00  0.00    +0.000 A 
ATOM      5  C   UNL     1       4.691   6.171  18.067  0.00  0.00    +0.000 A 
ATOM      6  C   UNL     1       5.529   6.877  17.155  0.00  0.00    +0.000 A 
ATOM      7  C   UNL     1       6.769   6.352  16.727  0.00  0.00    +0.000 A 
ATOM      8  C   UNL     1       7.215   5.118  17.174  0.00  0.00    +0.000 A 
ATOM      9  C   UNL     1       6.444   4.404  18.082  0.00  0.00    +0.000 A 
ATOM     10  C   UNL     1       5.213   4.947  18.530  0.00  0.00    +0.000 A 
ENDROOT
BRANCH   4  11
ATOM     11  C   UNL     1       2.120   7.346  18.297  0.00  0.00    +0.000 C 
ATOM     12  O   UNL     1       1.437   7.176  17.292  0.00  0.00    +0.000 OA
BRANCH  11  13
ATOM     13  C   UNL     1       1.896   8.684  19.148  0.00  0.00    +0.000 A 
ATOM     14  C   UNL     1       1.781   9.764  18.262  0.00  0.00    +0.000 A 
ATOM     15  C   UNL     1       1.206  10.894  18.749  0.00  0.00    +0.000 A 
ATOM     16  C   UNL     1      -0.005  10.528  19.273  0.00  0.00    +0.000 A 
ATOM     17  C   UNL     1       0.050   9.718  20.364  0.00  0.00    +0.000 A 
ATOM     18  C   UNL     1      -0.860  10.042  21.382  0.00  0.00    +0.000 A 
ATOM     19  C   UNL     1      -0.472   9.896  22.689  0.00  0.00    +0.000 A 
ATOM     20  C   UNL     1       0.759   9.290  22.927  0.00  0.00    +0.000 A 
ATOM     21  C   UNL     1       1.539   8.717  21.862  0.00  0.00    +0.000 A 
ATOM     22  C   UNL     1       1.206   8.893  20.465  0.00  0.00    +0.000 A 
BRANCH  16  23
ATOM     23  O   UNL     1      -1.194  10.876  18.729  0.00  0.00    +0.000 OA
BRANCH  23  24
ATOM     24  C   UNL     1      -1.316  12.288  18.572  0.00  0.00    +0.000 C 
ATOM     25  C   UNL     1      -2.334  12.746  19.576  0.00  0.00    +0.000 C 
ENDBRANCH  23  24
ENDBRANCH  16  23
ENDBRANCH  11  13
ENDBRANCH   4  11
BRANCH   1  26
ATOM     26  C   UNL     1       4.510   3.151  20.108  0.00  0.00    +0.000 C 
BRANCH  26  27
ATOM     27  C   UNL     1       3.534   2.041  19.699  0.00  0.00    +0.000 C 
BRANCH  27  28
ATOM     28  C   UNL     1       3.466   1.800  18.192  0.00  0.00    +0.000 C 
BRANCH  28  30
ATOM     29  C   UNL     1       1.059   2.393  18.541  0.00  0.00    +0.000 C 
ATOM     30  C   UNL     1       2.238   2.489  17.594  0.00  0.00    +0.000 C 
ENDBRANCH  28  30
ENDBRANCH  27  28
ENDBRANCH  26  27
ENDBRANCH   1  26
TORSDOF 8
ENDMDL
MODEL 3
REMARK VINA RESULT:      -7.5      2.455      8.519
REMARK  Name = 
REMARK  11 active torsions:
REMARK  status: ('A' for Active; 'I' for Inactive)
REMARK    1  A    between atoms: C_1  and  C_2
REMARK    2  A    between atoms: C_2  and  C_3
REMARK    3  A    between atoms: C_3  and  C_4
REMARK    4  A    between atoms: C_4  and  C_5
REMARK    5  A    between atoms: C_5  and  N_6
REMARK    6  A    between atoms: C_7  and  C_8
REMARK    7  A    between atoms: C_9  and  C_10
REMARK    8  A    between atoms: C_10  and  C_12
REMARK    9  A    between atoms: C_15  and  O_16
REMARK   10  A    between atoms: O_16  and  C_17
REMARK   11  A    between atoms: C_17  and  C_18
REMARK                            x       y       z     vdW  Elec       q    Type
REMARK                         _______ _______ _______ _____ _____    ______ ____
ROOT
ATOM      1  N   UNL     1       2.474   6.137  19.917  0.00  0.00    +0.000 N 
ATOM      2  C   UNL     1       2.024   7.452  19.885  0.00  0.00    +0.000 A 
ATOM      3  C   UNL     1       1.280   8.040  21.039  0.00  0.00    +0.000 C 
ATOM      4  C   UNL     1       2.350   8.039  18.649  0.00  0.00    +0.000 A 
ATOM      5  C   UNL     1       3.333   7.068  18.070  0.00  0.00    +0.000 A 
ATOM      6  C   UNL     1       4.198   7.025  16.937  0.00  0.00    +0.000 A 
ATOM      7  C   UNL     1       4.932   5.863  16.607  0.00  0.00    +0.000 A 
ATOM      8  C   UNL     1       4.829   4.712  17.372  0.00  0.00    +0.000 A 
ATOM      9  C   UNL     1       4.017   4.714  18.499  0.00  0.00    +0.000 A 
ATOM     10  C   UNL     1       3.305   5.891  18.842  0.00  0.00    +0.000 A 
ENDROOT
BRANCH   4  11
ATOM     11  C   UNL     1       1.718   9.400  18.101  0.00  0.00    +0.000 C 
ATOM     12  O   UNL     1       2.314  10.067  17.262  0.00  0.00    +0.000 OA
BRANCH  11  13
ATOM     13  C   UNL     1       0.392  10.014  18.757  0.00  0.00    +0.000 A 
ATOM     14  C   UNL     1       0.764  11.021  19.658  0.00  0.00    +0.000 A 
ATOM     15  C   UNL     1      -0.199  11.911  20.011  0.00  0.00    +0.000 A 
ATOM     16  C   UNL     1      -0.708  12.425  18.848  0.00  0.00    +0.000 A 
ATOM     17  C   UNL     1      -1.380  11.542  18.063  0.00  0.00    +0.000 A 
ATOM     18  C   UNL     1      -2.562  12.042  17.497  0.00  0.00    +0.000 A 
ATOM     19  C   UNL     1      -3.641  11.204  17.367  0.00  0.00    +0.000 A 
ATOM     20  C   UNL     1      -3.446   9.859  17.672  0.00  0.00    +0.000 A 
ATOM     21  C   UNL     1      -2.143   9.334  17.981  0.00  0.00    +0.000 A 
ATOM     22  C   UNL     1      -0.986  10.179  18.187  0.00  0.00    +0.000 A 
BRANCH  16  23
ATOM     23  O   UNL     1      -0.517  13.703  18.446  0.00  0.00    +0.000 OA
BRANCH  23  24
ATOM     24  C   UNL     1       0.027  14.513  19.485  0.00  0.00    +0.000 C 
ATOM     25  C   UNL     1       1.266  15.152  18.929  0.00  0.00    +0.000 C 
ENDBRANCH  23  24
ENDBRANCH  16  23
ENDBRANCH  11  13
ENDBRANCH   4  11
BRANCH   1  26
ATOM     26  C   UNL     1       2.181   5.110  20.926  0.00  0.00    +0.000 C 
BRANCH  26  27
ATOM     27  C   UNL     1       1.059   4.133  20.559  0.00  0.00    +0.000 C 
BRANCH  27  28
ATOM     28  C   UNL     1       1.432   2.663  20.745  0.00  0.00    +0.000 C 
BRANCH  28  30
ATOM     29  C   UNL     1       1.069   2.879  18.279  0.00  0.00    +0.000 C 
ATOM     30  C   UNL     1       1.521   1.957  19.392  0.00  0.00    +0.000 C 
ENDBRANCH  28  30
ENDBRANCH  27  28
ENDBRANCH  26  27
ENDBRANCH   1  26
TORSDOF 8
ENDMDL
MODEL 4
REMARK VINA RESULT:      -7.5      2.366      7.704
REMARK  Name = 
REMARK  11 active torsions:
REMARK  status: ('A' for Active; 'I' for Inactive)
REMARK    1  A    between atoms: C_1  and  C_2
REMARK    2  A    between atoms: C_2  and  C_3
REMARK    3  A    between atoms: C_3  and  C_4
REMARK    4  A    between atoms: C_4  and  C_5
REMARK    5  A    between atoms: C_5  and  N_6
REMARK    6  A    between atoms: C_7  and  C_8
REMARK    7  A    between atoms: C_9  and  C_10
REMARK    8  A    between atoms: C_10  and  C_12
REMARK    9  A    between atoms: C_15  and  O_16
REMARK   10  A    between atoms: O_16  and  C_17
REMARK   11  A    between atoms: C_17  and  C_18
REMARK                            x       y       z     vdW  Elec       q    Type
REMARK                         _______ _______ _______ _____ _____    ______ ____
ROOT
ATOM      1  N   UNL     1       3.452   6.181  18.163  0.00  0.00    +0.000 N 
ATOM      2  C   UNL     1       2.748   7.365  18.349  0.00  0.00    +0.000 A 
ATOM      3  C   UNL     1       2.766   8.444  17.317  0.00  0.00    +0.000 C 
ATOM      4  C   UNL     1       2.111   7.350  19.604  0.00  0.00    +0.000 A 
ATOM      5  C   UNL     1       2.218   5.913  20.014  0.00  0.00    +0.000 A 
ATOM      6  C   UNL     1       1.707   5.098  21.066  0.00  0.00    +0.000 A 
ATOM      7  C   UNL     1       2.117   3.755  21.230  0.00  0.00    +0.000 A 
ATOM      8  C   UNL     1       3.044   3.181  20.374  0.00  0.00    +0.000 A 
ATOM      9  C   UNL     1       3.552   3.930  19.320  0.00  0.00    +0.000 A 
ATOM     10  C   UNL     1       3.116   5.268  19.142  0.00  0.00    +0.000 A 
ENDROOT
BRANCH   4  11
ATOM     11  C   UNL     1       1.500   8.640  20.322  0.00  0.00    +0.000 C 
ATOM     12  O   UNL     1       1.415   8.689  21.544  0.00  0.00    +0.000 OA
BRANCH  11  13
ATOM     13  C   UNL     1       0.823   9.814  19.467  0.00  0.00    +0.000 A 
ATOM     14  C   UNL     1      -0.569   9.665  19.526  0.00  0.00    +0.000 A 
ATOM     15  C   UNL     1      -1.313  10.755  19.208  0.00  0.00    +0.000 A 
ATOM     16  C   UNL     1      -0.873  11.780  20.001  0.00  0.00    +0.000 A 
ATOM     17  C   UNL     1       0.399  12.198  19.765  0.00  0.00    +0.000 A 
ATOM     18  C   UNL     1       0.571  13.591  19.782  0.00  0.00    +0.000 A 
ATOM     19  C   UNL     1       1.451  14.161  18.897  0.00  0.00    +0.000 A 
ATOM     20  C   UNL     1       2.234  13.301  18.130  0.00  0.00    +0.000 A 
ATOM     21  C   UNL     1       2.226  11.878  18.343  0.00  0.00    +0.000 A 
ATOM     22  C   UNL     1       1.281  11.222  19.220  0.00  0.00    +0.000 A 
BRANCH  16  23
ATOM     23  O   UNL     1      -1.603  12.319  21.005  0.00  0.00    +0.000 OA
BRANCH  23  24
ATOM     24  C   UNL     1      -1.123  11.920  22.287  0.00  0.00    +0.000 C 
ATOM     25  C   UNL     1      -1.311  13.096  23.201  0.00  0.00    +0.000 C 
ENDBRANCH  23  24
ENDBRANCH  16  23
ENDBRANCH  11  13
ENDBRANCH   4  11
BRANCH   1  26
ATOM     26  C   UNL     1       4.404   5.860  17.092  0.00  0.00    +0.000 C 
BRANCH  26  27
ATOM     27  C   UNL     1       5.769   6.550  17.200  0.00  0.00    +0.000 C 
BRANCH  27  28
ATOM     28  C   UNL     1       6.686   5.944  18.261  0.00  0.00    +0.000 C 
BRANCH  28  30
ATOM     29  C   UNL     1       7.823   8.084  17.635  0.00  0.00    +0.000 C 
ATOM     30  C   UNL     1       7.927   6.816  18.458  0.00  0.00    +0.000 C 
ENDBRANCH  28  30
ENDBRANCH  27  28
ENDBRANCH  26  27
ENDBRANCH   1  26
TORSDOF 8
ENDMDL
MODEL 5
REMARK VINA RESULT:      -7.5      2.570      7.653
REMARK  Name = 
REMARK  11 active torsions:
REMARK  status: ('A' for Active; 'I' for Inactive)
REMARK    1  A    between atoms: C_1  and  C_2
REMARK    2  A    between atoms: C_2  and  C_3
REMARK    3  A    between atoms: C_3  and  C_4
REMARK    4  A    between atoms: C_4  and  C_5
REMARK    5  A    between atoms: C_5  and  N_6
REMARK    6  A    between atoms: C_7  and  C_8
REMARK    7  A    between atoms: C_9  and  C_10
REMARK    8  A    between atoms: C_10  and  C_12
REMARK    9  A    between atoms: C_15  and  O_16
REMARK   10  A    between atoms: O_16  and  C_17
REMARK   11  A    between atoms: C_17  and  C_18
REMARK                            x       y       z     vdW  Elec       q    Type
REMARK                         _______ _______ _______ _____ _____    ______ ____
ROOT
ATOM      1  N   UNL     1       4.261   5.235  18.594  0.00  0.00    +0.000 N 
ATOM      2  C   UNL     1       3.655   6.289  17.918  0.00  0.00    +0.000 A 
ATOM      3  C   UNL     1       4.344   6.974  16.784  0.00  0.00    +0.000 C 
ATOM      4  C   UNL     1       2.401   6.567  18.492  0.00  0.00    +0.000 A 
ATOM      5  C   UNL     1       2.159   5.369  19.358  0.00  0.00    +0.000 A 
ATOM      6  C   UNL     1       1.078   4.856  20.133  0.00  0.00    +0.000 A 
ATOM      7  C   UNL     1       1.230   3.718  20.958  0.00  0.00    +0.000 A 
ATOM      8  C   UNL     1       2.447   3.061  21.051  0.00  0.00    +0.000 A 
ATOM      9  C   UNL     1       3.523   3.511  20.296  0.00  0.00    +0.000 A 
ATOM     10  C   UNL     1       3.358   4.636  19.449  0.00  0.00    +0.000 A 
ENDROOT
BRANCH   4  11
ATOM     11  C   UNL     1       1.563   7.901  18.225  0.00  0.00    +0.000 C 
ATOM     12  O   UNL     1       1.004   8.078  17.148  0.00  0.00    +0.000 OA
BRANCH  11  13
ATOM     13  C   UNL     1       1.579   9.108  19.279  0.00  0.00    +0.000 A 
ATOM     14  C   UNL     1       1.677  10.315  18.574  0.00  0.00    +0.000 A 
ATOM     15  C   UNL     1       1.315  11.441  19.240  0.00  0.00    +0.000 A 
ATOM     16  C   UNL     1       0.050  11.228  19.719  0.00  0.00    +0.000 A 
ATOM     17  C   UNL     1      -0.060  10.262  20.670  0.00  0.00    +0.000 A 
ATOM     18  C   UNL     1      -0.908  10.586  21.740  0.00  0.00    +0.000 A 
ATOM     19  C   UNL     1      -0.572  10.168  23.002  0.00  0.00    +0.000 A 
ATOM     20  C   UNL     1       0.522   9.315  23.123  0.00  0.00    +0.000 A 
ATOM     21  C   UNL     1       1.197   8.782  21.969  0.00  0.00    +0.000 A 
ATOM     22  C   UNL     1       0.921   9.232  20.622  0.00  0.00    +0.000 A 
BRANCH  16  23
ATOM     23  O   UNL     1      -1.046  11.871  19.255  0.00  0.00    +0.000 OA
BRANCH  23  24
ATOM     24  C   UNL     1      -2.007  10.965  18.716  0.00  0.00    +0.000 C 
ATOM     25  C   UNL     1      -1.948  11.113  17.223  0.00  0.00    +0.000 C 
ENDBRANCH  23  24
ENDBRANCH  16  23
ENDBRANCH  11  13
ENDBRANCH   4  11
BRANCH   1  26
ATOM     26  C   UNL     1       5.640   4.751  18.454  0.00  0.00    +0.000 C 
BRANCH  26  27
ATOM     27  C   UNL     1       6.682   5.484  19.308  0.00  0.00    +0.000 C 
BRANCH  27  28
ATOM     28  C   UNL     1       7.962   5.839  18.553  0.00  0.00    +0.000 C 
BRANCH  28  30
ATOM     29  C   UNL     1       7.734   8.103  17.512  0.00  0.00    +0.000 C 
ATOM     30  C   UNL     1       8.273   7.330  18.697  0.00  0.00    +0.000 C 
ENDBRANCH  28  30
ENDBRANCH  27  28
ENDBRANCH  26  27
ENDBRANCH   1  26
TORSDOF 8
ENDMDL
MODEL 6
REMARK VINA RESULT:      -7.5      2.525      8.005
REMARK  Name = 
REMARK  11 active torsions:
REMARK  status: ('A' for Active; 'I' for Inactive)
REMARK    1  A    between atoms: C_1  and  C_2
REMARK    2  A    between atoms: C_2  and  C_3
REMARK    3  A    between atoms: C_3  and  C_4
REMARK    4  A    between atoms: C_4  and  C_5
REMARK    5  A    between atoms: C_5  and  N_6
REMARK    6  A    between atoms: C_7  and  C_8
REMARK    7  A    between atoms: C_9  and  C_10
REMARK    8  A    between atoms: C_10  and  C_12
REMARK    9  A    between atoms: C_15  and  O_16
REMARK   10  A    between atoms: O_16  and  C_17
REMARK   11  A    between atoms: C_17  and  C_18
REMARK                            x       y       z     vdW  Elec       q    Type
REMARK                         _______ _______ _______ _____ _____    ______ ____
ROOT
ATOM      1  N   UNL     1       2.993   6.383  18.194  0.00  0.00    +0.000 N 
ATOM      2  C   UNL     1       2.460   7.532  18.768  0.00  0.00    +0.000 A 
ATOM      3  C   UNL     1       2.559   8.854  18.082  0.00  0.00    +0.000 C 
ATOM      4  C   UNL     1       1.898   7.223  20.021  0.00  0.00    +0.000 A 
ATOM      5  C   UNL     1       1.840   5.726  20.000  0.00  0.00    +0.000 A 
ATOM      6  C   UNL     1       1.289   4.701  20.823  0.00  0.00    +0.000 A 
ATOM      7  C   UNL     1       1.530   3.333  20.566  0.00  0.00    +0.000 A 
ATOM      8  C   UNL     1       2.326   2.935  19.503  0.00  0.00    +0.000 A 
ATOM      9  C   UNL     1       2.866   3.897  18.660  0.00  0.00    +0.000 A 
ATOM     10  C   UNL     1       2.598   5.267  18.905  0.00  0.00    +0.000 A 
ENDROOT
BRANCH   4  11
ATOM     11  C   UNL     1       1.499   8.308  21.123  0.00  0.00    +0.000 C 
ATOM     12  O   UNL     1       2.140   8.400  22.164  0.00  0.00    +0.000 OA
BRANCH  11  13
ATOM     13  C   UNL     1       0.157   9.172  20.980  0.00  0.00    +0.000 A 
ATOM     14  C   UNL     1      -0.249   9.583  22.258  0.00  0.00    +0.000 A 
ATOM     15  C   UNL     1      -1.114  10.627  22.316  0.00  0.00    +0.000 A 
ATOM     16  C   UNL     1      -0.548  11.651  21.603  0.00  0.00    +0.000 A 
ATOM     17  C   UNL     1      -0.422  11.433  20.268  0.00  0.00    +0.000 A 
ATOM     18  C   UNL     1      -0.748  12.534  19.460  0.00  0.00    +0.000 A 
ATOM     19  C   UNL     1      -1.381  12.314  18.264  0.00  0.00    +0.000 A 
ATOM     20  C   UNL     1      -1.530  10.991  17.853  0.00  0.00    +0.000 A 
ATOM     21  C   UNL     1      -0.932   9.901  18.578  0.00  0.00    +0.000 A 
ATOM     22  C   UNL     1      -0.305  10.071  19.870  0.00  0.00    +0.000 A 
BRANCH  16  23
ATOM     23  O   UNL     1      -0.077  12.787  22.168  0.00  0.00    +0.000 OA
BRANCH  23  24
ATOM     24  C   UNL     1      -1.035  13.390  23.033  0.00  0.00    +0.000 C 
ATOM     25  C   UNL     1      -0.744  14.863  23.036  0.00  0.00    +0.000 C 
ENDBRANCH  23  24
ENDBRANCH  16  23
ENDBRANCH  11  13
ENDBRANCH   4  11
BRANCH   1  26
ATOM     26  C   UNL     1       3.835   6.285  16.995  0.00  0.00    +0.000 C 
BRANCH  26  27
ATOM     27  C   UNL     1       5.328   6.551  17.218  0.00  0.00    +0.000 C 
BRANCH  27  28
ATOM     28  C   UNL     1       6.123   5.312  17.626  0.00  0.00    +0.000 C 
BRANCH  28  30
ATOM     29  C   UNL     1       7.802   5.751  19.430  0.00  0.00    +0.000 C 
ATOM     30  C   UNL     1       6.382   5.314  19.134  0.00  0.00    +0.000 C 
ENDBRANCH  28  30
ENDBRANCH  27  28
ENDBRANCH  26  27
ENDBRANCH   1  26
TORSDOF 8
ENDMDL
MODEL 7
REMARK VINA RESULT:      -7.4      1.026      1.219
REMARK  Name = 
REMARK  11 active torsions:
REMARK  status: ('A' for Active; 'I' for Inactive)
REMARK    1  A    between atoms: C_1  and  C_2
REMARK    2  A    between atoms: C_2  and  C_3
REMARK    3  A    between atoms: C_3  and  C_4
REMARK    4  A    between atoms: C_4  and  C_5
REMARK    5  A    between atoms: C_5  and  N_6
REMARK    6  A    between atoms: C_7  and  C_8
REMARK    7  A    between atoms: C_9  and  C_10
REMARK    8  A    between atoms: C_10  and  C_12
REMARK    9  A    between atoms: C_15  and  O_16
REMARK   10  A    between atoms: O_16  and  C_17
REMARK   11  A    between atoms: C_17  and  C_18
REMARK                            x       y       z     vdW  Elec       q    Type
REMARK                         _______ _______ _______ _____ _____    ______ ____
ROOT
ATOM      1  N   UNL     1       0.682  12.133  20.143  0.00  0.00    +0.000 N 
ATOM      2  C   UNL     1       1.425  11.427  19.203  0.00  0.00    +0.000 A 
ATOM      3  C   UNL     1       2.250  12.138  18.182  0.00  0.00    +0.000 C 
ATOM      4  C   UNL     1       1.224  10.045  19.376  0.00  0.00    +0.000 A 
ATOM      5  C   UNL     1       0.561   9.971  20.717  0.00  0.00    +0.000 A 
ATOM      6  C   UNL     1       0.179   8.940  21.625  0.00  0.00    +0.000 A 
ATOM      7  C   UNL     1      -0.566   9.219  22.794  0.00  0.00    +0.000 A 
ATOM      8  C   UNL     1      -0.962  10.512  23.097  0.00  0.00    +0.000 A 
ATOM      9  C   UNL     1      -0.592  11.553  22.254  0.00  0.00    +0.000 A 
ATOM     10  C   UNL     1       0.178  11.271  21.097  0.00  0.00    +0.000 A 
ENDROOT
BRANCH   4  11
ATOM     11  C   UNL     1       1.623   8.934  18.299  0.00  0.00    +0.000 C 
ATOM     12  O   UNL     1       1.057   8.892  17.212  0.00  0.00    +0.000 OA
BRANCH  11  13
ATOM     13  C   UNL     1       2.633   7.749  18.675  0.00  0.00    +0.000 A 
ATOM     14  C   UNL     1       2.194   7.146  19.862  0.00  0.00    +0.000 A 
ATOM     15  C   UNL     1       2.671   5.903  20.127  0.00  0.00    +0.000 A 
ATOM     16  C   UNL     1       2.400   5.132  19.028  0.00  0.00    +0.000 A 
ATOM     17  C   UNL     1       3.064   5.478  17.893  0.00  0.00    +0.000 A 
ATOM     18  C   UNL     1       3.559   4.396  17.150  0.00  0.00    +0.000 A 
ATOM     19  C   UNL     1       4.769   4.525  16.516  0.00  0.00    +0.000 A 
ATOM     20  C   UNL     1       5.365   5.783  16.528  0.00  0.00    +0.000 A 
ATOM     21  C   UNL     1       4.690   6.937  17.062  0.00  0.00    +0.000 A 
ATOM     22  C   UNL     1       3.443   6.846  17.790  0.00  0.00    +0.000 A 
BRANCH  16  23
ATOM     23  O   UNL     1       1.492   4.129  19.021  0.00  0.00    +0.000 OA
BRANCH  23  24
ATOM     24  C   UNL     1       1.954   2.985  19.735  0.00  0.00    +0.000 C 
ATOM     25  C   UNL     1       1.164   2.926  21.010  0.00  0.00    +0.000 C 
ENDBRANCH  23  24
ENDBRANCH  16  23
ENDBRANCH  11  13
ENDBRANCH   4  11
BRANCH   1  26
ATOM     26  C   UNL     1       0.448  13.582  20.201  0.00  0.00    +0.000 C 
BRANCH  26  27
ATOM     27  C   UNL     1       1.376  14.359  21.142  0.00  0.00    +0.000 C 
BRANCH  27  28
ATOM     28  C   UNL     1       2.458  15.162  20.421  0.00  0.00    +0.000 C 
BRANCH  28  30
ATOM     29  C   UNL     1       4.802  15.006  19.560  0.00  0.00    +0.000 C 
ATOM     30  C   UNL     1       3.825  14.502  20.602  0.00  0.00    +0.000 C 
ENDBRANCH  28  30
ENDBRANCH  27  28
ENDBRANCH  26  27
ENDBRANCH   1  26
TORSDOF 8
ENDMDL
MODEL 8
REMARK VINA RESULT:      -7.4      1.890      8.810
REMARK  Name = 
REMARK  11 active torsions:
REMARK  status: ('A' for Active; 'I' for Inactive)
REMARK    1  A    between atoms: C_1  and  C_2
REMARK    2  A    between atoms: C_2  and  C_3
REMARK    3  A    between atoms: C_3  and  C_4
REMARK    4  A    between atoms: C_4  and  C_5
REMARK    5  A    between atoms: C_5  and  N_6
REMARK    6  A    between atoms: C_7  and  C_8
REMARK    7  A    between atoms: C_9  and  C_10
REMARK    8  A    between atoms: C_10  and  C_12
REMARK    9  A    between atoms: C_15  and  O_16
REMARK   10  A    between atoms: O_16  and  C_17
REMARK   11  A    between atoms: C_17  and  C_18
REMARK                            x       y       z     vdW  Elec       q    Type
REMARK                         _______ _______ _______ _____ _____    ______ ____
ROOT
ATOM      1  N   UNL     1       2.418   6.119  19.960  0.00  0.00    +0.000 N 
ATOM      2  C   UNL     1       1.752   7.325  20.145  0.00  0.00    +0.000 A 
ATOM      3  C   UNL     1       0.977   7.594  21.393  0.00  0.00    +0.000 C 
ATOM      4  C   UNL     1       1.915   8.141  19.010  0.00  0.00    +0.000 A 
ATOM      5  C   UNL     1       3.018   7.454  18.263  0.00  0.00    +0.000 A 
ATOM      6  C   UNL     1       3.821   7.733  17.120  0.00  0.00    +0.000 A 
ATOM      7  C   UNL     1       4.723   6.779  16.594  0.00  0.00    +0.000 A 
ATOM      8  C   UNL     1       4.851   5.525  17.171  0.00  0.00    +0.000 A 
ATOM      9  C   UNL     1       4.106   5.216  18.302  0.00  0.00    +0.000 A 
ATOM     10  C   UNL     1       3.224   6.186  18.841  0.00  0.00    +0.000 A 
ENDROOT
BRANCH   4  11
ATOM     11  C   UNL     1       1.038   9.439  18.697  0.00  0.00    +0.000 C 
ATOM     12  O   UNL     1       0.494   9.572  17.606  0.00  0.00    +0.000 OA
BRANCH  11  13
ATOM     13  C   UNL     1       0.994  10.669  19.722  0.00  0.00    +0.000 A 
ATOM     14  C   UNL     1       1.638  11.766  19.133  0.00  0.00    +0.000 A 
ATOM     15  C   UNL     1       1.367  12.987  19.659  0.00  0.00    +0.000 A 
ATOM     16  C   UNL     1       0.005  13.128  19.655  0.00  0.00    +0.000 A 
ATOM     17  C   UNL     1      -0.673  12.283  20.476  0.00  0.00    +0.000 A 
ATOM     18  C   UNL     1      -1.728  12.877  21.186  0.00  0.00    +0.000 A 
ATOM     19  C   UNL     1      -1.973  12.471  22.473  0.00  0.00    +0.000 A 
ATOM     20  C   UNL     1      -1.246  11.382  22.949  0.00  0.00    +0.000 A 
ATOM     21  C   UNL     1      -0.372  10.623  22.094  0.00  0.00    +0.000 A 
ATOM     22  C   UNL     1      -0.035  11.040  20.750  0.00  0.00    +0.000 A 
BRANCH  16  23
ATOM     23  O   UNL     1      -0.657  13.992  18.851  0.00  0.00    +0.000 OA
BRANCH  23  24
ATOM     24  C   UNL     1      -0.017  15.265  18.794  0.00  0.00    +0.000 C 
ATOM     25  C   UNL     1      -0.845  16.200  19.627  0.00  0.00    +0.000 C 
ENDBRANCH  23  24
ENDBRANCH  16  23
ENDBRANCH  11  13
ENDBRANCH   4  11
BRANCH   1  26
ATOM     26  C   UNL     1       2.350   4.917  20.800  0.00  0.00    +0.000 C 
BRANCH  26  27
ATOM     27  C   UNL     1       1.078   4.075  20.639  0.00  0.00    +0.000 C 
BRANCH  27  28
ATOM     28  C   UNL     1       1.325   2.685  20.055  0.00  0.00    +0.000 C 
BRANCH  28  30
ATOM     29  C   UNL     1       2.416   2.147  17.868  0.00  0.00    +0.000 C 
ATOM     30  C   UNL     1       1.176   2.708  18.534  0.00  0.00    +0.000 C 
ENDBRANCH  28  30
ENDBRANCH  27  28
ENDBRANCH  26  27
ENDBRANCH   1  26
TORSDOF 8
ENDMDL
MODEL 9
REMARK VINA RESULT:      -7.4      1.173      1.912
REMARK  Name = 
REMARK  11 active torsions:
REMARK  status: ('A' for Active; 'I' for Inactive)
REMARK    1  A    between atoms: C_1  and  C_2
REMARK    2  A    between atoms: C_2  and  C_3
REMARK    3  A    between atoms: C_3  and  C_4
REMARK    4  A    between atoms: C_4  and  C_5
REMARK    5  A    between atoms: C_5  and  N_6
REMARK    6  A    between atoms: C_7  and  C_8
REMARK    7  A    between atoms: C_9  and  C_10
REMARK    8  A    between atoms: C_10  and  C_12
REMARK    9  A    between atoms: C_15  and  O_16
REMARK   10  A    between atoms: O_16  and  C_17
REMARK   11  A    between atoms: C_17  and  C_18
REMARK                            x       y       z     vdW  Elec       q    Type
REMARK                         _______ _______ _______ _____ _____    ______ ____
ROOT
ATOM      1  N   UNL     1       0.880  11.807  20.000  0.00  0.00    +0.000 N 
ATOM      2  C   UNL     1       1.600  11.056  19.077  0.00  0.00    +0.000 A 
ATOM      3  C   UNL     1       2.437  11.716  18.032  0.00  0.00    +0.000 C 
ATOM      4  C   UNL     1       1.366   9.684  19.291  0.00  0.00    +0.000 A 
ATOM      5  C   UNL     1       0.708   9.665  20.637  0.00  0.00    +0.000 A 
ATOM      6  C   UNL     1       0.306   8.672  21.576  0.00  0.00    +0.000 A 
ATOM      7  C   UNL     1      -0.424   9.003  22.740  0.00  0.00    +0.000 A 
ATOM      8  C   UNL     1      -0.787  10.314  23.007  0.00  0.00    +0.000 A 
ATOM      9  C   UNL     1      -0.397  11.319  22.133  0.00  0.00    +0.000 A 
ATOM     10  C   UNL     1       0.360  10.986  20.981  0.00  0.00    +0.000 A 
ENDROOT
BRANCH   4  11
ATOM     11  C   UNL     1       1.732   8.533  18.246  0.00  0.00    +0.000 C 
ATOM     12  O   UNL     1       1.037   8.356  17.250  0.00  0.00    +0.000 OA
BRANCH  11  13
ATOM     13  C   UNL     1       2.894   7.476  18.558  0.00  0.00    +0.000 A 
ATOM     14  C   UNL     1       2.471   6.640  19.600  0.00  0.00    +0.000 A 
ATOM     15  C   UNL     1       3.128   5.461  19.741  0.00  0.00    +0.000 A 
ATOM     16  C   UNL     1       3.079   4.832  18.526  0.00  0.00    +0.000 A 
ATOM     17  C   UNL     1       3.761   5.444  17.522  0.00  0.00    +0.000 A 
ATOM     18  C   UNL     1       4.489   4.576  16.693  0.00  0.00    +0.000 A 
ATOM     19  C   UNL     1       5.705   4.986  16.210  0.00  0.00    +0.000 A 
ATOM     20  C   UNL     1       6.078   6.306  16.453  0.00  0.00    +0.000 A 
ATOM     21  C   UNL     1       5.179   7.246  17.068  0.00  0.00    +0.000 A 
ATOM     22  C   UNL     1       3.911   6.854  17.646  0.00  0.00    +0.000 A 
BRANCH  16  23
ATOM     23  O   UNL     1       2.356   3.713  18.290  0.00  0.00    +0.000 OA
BRANCH  23  24
ATOM     24  C   UNL     1       2.014   3.034  19.496  0.00  0.00    +0.000 C 
ATOM     25  C   UNL     1       0.559   2.678  19.392  0.00  0.00    +0.000 C 
ENDBRANCH  23  24
ENDBRANCH  16  23
ENDBRANCH  11  13
ENDBRANCH   4  11
BRANCH   1  26
ATOM     26  C   UNL     1       0.682  13.262  20.016  0.00  0.00    +0.000 C 
BRANCH  26  27
ATOM     27  C   UNL     1      -0.485  13.773  19.162  0.00  0.00    +0.000 C 
BRANCH  27  28
ATOM     28  C   UNL     1      -1.718  12.872  19.195  0.00  0.00    +0.000 C 
BRANCH  28  30
ATOM     29  C   UNL     1      -2.856  10.936  18.089  0.00  0.00    +0.000 C 
ATOM     30  C   UNL     1      -1.752  11.966  17.963  0.00  0.00    +0.000 C 
ENDBRANCH  28  30
ENDBRANCH  27  28
ENDBRANCH  26  27
ENDBRANCH   1  26
TORSDOF 8
ENDMDL
