MODEL 1
REMARK VINA RESULT:      -6.2      0.000      0.000
REMARK  Name = 
REMARK  6 active torsions:
REMARK  status: ('A' for Active; 'I' for Inactive)
REMARK    1  A    between atoms: C_1  and  C_2
REMARK    2  A    between atoms: C_2  and  C_3
REMARK    3  A    between atoms: C_5  and  C_6
REMARK    4  A    between atoms: C_6  and  N_7
REMARK    5  A    between atoms: C_10  and  O_11
REMARK    6  A    between atoms: O_11  and  C_12
REMARK                            x       y       z     vdW  Elec       q    Type
REMARK                         _______ _______ _______ _____ _____    ______ ____
ROOT
ATOM      1  N   UNL     1       5.896   3.730  16.760  0.00  0.00    +0.000 N 
ATOM      2  C   UNL     1       4.930   4.250  17.636  0.00  0.00    +0.000 A 
ATOM      3  C   UNL     1       4.194   3.365  18.416  0.00  0.00    +0.000 A 
ATOM      4  C   UNL     1       3.205   3.826  19.303  0.00  0.00    +0.000 A 
ATOM      5  C   UNL     1       2.985   5.199  19.377  0.00  0.00    +0.000 A 
ATOM      6 BR   UNL     1       1.745   6.118  20.475  0.00  0.00    +0.000 Br
ATOM      7  C   UNL     1       3.759   6.011  18.551  0.00  0.00    +0.000 A 
ATOM      8  N   UNL     1       4.705   5.571  17.689  0.00  0.00    +0.000 NA
ATOM      9  H   UNL     1       6.542   3.145  17.286  0.00  0.00    +0.000 HD
ENDROOT
BRANCH   4  10
ATOM     10  O   UNL     1       2.616   2.782  19.957  0.00  0.00    +0.000 OA
ATOM     11  C   UNL     1       2.701   2.653  21.364  0.00  0.00    +0.000 C 
ENDBRANCH   4  10
BRANCH   1  12
ATOM     12  C   UNL     1       6.631   4.756  16.012  0.00  0.00    +0.000 C 
BRANCH  12  15
ATOM     13  C   UNL     1       6.065   3.538  12.646  0.00  0.00    +0.000 A 
ATOM     14  N   UNL     1       5.825   3.628  13.937  0.00  0.00    +0.000 NA
ATOM     15  C   UNL     1       6.706   4.523  14.527  0.00  0.00    +0.000 A 
ATOM     16  C   UNL     1       7.590   5.123  13.649  0.00  0.00    +0.000 A 
ATOM     17  S   UNL     1       7.322   4.552  12.057  0.00  0.00    +0.000 S 
BRANCH  13  19
ATOM     18  C   UNL     1       4.042   3.253  11.222  0.00  0.00    +0.000 C 
ATOM     19  C   UNL     1       5.330   2.617  11.725  0.00  0.00    +0.000 C 
ENDBRANCH  13  19
ENDBRANCH  12  15
ENDBRANCH   1  12
TORSDOF 4
ENDMDL
MODEL 2
REMARK VINA RESULT:      -6.1      2.183      2.901
REMARK  Name = 
REMARK  6 active torsions:
REMARK  status: ('A' for Active; 'I' for Inactive)
REMARK    1  A    between atoms: C_1  and  C_2
REMARK    2  A    between atoms: C_2  and  C_3
REMARK    3  A    between atoms: C_5  and  C_6
REMARK    4  A    between atoms: C_6  and  N_7
REMARK    5  A    between atoms: C_10  and  O_11
REMARK    6  A    between atoms: O_11  and  C_12
REMARK                            x       y       z     vdW  Elec       q    Type
REMARK                         _______ _______ _______ _____ _____    ______ ____
ROOT
ATOM      1  N   UNL     1       6.018   5.701  18.331  0.00  0.00    +0.000 N 
ATOM      2  C   UNL     1       4.952   5.046  18.967  0.00  0.00    +0.000 A 
ATOM      3  C   UNL     1       3.949   5.815  19.548  0.00  0.00    +0.000 A 
ATOM      4  C   UNL     1       2.863   5.216  20.209  0.00  0.00    +0.000 A 
ATOM      5  C   UNL     1       2.820   3.825  20.264  0.00  0.00    +0.000 A 
ATOM      6 BR   UNL     1       1.492   2.736  21.062  0.00  0.00    +0.000 Br
ATOM      7  C   UNL     1       3.872   3.135  19.666  0.00  0.00    +0.000 A 
ATOM      8  N   UNL     1       4.925   3.707  19.038  0.00  0.00    +0.000 NA
ATOM      9  H   UNL     1       5.648   6.336  17.627  0.00  0.00    +0.000 HD
ENDROOT
BRANCH   4  10
ATOM     10  O   UNL     1       2.010   6.165  20.697  0.00  0.00    +0.000 OA
ATOM     11  C   UNL     1       1.857   7.416  20.055  0.00  0.00    +0.000 C 
ENDBRANCH   4  10
BRANCH   1  12
ATOM     12  C   UNL     1       6.998   4.790  17.729  0.00  0.00    +0.000 C 
BRANCH  12  15
ATOM     13  C   UNL     1       7.283   4.942  14.120  0.00  0.00    +0.000 A 
ATOM     14  N   UNL     1       7.605   5.262  15.355  0.00  0.00    +0.000 NA
ATOM     15  C   UNL     1       6.819   4.553  16.254  0.00  0.00    +0.000 A 
ATOM     16  C   UNL     1       5.925   3.676  15.668  0.00  0.00    +0.000 A 
ATOM     17  S   UNL     1       6.061   3.743  13.962  0.00  0.00    +0.000 S 
BRANCH  13  19
ATOM     18  C   UNL     1       7.484   4.843  11.639  0.00  0.00    +0.000 C 
ATOM     19  C   UNL     1       7.902   5.568  12.910  0.00  0.00    +0.000 C 
ENDBRANCH  13  19
ENDBRANCH  12  15
ENDBRANCH   1  12
TORSDOF 4
ENDMDL
MODEL 3
REMARK VINA RESULT:      -6.1      1.499      2.128
REMARK  Name = 
REMARK  6 active torsions:
REMARK  status: ('A' for Active; 'I' for Inactive)
REMARK    1  A    between atoms: C_1  and  C_2
REMARK    2  A    between atoms: C_2  and  C_3
REMARK    3  A    between atoms: C_5  and  C_6
REMARK    4  A    between atoms: C_6  and  N_7
REMARK    5  A    between atoms: C_10  and  O_11
REMARK    6  A    between atoms: O_11  and  C_12
REMARK                            x       y       z     vdW  Elec       q    Type
REMARK                         _______ _______ _______ _____ _____    ______ ____
ROOT
ATOM      1  N   UNL     1       5.620   5.420  17.191  0.00  0.00    +0.000 N 
ATOM      2  C   UNL     1       4.766   4.895  18.174  0.00  0.00    +0.000 A 
ATOM      3  C   UNL     1       3.805   5.729  18.736  0.00  0.00    +0.000 A 
ATOM      4  C   UNL     1       2.929   5.265  19.732  0.00  0.00    +0.000 A 
ATOM      5  C   UNL     1       3.053   3.939  20.141  0.00  0.00    +0.000 A 
ATOM      6 BR   UNL     1       2.020   3.025  21.439  0.00  0.00    +0.000 Br
ATOM      7  C   UNL     1       4.049   3.178  19.534  0.00  0.00    +0.000 A 
ATOM      8  N   UNL     1       4.901   3.625  18.582  0.00  0.00    +0.000 NA
ATOM      9  H   UNL     1       5.060   5.820  16.442  0.00  0.00    +0.000 HD
ENDROOT
BRANCH   4  10
ATOM     10  O   UNL     1       2.079   6.256  20.131  0.00  0.00    +0.000 OA
ATOM     11  C   UNL     1       2.179   7.566  19.606  0.00  0.00    +0.000 C 
ENDBRANCH   4  10
BRANCH   1  12
ATOM     12  C   UNL     1       6.570   4.442  16.650  0.00  0.00    +0.000 C 
BRANCH  12  15
ATOM     13  C   UNL     1       6.249   3.678  13.122  0.00  0.00    +0.000 A 
ATOM     14  N   UNL     1       5.978   3.534  14.402  0.00  0.00    +0.000 NA
ATOM     15  C   UNL     1       6.703   4.451  15.151  0.00  0.00    +0.000 A 
ATOM     16  C   UNL     1       7.496   5.303  14.405  0.00  0.00    +0.000 A 
ATOM     17  S   UNL     1       7.343   4.946  12.737  0.00  0.00    +0.000 S 
BRANCH  13  19
ATOM     18  C   UNL     1       4.374   3.377  11.511  0.00  0.00    +0.000 C 
ATOM     19  C   UNL     1       5.679   2.807  12.049  0.00  0.00    +0.000 C 
ENDBRANCH  13  19
ENDBRANCH  12  15
ENDBRANCH   1  12
TORSDOF 4
ENDMDL
MODEL 4
REMARK VINA RESULT:      -6.1      1.390      1.484
REMARK  Name = 
REMARK  6 active torsions:
REMARK  status: ('A' for Active; 'I' for Inactive)
REMARK    1  A    between atoms: C_1  and  C_2
REMARK    2  A    between atoms: C_2  and  C_3
REMARK    3  A    between atoms: C_5  and  C_6
REMARK    4  A    between atoms: C_6  and  N_7
REMARK    5  A    between atoms: C_10  and  O_11
REMARK    6  A    between atoms: O_11  and  C_12
REMARK                            x       y       z     vdW  Elec       q    Type
REMARK                         _______ _______ _______ _____ _____    ______ ____
ROOT
ATOM      1  N   UNL     1       5.588   3.900  16.612  0.00  0.00    +0.000 N 
ATOM      2  C   UNL     1       4.721   4.887  17.106  0.00  0.00    +0.000 A 
ATOM      3  C   UNL     1       3.560   4.487  17.759  0.00  0.00    +0.000 A 
ATOM      4  C   UNL     1       2.647   5.428  18.265  0.00  0.00    +0.000 A 
ATOM      5  C   UNL     1       2.942   6.778  18.093  0.00  0.00    +0.000 A 
ATOM      6 BR   UNL     1       1.928   8.270  18.671  0.00  0.00    +0.000 Br
ATOM      7  C   UNL     1       4.120   7.089  17.418  0.00  0.00    +0.000 A 
ATOM      8  N   UNL     1       4.996   6.186  16.919  0.00  0.00    +0.000 NA
ATOM      9  H   UNL     1       5.843   3.270  17.369  0.00  0.00    +0.000 HD
ENDROOT
BRANCH   4  10
ATOM     10  O   UNL     1       1.588   4.805  18.861  0.00  0.00    +0.000 OA
ATOM     11  C   UNL     1       1.279   3.453  18.582  0.00  0.00    +0.000 C 
ENDBRANCH   4  10
BRANCH   1  12
ATOM     12  C   UNL     1       6.793   4.438  15.970  0.00  0.00    +0.000 C 
BRANCH  12  15
ATOM     13  C   UNL     1       6.123   3.507  12.532  0.00  0.00    +0.000 A 
ATOM     14  N   UNL     1       5.949   3.457  13.836  0.00  0.00    +0.000 NA
ATOM     15  C   UNL     1       6.800   4.353  14.468  0.00  0.00    +0.000 A 
ATOM     16  C   UNL     1       7.592   5.095  13.610  0.00  0.00    +0.000 A 
ATOM     17  S   UNL     1       7.274   4.660  11.985  0.00  0.00    +0.000 S 
BRANCH  13  19
ATOM     18  C   UNL     1       4.028   3.189  11.224  0.00  0.00    +0.000 C 
ATOM     19  C   UNL     1       5.401   2.626  11.563  0.00  0.00    +0.000 C 
ENDBRANCH  13  19
ENDBRANCH  12  15
ENDBRANCH   1  12
TORSDOF 4
ENDMDL
MODEL 5
REMARK VINA RESULT:      -6.0      1.678      2.552
REMARK  Name = 
REMARK  6 active torsions:
REMARK  status: ('A' for Active; 'I' for Inactive)
REMARK    1  A    between atoms: C_1  and  C_2
REMARK    2  A    between atoms: C_2  and  C_3
REMARK    3  A    between atoms: C_5  and  C_6
REMARK    4  A    between atoms: C_6  and  N_7
REMARK    5  A    between atoms: C_10  and  O_11
REMARK    6  A    between atoms: O_11  and  C_12
REMARK                            x       y       z     vdW  Elec       q    Type
REMARK                         _______ _______ _______ _____ _____    ______ ____
ROOT
ATOM      1  N   UNL     1       5.757   6.048  16.310  0.00  0.00    +0.000 N 
ATOM      2  C   UNL     1       4.771   5.761  17.267  0.00  0.00    +0.000 A 
ATOM      3  C   UNL     1       3.901   6.776  17.651  0.00  0.00    +0.000 A 
ATOM      4  C   UNL     1       2.901   6.552  18.613  0.00  0.00    +0.000 A 
ATOM      5  C   UNL     1       2.808   5.280  19.172  0.00  0.00    +0.000 A 
ATOM      6 BR   UNL     1       1.568   4.670  20.468  0.00  0.00    +0.000 Br
ATOM      7  C   UNL     1       3.727   4.328  18.738  0.00  0.00    +0.000 A 
ATOM      8  N   UNL     1       4.698   4.541  17.820  0.00  0.00    +0.000 NA
ATOM      9  H   UNL     1       5.313   6.427  15.477  0.00  0.00    +0.000 HD
ENDROOT
BRANCH   4  10
ATOM     10  O   UNL     1       2.173   7.687  18.829  0.00  0.00    +0.000 OA
ATOM     11  C   UNL     1       2.112   8.716  17.860  0.00  0.00    +0.000 C 
ENDBRANCH   4  10
BRANCH   1  12
ATOM     12  C   UNL     1       6.596   4.896  15.961  0.00  0.00    +0.000 C 
BRANCH  12  15
ATOM     13  C   UNL     1       6.038   3.548  12.644  0.00  0.00    +0.000 A 
ATOM     14  N   UNL     1       5.786   3.698  13.927  0.00  0.00    +0.000 NA
ATOM     15  C   UNL     1       6.681   4.599  14.488  0.00  0.00    +0.000 A 
ATOM     16  C   UNL     1       7.587   5.141  13.595  0.00  0.00    +0.000 A 
ATOM     17  S   UNL     1       7.322   4.508  12.026  0.00  0.00    +0.000 S 
BRANCH  13  19
ATOM     18  C   UNL     1       6.183   1.459  11.295  0.00  0.00    +0.000 C 
ATOM     19  C   UNL     1       5.292   2.604  11.755  0.00  0.00    +0.000 C 
ENDBRANCH  13  19
ENDBRANCH  12  15
ENDBRANCH   1  12
TORSDOF 4
ENDMDL
MODEL 6
REMARK VINA RESULT:      -5.9      4.004      5.389
REMARK  Name = 
REMARK  6 active torsions:
REMARK  status: ('A' for Active; 'I' for Inactive)
REMARK    1  A    between atoms: C_1  and  C_2
REMARK    2  A    between atoms: C_2  and  C_3
REMARK    3  A    between atoms: C_5  and  C_6
REMARK    4  A    between atoms: C_6  and  N_7
REMARK    5  A    between atoms: C_10  and  O_11
REMARK    6  A    between atoms: O_11  and  C_12
REMARK                            x       y       z     vdW  Elec       q    Type
REMARK                         _______ _______ _______ _____ _____    ______ ____
ROOT
ATOM      1  N   UNL     1       2.982   7.104  17.905  0.00  0.00    +0.000 N 
ATOM      2  C   UNL     1       2.233   7.852  18.826  0.00  0.00    +0.000 A 
ATOM      3  C   UNL     1       1.656   9.045  18.401  0.00  0.00    +0.000 A 
ATOM      4  C   UNL     1       0.904   9.844  19.280  0.00  0.00    +0.000 A 
ATOM      5  C   UNL     1       0.754   9.403  20.593  0.00  0.00    +0.000 A 
ATOM      6 BR   UNL     1      -0.205  10.242  21.995  0.00  0.00    +0.000 Br
ATOM      7  C   UNL     1       1.374   8.204  20.934  0.00  0.00    +0.000 A 
ATOM      8  N   UNL     1       2.108   7.438  20.095  0.00  0.00    +0.000 NA
ATOM      9  H   UNL     1       2.410   6.914  17.085  0.00  0.00    +0.000 HD
ENDROOT
BRANCH   4  10
ATOM     10  O   UNL     1       0.442  10.961  18.644  0.00  0.00    +0.000 OA
ATOM     11  C   UNL     1      -0.924  11.099  18.302  0.00  0.00    +0.000 C 
ENDBRANCH   4  10
BRANCH   1  12
ATOM     12  C   UNL     1       3.515   5.853  18.455  0.00  0.00    +0.000 C 
BRANCH  12  15
ATOM     13  C   UNL     1       6.386   4.986  16.419  0.00  0.00    +0.000 A 
ATOM     14  N   UNL     1       5.131   5.324  16.627  0.00  0.00    +0.000 NA
ATOM     15  C   UNL     1       4.900   5.495  17.986  0.00  0.00    +0.000 A 
ATOM     16  C   UNL     1       6.012   5.308  18.785  0.00  0.00    +0.000 A 
ATOM     17  S   UNL     1       7.371   4.903  17.825  0.00  0.00    +0.000 S 
BRANCH  13  19
ATOM     18  C   UNL     1       5.869   4.167  14.125  0.00  0.00    +0.000 C 
ATOM     19  C   UNL     1       6.949   4.672  15.070  0.00  0.00    +0.000 C 
ENDBRANCH  13  19
ENDBRANCH  12  15
ENDBRANCH   1  12
TORSDOF 4
ENDMDL
MODEL 7
REMARK VINA RESULT:      -5.9      3.759      5.340
REMARK  Name = 
REMARK  6 active torsions:
REMARK  status: ('A' for Active; 'I' for Inactive)
REMARK    1  A    between atoms: C_1  and  C_2
REMARK    2  A    between atoms: C_2  and  C_3
REMARK    3  A    between atoms: C_5  and  C_6
REMARK    4  A    between atoms: C_6  and  N_7
REMARK    5  A    between atoms: C_10  and  O_11
REMARK    6  A    between atoms: O_11  and  C_12
REMARK                            x       y       z     vdW  Elec       q    Type
REMARK                         _______ _______ _______ _____ _____    ______ ____
ROOT
ATOM      1  N   UNL     1       2.869   5.494  19.018  0.00  0.00    +0.000 N 
ATOM      2  C   UNL     1       2.356   6.801  19.049  0.00  0.00    +0.000 A 
ATOM      3  C   UNL     1       1.939   7.324  20.269  0.00  0.00    +0.000 A 
ATOM      4  C   UNL     1       1.406   8.621  20.361  0.00  0.00    +0.000 A 
ATOM      5  C   UNL     1       1.307   9.369  19.190  0.00  0.00    +0.000 A 
ATOM      6 BR   UNL     1       0.652  11.135  18.994  0.00  0.00    +0.000 Br
ATOM      7  C   UNL     1       1.737   8.763  18.012  0.00  0.00    +0.000 A 
ATOM      8  N   UNL     1       2.241   7.510  17.917  0.00  0.00    +0.000 NA
ATOM      9  H   UNL     1       3.637   5.422  19.682  0.00  0.00    +0.000 HD
ENDROOT
BRANCH   4  10
ATOM     10  O   UNL     1       1.067   8.915  21.651  0.00  0.00    +0.000 OA
ATOM     11  C   UNL     1      -0.283   8.917  22.074  0.00  0.00    +0.000 C 
ENDBRANCH   4  10
BRANCH   1  12
ATOM     12  C   UNL     1       3.304   5.061  17.686  0.00  0.00    +0.000 C 
BRANCH  12  15
ATOM     13  C   UNL     1       6.824   5.916  17.829  0.00  0.00    +0.000 A 
ATOM     14  N   UNL     1       5.560   6.006  18.185  0.00  0.00    +0.000 NA
ATOM     15  C   UNL     1       4.792   5.104  17.461  0.00  0.00    +0.000 A 
ATOM     16  C   UNL     1       5.510   4.318  16.579  0.00  0.00    +0.000 A 
ATOM     17  S   UNL     1       7.173   4.717  16.648  0.00  0.00    +0.000 S 
BRANCH  13  19
ATOM     18  C   UNL     1       7.937   8.138  17.673  0.00  0.00    +0.000 C 
ATOM     19  C   UNL     1       7.907   6.789  18.378  0.00  0.00    +0.000 C 
ENDBRANCH  13  19
ENDBRANCH  12  15
ENDBRANCH   1  12
TORSDOF 4
ENDMDL
MODEL 8
REMARK VINA RESULT:      -5.8      5.197      7.371
REMARK  Name = 
REMARK  6 active torsions:
REMARK  status: ('A' for Active; 'I' for Inactive)
REMARK    1  A    between atoms: C_1  and  C_2
REMARK    2  A    between atoms: C_2  and  C_3
REMARK    3  A    between atoms: C_5  and  C_6
REMARK    4  A    between atoms: C_6  and  N_7
REMARK    5  A    between atoms: C_10  and  O_11
REMARK    6  A    between atoms: O_11  and  C_12
REMARK                            x       y       z     vdW  Elec       q    Type
REMARK                         _______ _______ _______ _____ _____    ______ ____
ROOT
ATOM      1  N   UNL     1       2.104   7.520  20.178  0.00  0.00    +0.000 N 
ATOM      2  C   UNL     1       1.480   8.778  20.157  0.00  0.00    +0.000 A 
ATOM      3  C   UNL     1       1.048   9.326  21.360  0.00  0.00    +0.000 A 
ATOM      4  C   UNL     1       0.407  10.576  21.402  0.00  0.00    +0.000 A 
ATOM      5  C   UNL     1       0.218  11.251  20.199  0.00  0.00    +0.000 A 
ATOM      6 BR   UNL     1      -0.591  12.943  19.933  0.00  0.00    +0.000 Br
ATOM      7  C   UNL     1       0.672  10.624  19.041  0.00  0.00    +0.000 A 
ATOM      8  N   UNL     1       1.279   9.415  18.995  0.00  0.00    +0.000 NA
ATOM      9  H   UNL     1       2.889   7.547  20.824  0.00  0.00    +0.000 HD
ENDROOT
BRANCH   4  10
ATOM     10  O   UNL     1       0.073  10.907  22.684  0.00  0.00    +0.000 OA
ATOM     11  C   UNL     1      -1.225  10.664  23.192  0.00  0.00    +0.000 C 
ENDBRANCH   4  10
BRANCH   1  12
ATOM     12  C   UNL     1       2.544   7.056  18.858  0.00  0.00    +0.000 C 
BRANCH  12  15
ATOM     13  C   UNL     1       2.011   3.499  19.304  0.00  0.00    +0.000 A 
ATOM     14  N   UNL     1       1.890   4.771  19.620  0.00  0.00    +0.000 NA
ATOM     15  C   UNL     1       2.529   5.562  18.675  0.00  0.00    +0.000 A 
ATOM     16  C   UNL     1       3.104   4.860  17.632  0.00  0.00    +0.000 A 
ATOM     17  S   UNL     1       2.850   3.179  17.839  0.00  0.00    +0.000 S 
BRANCH  13  19
ATOM     18  C   UNL     1       1.565   2.718  21.626  0.00  0.00    +0.000 C 
ATOM     19  C   UNL     1       1.484   2.380  20.145  0.00  0.00    +0.000 C 
ENDBRANCH  13  19
ENDBRANCH  12  15
ENDBRANCH   1  12
TORSDOF 4
ENDMDL
MODEL 9
REMARK VINA RESULT:      -5.8      6.938      8.036
REMARK  Name = 
REMARK  6 active torsions:
REMARK  status: ('A' for Active; 'I' for Inactive)
REMARK    1  A    between atoms: C_1  and  C_2
REMARK    2  A    between atoms: C_2  and  C_3
REMARK    3  A    between atoms: C_5  and  C_6
REMARK    4  A    between atoms: C_6  and  N_7
REMARK    5  A    between atoms: C_10  and  O_11
REMARK    6  A    between atoms: O_11  and  C_12
REMARK                            x       y       z     vdW  Elec       q    Type
REMARK                         _______ _______ _______ _____ _____    ______ ____
ROOT
ATOM      1  N   UNL     1       8.238   9.249  17.777  0.00  0.00    +0.000 N 
ATOM      2  C   UNL     1       8.731  10.369  18.464  0.00  0.00    +0.000 A 
ATOM      3  C   UNL     1       8.565  11.626  17.892  0.00  0.00    +0.000 A 
ATOM      4  C   UNL     1       9.047  12.784  18.527  0.00  0.00    +0.000 A 
ATOM      5  C   UNL     1       9.696  12.634  19.750  0.00  0.00    +0.000 A 
ATOM      6 BR   UNL     1      10.435  13.991  20.845  0.00  0.00    +0.000 Br
ATOM      7  C   UNL     1       9.828  11.338  20.243  0.00  0.00    +0.000 A 
ATOM      8  N   UNL     1       9.375  10.220  19.630  0.00  0.00    +0.000 NA
ATOM      9  H   UNL     1       7.250   9.387  17.577  0.00  0.00    +0.000 HD
ENDROOT
BRANCH   4  10
ATOM     10  O   UNL     1       8.772  13.895  17.782  0.00  0.00    +0.000 OA
ATOM     11  C   UNL     1       7.503  14.518  17.832  0.00  0.00    +0.000 C 
ENDBRANCH   4  10
BRANCH   1  12
ATOM     12  C   UNL     1       8.442   7.982  18.488  0.00  0.00    +0.000 C 
BRANCH  12  15
ATOM     13  C   UNL     1       6.294   5.844  16.501  0.00  0.00    +0.000 A 
ATOM     14  N   UNL     1       7.010   6.922  16.740  0.00  0.00    +0.000 NA
ATOM     15  C   UNL     1       7.600   6.836  17.994  0.00  0.00    +0.000 A 
ATOM     16  C   UNL     1       7.336   5.662  18.674  0.00  0.00    +0.000 A 
ATOM     17  S   UNL     1       6.325   4.648  17.735  0.00  0.00    +0.000 S 
BRANCH  13  19
ATOM     18  C   UNL     1       5.868   4.354  14.551  0.00  0.00    +0.000 C 
ATOM     19  C   UNL     1       5.482   5.644  15.261  0.00  0.00    +0.000 C 
ENDBRANCH  13  19
ENDBRANCH  12  15
ENDBRANCH   1  12
TORSDOF 4
ENDMDL
