MODEL 1
REMARK VINA RESULT:      -8.5      0.000      0.000
REMARK  Name = 
REMARK  4 active torsions:
REMARK  status: ('A' for Active; 'I' for Inactive)
REMARK    1  A    between atoms: C_1  and  C_2
REMARK    2  A    between atoms: C_4  and  C_5
REMARK    3  A    between atoms: N_7  and  N_8
REMARK    4  A    between atoms: C_9  and  C_10
REMARK                            x       y       z     vdW  Elec       q    Type
REMARK                         _______ _______ _______ _____ _____    ______ ____
ROOT
ATOM      1  C   UNL     1       7.452   6.548  17.985  0.00  0.00    +0.000 C 
ATOM      2  O   UNL     1       8.060   6.046  18.928  0.00  0.00    +0.000 OA
ATOM      3  N   UNL     1       7.643   7.866  17.566  0.00  0.00    +0.000 N 
ATOM      4  H   UNL     1       7.104   8.282  16.817  0.00  0.00    +0.000 HD
ENDROOT
BRANCH   1   8
ATOM      5  C   UNL     1       6.219   3.915  13.896  0.00  0.00    +0.000 C 
ATOM      6  C   UNL     1       5.920   4.445  15.265  0.00  0.00    +0.000 A 
ATOM      7  C   UNL     1       6.808   5.268  15.939  0.00  0.00    +0.000 A 
ATOM      8  C   UNL     1       6.462   5.722  17.220  0.00  0.00    +0.000 A 
ATOM      9  C   UNL     1       5.223   5.321  17.805  0.00  0.00    +0.000 A 
ATOM     10  C   UNL     1       4.733   5.705  19.086  0.00  0.00    +0.000 A 
ATOM     11  C   UNL     1       3.515   5.235  19.580  0.00  0.00    +0.000 A 
ATOM     12  C   UNL     1       2.749   4.379  18.809  0.00  0.00    +0.000 A 
ATOM     13  C   UNL     1       3.204   4.010  17.543  0.00  0.00    +0.000 A 
ATOM     14  C   UNL     1       4.412   4.466  17.031  0.00  0.00    +0.000 A 
ATOM     15  N   UNL     1       4.747   4.055  15.800  0.00  0.00    +0.000 NA
ENDBRANCH   1   8
BRANCH   3  16
ATOM     16  N   UNL     1       8.500   8.648  18.287  0.00  0.00    +0.000 NA
ATOM     17  C   UNL     1       8.594   9.897  17.972  0.00  0.00    +0.000 C 
BRANCH  17  18
ATOM     18  C   UNL     1       9.481  10.801  18.742  0.00  0.00    +0.000 A 
ATOM     19  C   UNL     1      10.470  11.537  18.092  0.00  0.00    +0.000 A 
ATOM     20  C   UNL     1      11.282  12.352  18.863  0.00  0.00    +0.000 A 
ATOM     21  N   UNL     1      11.166  12.471  20.204  0.00  0.00    +0.000 NA
ATOM     22  C   UNL     1      10.198  11.748  20.800  0.00  0.00    +0.000 A 
ATOM     23  C   UNL     1       9.332  10.904  20.123  0.00  0.00    +0.000 A 
ENDBRANCH  17  18
ENDBRANCH   3  16
TORSDOF 3
ENDMDL
MODEL 2
REMARK VINA RESULT:      -8.5      0.066      1.006
REMARK  Name = 
REMARK  4 active torsions:
REMARK  status: ('A' for Active; 'I' for Inactive)
REMARK    1  A    between atoms: C_1  and  C_2
REMARK    2  A    between atoms: C_4  and  C_5
REMARK    3  A    between atoms: N_7  and  N_8
REMARK    4  A    between atoms: C_9  and  C_10
REMARK                            x       y       z     vdW  Elec       q    Type
REMARK                         _______ _______ _______ _____ _____    ______ ____
ROOT
ATOM      1  C   UNL     1       7.443   6.552  17.982  0.00  0.00    +0.000 C 
ATOM      2  O   UNL     1       7.995   6.066  18.966  0.00  0.00    +0.000 OA
ATOM      3  N   UNL     1       7.691   7.849  17.528  0.00  0.00    +0.000 N 
ATOM      4  H   UNL     1       7.198   8.255  16.742  0.00  0.00    +0.000 HD
ENDROOT
BRANCH   1   8
ATOM      5  C   UNL     1       6.252   3.954  13.857  0.00  0.00    +0.000 C 
ATOM      6  C   UNL     1       5.941   4.469  15.230  0.00  0.00    +0.000 A 
ATOM      7  C   UNL     1       6.820   5.290  15.919  0.00  0.00    +0.000 A 
ATOM      8  C   UNL     1       6.463   5.729  17.201  0.00  0.00    +0.000 A 
ATOM      9  C   UNL     1       5.222   5.316  17.773  0.00  0.00    +0.000 A 
ATOM     10  C   UNL     1       4.721   5.684  19.054  0.00  0.00    +0.000 A 
ATOM     11  C   UNL     1       3.502   5.203  19.536  0.00  0.00    +0.000 A 
ATOM     12  C   UNL     1       2.745   4.351  18.750  0.00  0.00    +0.000 A 
ATOM     13  C   UNL     1       3.211   3.997  17.484  0.00  0.00    +0.000 A 
ATOM     14  C   UNL     1       4.420   4.464  16.985  0.00  0.00    +0.000 A 
ATOM     15  N   UNL     1       4.766   4.067  15.753  0.00  0.00    +0.000 NA
ENDBRANCH   1   8
BRANCH   3  16
ATOM     16  N   UNL     1       8.539   8.630  18.260  0.00  0.00    +0.000 NA
ATOM     17  C   UNL     1       8.581   9.894  17.996  0.00  0.00    +0.000 C 
BRANCH  17  18
ATOM     18  C   UNL     1       9.456  10.797  18.781  0.00  0.00    +0.000 A 
ATOM     19  C   UNL     1       9.342  10.856  20.169  0.00  0.00    +0.000 A 
ATOM     20  C   UNL     1      10.172  11.730  20.850  0.00  0.00    +0.000 A 
ATOM     21  N   UNL     1      11.081  12.524  20.244  0.00  0.00    +0.000 NA
ATOM     22  C   UNL     1      11.169  12.440  18.902  0.00  0.00    +0.000 A 
ATOM     23  C   UNL     1      10.387  11.599  18.126  0.00  0.00    +0.000 A 
ENDBRANCH  17  18
ENDBRANCH   3  16
TORSDOF 3
ENDMDL
MODEL 3
REMARK VINA RESULT:      -8.1      4.954      6.896
REMARK  Name = 
REMARK  4 active torsions:
REMARK  status: ('A' for Active; 'I' for Inactive)
REMARK    1  A    between atoms: C_1  and  C_2
REMARK    2  A    between atoms: C_4  and  C_5
REMARK    3  A    between atoms: N_7  and  N_8
REMARK    4  A    between atoms: C_9  and  C_10
REMARK                            x       y       z     vdW  Elec       q    Type
REMARK                         _______ _______ _______ _____ _____    ______ ____
ROOT
ATOM      1  C   UNL     1       2.667   7.442  18.262  0.00  0.00    +0.000 C 
ATOM      2  O   UNL     1       2.330   8.280  17.430  0.00  0.00    +0.000 OA
ATOM      3  N   UNL     1       2.259   7.480  19.597  0.00  0.00    +0.000 N 
ATOM      4  H   UNL     1       2.580   6.809  20.284  0.00  0.00    +0.000 HD
ENDROOT
BRANCH   1   8
ATOM      5  C   UNL     1       7.146   5.700  16.820  0.00  0.00    +0.000 C 
ATOM      6  C   UNL     1       5.709   5.499  17.192  0.00  0.00    +0.000 A 
ATOM      7  C   UNL     1       4.880   6.565  17.504  0.00  0.00    +0.000 A 
ATOM      8  C   UNL     1       3.547   6.300  17.847  0.00  0.00    +0.000 A 
ATOM      9  C   UNL     1       3.077   4.953  17.883  0.00  0.00    +0.000 A 
ATOM     10  C   UNL     1       1.756   4.529  18.204  0.00  0.00    +0.000 A 
ATOM     11  C   UNL     1       1.401   3.180  18.237  0.00  0.00    +0.000 A 
ATOM     12  C   UNL     1       2.350   2.217  17.942  0.00  0.00    +0.000 A 
ATOM     13  C   UNL     1       3.644   2.615  17.606  0.00  0.00    +0.000 A 
ATOM     14  C   UNL     1       4.018   3.952  17.565  0.00  0.00    +0.000 A 
ATOM     15  N   UNL     1       5.285   4.221  17.221  0.00  0.00    +0.000 NA
ENDBRANCH   1   8
BRANCH   3  16
ATOM     16  N   UNL     1       1.503   8.543  20.003  0.00  0.00    +0.000 NA
ATOM     17  C   UNL     1       1.209   8.636  21.257  0.00  0.00    +0.000 C 
BRANCH  17  18
ATOM     18  C   UNL     1       0.422   9.785  21.761  0.00  0.00    +0.000 A 
ATOM     19  C   UNL     1      -0.468   9.619  22.821  0.00  0.00    +0.000 A 
ATOM     20  C   UNL     1      -1.191  10.723  23.239  0.00  0.00    +0.000 A 
ATOM     21  N   UNL     1      -1.080  11.947  22.677  0.00  0.00    +0.000 NA
ATOM     22  C   UNL     1      -0.209  12.075  21.658  0.00  0.00    +0.000 A 
ATOM     23  C   UNL     1       0.563  11.036  21.162  0.00  0.00    +0.000 A 
ENDBRANCH  17  18
ENDBRANCH   3  16
TORSDOF 3
ENDMDL
MODEL 4
REMARK VINA RESULT:      -8.0      5.069      7.146
REMARK  Name = 
REMARK  4 active torsions:
REMARK  status: ('A' for Active; 'I' for Inactive)
REMARK    1  A    between atoms: C_1  and  C_2
REMARK    2  A    between atoms: C_4  and  C_5
REMARK    3  A    between atoms: N_7  and  N_8
REMARK    4  A    between atoms: C_9  and  C_10
REMARK                            x       y       z     vdW  Elec       q    Type
REMARK                         _______ _______ _______ _____ _____    ______ ____
ROOT
ATOM      1  C   UNL     1       2.572   7.008  18.755  0.00  0.00    +0.000 C 
ATOM      2  O   UNL     1       2.203   7.678  17.794  0.00  0.00    +0.000 OA
ATOM      3  N   UNL     1       2.222   7.303  20.074  0.00  0.00    +0.000 N 
ATOM      4  H   UNL     1       2.568   6.770  20.862  0.00  0.00    +0.000 HD
ENDROOT
BRANCH   1   8
ATOM      5  C   UNL     1       7.088   4.944  18.033  0.00  0.00    +0.000 C 
ATOM      6  C   UNL     1       5.605   4.844  18.218  0.00  0.00    +0.000 A 
ATOM      7  C   UNL     1       4.808   5.970  18.354  0.00  0.00    +0.000 A 
ATOM      8  C   UNL     1       3.428   5.798  18.529  0.00  0.00    +0.000 A 
ATOM      9  C   UNL     1       2.876   4.482  18.576  0.00  0.00    +0.000 A 
ATOM     10  C   UNL     1       1.502   4.150  18.738  0.00  0.00    +0.000 A 
ATOM     11  C   UNL     1       1.064   2.825  18.799  0.00  0.00    +0.000 A 
ATOM     12  C   UNL     1       1.984   1.797  18.690  0.00  0.00    +0.000 A 
ATOM     13  C   UNL     1       3.332   2.104  18.510  0.00  0.00    +0.000 A 
ATOM     14  C   UNL     1       3.789   3.415  18.445  0.00  0.00    +0.000 A 
ATOM     15  N   UNL     1       5.104   3.594  18.261  0.00  0.00    +0.000 NA
ENDBRANCH   1   8
BRANCH   3  16
ATOM     16  N   UNL     1       1.489   8.433  20.303  0.00  0.00    +0.000 NA
ATOM     17  C   UNL     1       0.719   8.458  21.339  0.00  0.00    +0.000 C 
BRANCH  17  18
ATOM     18  C   UNL     1      -0.073   9.670  21.658  0.00  0.00    +0.000 A 
ATOM     19  C   UNL     1      -0.293  10.643  20.684  0.00  0.00    +0.000 A 
ATOM     20  C   UNL     1      -1.024  11.763  21.041  0.00  0.00    +0.000 A 
ATOM     21  N   UNL     1      -1.533  11.961  22.277  0.00  0.00    +0.000 NA
ATOM     22  C   UNL     1      -1.306  11.001  23.194  0.00  0.00    +0.000 A 
ATOM     23  C   UNL     1      -0.588   9.842  22.941  0.00  0.00    +0.000 A 
ENDBRANCH  17  18
ENDBRANCH   3  16
TORSDOF 3
ENDMDL
MODEL 5
REMARK VINA RESULT:      -7.9      0.705      2.989
REMARK  Name = 
REMARK  4 active torsions:
REMARK  status: ('A' for Active; 'I' for Inactive)
REMARK    1  A    between atoms: C_1  and  C_2
REMARK    2  A    between atoms: C_4  and  C_5
REMARK    3  A    between atoms: N_7  and  N_8
REMARK    4  A    between atoms: C_9  and  C_10
REMARK                            x       y       z     vdW  Elec       q    Type
REMARK                         _______ _______ _______ _____ _____    ______ ____
ROOT
ATOM      1  C   UNL     1       7.398   6.417  18.375  0.00  0.00    +0.000 C 
ATOM      2  O   UNL     1       8.181   5.931  19.187  0.00  0.00    +0.000 OA
ATOM      3  N   UNL     1       7.515   7.719  17.885  0.00  0.00    +0.000 N 
ATOM      4  H   UNL     1       6.839   8.125  17.250  0.00  0.00    +0.000 HD
ENDROOT
BRANCH   1   8
ATOM      5  C   UNL     1       2.838   4.414  18.978  0.00  0.00    +0.000 C 
ATOM      6  C   UNL     1       4.068   4.675  18.164  0.00  0.00    +0.000 A 
ATOM      7  C   UNL     1       5.146   5.379  18.676  0.00  0.00    +0.000 A 
ATOM      8  C   UNL     1       6.262   5.589  17.854  0.00  0.00    +0.000 A 
ATOM      9  C   UNL     1       6.262   5.091  16.516  0.00  0.00    +0.000 A 
ATOM     10  C   UNL     1       7.319   5.216  15.570  0.00  0.00    +0.000 A 
ATOM     11  C   UNL     1       7.210   4.715  14.271  0.00  0.00    +0.000 A 
ATOM     12  C   UNL     1       6.051   4.067  13.884  0.00  0.00    +0.000 A 
ATOM     13  C   UNL     1       5.014   3.917  14.805  0.00  0.00    +0.000 A 
ATOM     14  C   UNL     1       5.101   4.406  16.102  0.00  0.00    +0.000 A 
ATOM     15  N   UNL     1       4.048   4.198  16.905  0.00  0.00    +0.000 NA
ENDBRANCH   1   8
BRANCH   3  16
ATOM     16  N   UNL     1       8.511   8.505  18.391  0.00  0.00    +0.000 NA
ATOM     17  C   UNL     1       8.445   9.778  18.185  0.00  0.00    +0.000 C 
BRANCH  17  18
ATOM     18  C   UNL     1       9.479  10.684  18.739  0.00  0.00    +0.000 A 
ATOM     19  C   UNL     1       9.545  10.920  20.111  0.00  0.00    +0.000 A 
ATOM     20  C   UNL     1      10.519  11.789  20.573  0.00  0.00    +0.000 A 
ATOM     21  N   UNL     1      11.404  12.417  19.768  0.00  0.00    +0.000 NA
ATOM     22  C   UNL     1      11.315  12.165  18.447  0.00  0.00    +0.000 A 
ATOM     23  C   UNL     1      10.379  11.313  17.882  0.00  0.00    +0.000 A 
ENDBRANCH  17  18
ENDBRANCH   3  16
TORSDOF 3
ENDMDL
MODEL 6
REMARK VINA RESULT:      -7.8      0.783      2.811
REMARK  Name = 
REMARK  4 active torsions:
REMARK  status: ('A' for Active; 'I' for Inactive)
REMARK    1  A    between atoms: C_1  and  C_2
REMARK    2  A    between atoms: C_4  and  C_5
REMARK    3  A    between atoms: N_7  and  N_8
REMARK    4  A    between atoms: C_9  and  C_10
REMARK                            x       y       z     vdW  Elec       q    Type
REMARK                         _______ _______ _______ _____ _____    ______ ____
ROOT
ATOM      1  C   UNL     1       7.463   6.312  18.467  0.00  0.00    +0.000 C 
ATOM      2  O   UNL     1       8.204   5.918  19.364  0.00  0.00    +0.000 OA
ATOM      3  N   UNL     1       7.612   7.550  17.840  0.00  0.00    +0.000 N 
ATOM      4  H   UNL     1       6.969   7.884  17.133  0.00  0.00    +0.000 HD
ENDROOT
BRANCH   1   8
ATOM      5  C   UNL     1       3.073   4.026  19.288  0.00  0.00    +0.000 C 
ATOM      6  C   UNL     1       4.232   4.383  18.408  0.00  0.00    +0.000 A 
ATOM      7  C   UNL     1       5.298   5.135  18.874  0.00  0.00    +0.000 A 
ATOM      8  C   UNL     1       6.345   5.433  17.991  0.00  0.00    +0.000 A 
ATOM      9  C   UNL     1       6.288   4.976  16.641  0.00  0.00    +0.000 A 
ATOM     10  C   UNL     1       7.273   5.192  15.635  0.00  0.00    +0.000 A 
ATOM     11  C   UNL     1       7.110   4.723  14.330  0.00  0.00    +0.000 A 
ATOM     12  C   UNL     1       5.966   4.019  13.995  0.00  0.00    +0.000 A 
ATOM     13  C   UNL     1       5.001   3.781  14.972  0.00  0.00    +0.000 A 
ATOM     14  C   UNL     1       5.143   4.237  16.277  0.00  0.00    +0.000 A 
ATOM     15  N   UNL     1       4.158   3.943  17.137  0.00  0.00    +0.000 NA
ENDBRANCH   1   8
BRANCH   3  16
ATOM     16  N   UNL     1       8.592   8.385  18.299  0.00  0.00    +0.000 NA
ATOM     17  C   UNL     1       8.362   9.656  18.287  0.00  0.00    +0.000 C 
BRANCH  17  18
ATOM     18  C   UNL     1       9.373  10.607  18.806  0.00  0.00    +0.000 A 
ATOM     19  C   UNL     1      10.279  11.214  17.938  0.00  0.00    +0.000 A 
ATOM     20  C   UNL     1      11.214  12.080  18.480  0.00  0.00    +0.000 A 
ATOM     21  N   UNL     1      11.293  12.366  19.798  0.00  0.00    +0.000 NA
ATOM     22  C   UNL     1      10.401  11.766  20.609  0.00  0.00    +0.000 A 
ATOM     23  C   UNL     1       9.426  10.884  20.171  0.00  0.00    +0.000 A 
ENDBRANCH  17  18
ENDBRANCH   3  16
TORSDOF 3
ENDMDL
MODEL 7
REMARK VINA RESULT:      -7.8      4.890      7.166
REMARK  Name = 
REMARK  4 active torsions:
REMARK  status: ('A' for Active; 'I' for Inactive)
REMARK    1  A    between atoms: C_1  and  C_2
REMARK    2  A    between atoms: C_4  and  C_5
REMARK    3  A    between atoms: N_7  and  N_8
REMARK    4  A    between atoms: C_9  and  C_10
REMARK                            x       y       z     vdW  Elec       q    Type
REMARK                         _______ _______ _______ _____ _____    ______ ____
ROOT
ATOM      1  C   UNL     1       2.582   7.055  18.572  0.00  0.00    +0.000 C 
ATOM      2  O   UNL     1       2.306   7.895  17.719  0.00  0.00    +0.000 OA
ATOM      3  N   UNL     1       2.302   7.221  19.929  0.00  0.00    +0.000 N 
ATOM      4  H   UNL     1       2.575   6.543  20.629  0.00  0.00    +0.000 HD
ENDROOT
BRANCH   1   8
ATOM      5  C   UNL     1       2.348   2.107  17.771  0.00  0.00    +0.000 C 
ATOM      6  C   UNL     1       3.081   3.414  17.758  0.00  0.00    +0.000 A 
ATOM      7  C   UNL     1       2.494   4.586  18.208  0.00  0.00    +0.000 A 
ATOM      8  C   UNL     1       3.239   5.771  18.160  0.00  0.00    +0.000 A 
ATOM      9  C   UNL     1       4.569   5.754  17.643  0.00  0.00    +0.000 A 
ATOM     10  C   UNL     1       5.448   6.869  17.539  0.00  0.00    +0.000 A 
ATOM     11  C   UNL     1       6.727   6.753  16.991  0.00  0.00    +0.000 A 
ATOM     12  C   UNL     1       7.168   5.521  16.541  0.00  0.00    +0.000 A 
ATOM     13  C   UNL     1       6.327   4.413  16.654  0.00  0.00    +0.000 A 
ATOM     14  C   UNL     1       5.052   4.506  17.197  0.00  0.00    +0.000 A 
ATOM     15  N   UNL     1       4.334   3.377  17.265  0.00  0.00    +0.000 NA
ENDBRANCH   1   8
BRANCH   3  16
ATOM     16  N   UNL     1       1.755   8.408  20.328  0.00  0.00    +0.000 NA
ATOM     17  C   UNL     1       0.820   8.377  21.219  0.00  0.00    +0.000 C 
BRANCH  17  18
ATOM     18  C   UNL     1       0.214   9.635  21.716  0.00  0.00    +0.000 A 
ATOM     19  C   UNL     1      -0.603   9.625  22.845  0.00  0.00    +0.000 A 
ATOM     20  C   UNL     1      -1.158  10.826  23.254  0.00  0.00    +0.000 A 
ATOM     21  N   UNL     1      -0.949  12.001  22.619  0.00  0.00    +0.000 NA
ATOM     22  C   UNL     1      -0.153  11.977  21.534  0.00  0.00    +0.000 A 
ATOM     23  C   UNL     1       0.452  10.831  21.041  0.00  0.00    +0.000 A 
ENDBRANCH  17  18
ENDBRANCH   3  16
TORSDOF 3
ENDMDL
MODEL 8
REMARK VINA RESULT:      -7.8      4.871      7.080
REMARK  Name = 
REMARK  4 active torsions:
REMARK  status: ('A' for Active; 'I' for Inactive)
REMARK    1  A    between atoms: C_1  and  C_2
REMARK    2  A    between atoms: C_4  and  C_5
REMARK    3  A    between atoms: N_7  and  N_8
REMARK    4  A    between atoms: C_9  and  C_10
REMARK                            x       y       z     vdW  Elec       q    Type
REMARK                         _______ _______ _______ _____ _____    ______ ____
ROOT
ATOM      1  C   UNL     1       2.565   7.011  18.544  0.00  0.00    +0.000 C 
ATOM      2  O   UNL     1       2.240   7.826  17.684  0.00  0.00    +0.000 OA
ATOM      3  N   UNL     1       2.331   7.203  19.907  0.00  0.00    +0.000 N 
ATOM      4  H   UNL     1       2.643   6.546  20.611  0.00  0.00    +0.000 HD
ENDROOT
BRANCH   1   8
ATOM      5  C   UNL     1       2.366   2.061  17.751  0.00  0.00    +0.000 C 
ATOM      6  C   UNL     1       3.091   3.372  17.738  0.00  0.00    +0.000 A 
ATOM      7  C   UNL     1       2.494   4.541  18.184  0.00  0.00    +0.000 A 
ATOM      8  C   UNL     1       3.231   5.731  18.137  0.00  0.00    +0.000 A 
ATOM      9  C   UNL     1       4.564   5.722  17.625  0.00  0.00    +0.000 A 
ATOM     10  C   UNL     1       5.436   6.843  17.523  0.00  0.00    +0.000 A 
ATOM     11  C   UNL     1       6.717   6.734  16.980  0.00  0.00    +0.000 A 
ATOM     12  C   UNL     1       7.168   5.504  16.534  0.00  0.00    +0.000 A 
ATOM     13  C   UNL     1       6.335   4.391  16.646  0.00  0.00    +0.000 A 
ATOM     14  C   UNL     1       5.057   4.476  17.183  0.00  0.00    +0.000 A 
ATOM     15  N   UNL     1       4.346   3.342  17.250  0.00  0.00    +0.000 NA
ENDBRANCH   1   8
BRANCH   3  16
ATOM     16  N   UNL     1       1.775   8.388  20.299  0.00  0.00    +0.000 NA
ATOM     17  C   UNL     1       0.849   8.356  21.199  0.00  0.00    +0.000 C 
BRANCH  17  18
ATOM     18  C   UNL     1       0.234   9.613  21.689  0.00  0.00    +0.000 A 
ATOM     19  C   UNL     1       0.502  10.823  21.051  0.00  0.00    +0.000 A 
ATOM     20  C   UNL     1      -0.085  11.968  21.562  0.00  0.00    +0.000 A 
ATOM     21  N   UNL     1      -0.899  11.974  22.640  0.00  0.00    +0.000 NA
ATOM     22  C   UNL     1      -1.140  10.788  23.232  0.00  0.00    +0.000 A 
ATOM     23  C   UNL     1      -0.604   9.584  22.801  0.00  0.00    +0.000 A 
ENDBRANCH  17  18
ENDBRANCH   3  16
TORSDOF 3
ENDMDL
MODEL 9
REMARK VINA RESULT:      -7.6      5.250      7.335
REMARK  Name = 
REMARK  4 active torsions:
REMARK  status: ('A' for Active; 'I' for Inactive)
REMARK    1  A    between atoms: C_1  and  C_2
REMARK    2  A    between atoms: C_4  and  C_5
REMARK    3  A    between atoms: N_7  and  N_8
REMARK    4  A    between atoms: C_9  and  C_10
REMARK                            x       y       z     vdW  Elec       q    Type
REMARK                         _______ _______ _______ _____ _____    ______ ____
ROOT
ATOM      1  C   UNL     1       2.576   7.358  18.587  0.00  0.00    +0.000 C 
ATOM      2  O   UNL     1       2.211   7.278  19.757  0.00  0.00    +0.000 OA
ATOM      3  N   UNL     1       2.228   8.419  17.748  0.00  0.00    +0.000 N 
ATOM      4  H   UNL     1       2.496   8.453  16.773  0.00  0.00    +0.000 HD
ENDROOT
BRANCH   1   8
ATOM      5  C   UNL     1       6.966   5.910  16.637  0.00  0.00    +0.000 C 
ATOM      6  C   UNL     1       5.574   5.625  17.112  0.00  0.00    +0.000 A 
ATOM      7  C   UNL     1       4.741   6.630  17.577  0.00  0.00    +0.000 A 
ATOM      8  C   UNL     1       3.453   6.288  18.009  0.00  0.00    +0.000 A 
ATOM      9  C   UNL     1       3.031   4.925  17.975  0.00  0.00    +0.000 A 
ATOM     10  C   UNL     1       1.757   4.426  18.370  0.00  0.00    +0.000 A 
ATOM     11  C   UNL     1       1.450   3.065  18.324  0.00  0.00    +0.000 A 
ATOM     12  C   UNL     1       2.401   2.166  17.874  0.00  0.00    +0.000 A 
ATOM     13  C   UNL     1       3.647   2.639  17.463  0.00  0.00    +0.000 A 
ATOM     14  C   UNL     1       3.973   3.989  17.499  0.00  0.00    +0.000 A 
ATOM     15  N   UNL     1       5.196   4.333  17.073  0.00  0.00    +0.000 NA
ENDBRANCH   1   8
BRANCH   3  16
ATOM     16  N   UNL     1       1.385   9.374  18.242  0.00  0.00    +0.000 NA
ATOM     17  C   UNL     1       0.162   9.379  17.826  0.00  0.00    +0.000 C 
BRANCH  17  18
ATOM     18  C   UNL     1      -0.807  10.369  18.354  0.00  0.00    +0.000 A 
ATOM     19  C   UNL     1      -0.509  11.104  19.500  0.00  0.00    +0.000 A 
ATOM     20  C   UNL     1      -1.457  12.002  19.959  0.00  0.00    +0.000 A 
ATOM     21  N   UNL     1      -2.651  12.201  19.358  0.00  0.00    +0.000 NA
ATOM     22  C   UNL     1      -2.907  11.477  18.251  0.00  0.00    +0.000 A 
ATOM     23  C   UNL     1      -2.027  10.554  17.708  0.00  0.00    +0.000 A 
ENDBRANCH  17  18
ENDBRANCH   3  16
TORSDOF 3
ENDMDL
