MODEL 1
REMARK VINA RESULT:      -7.8      0.000      0.000
REMARK  Name = 
REMARK  6 active torsions:
REMARK  status: ('A' for Active; 'I' for Inactive)
REMARK    1  A    between atoms: C_1  and  C_2
REMARK    2  A    between atoms: C_8  and  C_9
REMARK    3  A    between atoms: C_9  and  O_10
REMARK    4  A    between atoms: O_10  and  C_11
REMARK    5  A    between atoms: C_15  and  C_16
REMARK    6  A    between atoms: C_17  and  C_18
REMARK                            x       y       z     vdW  Elec       q    Type
REMARK                         _______ _______ _______ _____ _____    ______ ____
ROOT
ATOM      1  C   UNL     1       8.595   9.654  17.936  0.00  0.00    +0.000 C 
ATOM      2  C   UNL     1       7.994   8.281  18.032  0.00  0.00    +0.000 A 
ATOM      3  C   UNL     1       8.437   7.386  18.932  0.00  0.00    +0.000 A 
ATOM      4  C   UNL     1       7.820   6.041  18.990  0.00  0.00    +0.000 A 
ATOM      5  O   UNL     1       8.259   5.207  19.775  0.00  0.00    +0.000 OA
ATOM      6  N   UNL     1       6.786   5.873  18.094  0.00  0.00    +0.000 N 
ATOM      7  N   UNL     1       6.125   4.676  17.962  0.00  0.00    +0.000 NA
ATOM      8  C   UNL     1       5.261   4.778  16.999  0.00  0.00    +0.000 A 
ATOM      9  S   UNL     1       5.137   6.326  16.199  0.00  0.00    +0.000 S 
ATOM     10  C   UNL     1       6.432   6.867  17.223  0.00  0.00    +0.000 A 
ATOM     11  N   UNL     1       6.974   8.033  17.141  0.00  0.00    +0.000 NA
ENDROOT
BRANCH   8  12
ATOM     12  C   UNL     1       4.460   3.612  16.487  0.00  0.00    +0.000 C 
BRANCH  12  13
ATOM     13  O   UNL     1       4.214   2.595  17.452  0.00  0.00    +0.000 OA
BRANCH  13  14
ATOM     14  C   UNL     1       3.094   2.832  18.229  0.00  0.00    +0.000 A 
ATOM     15  C   UNL     1       1.867   3.222  17.673  0.00  0.00    +0.000 A 
ATOM     16  C   UNL     1       0.771   3.495  18.482  0.00  0.00    +0.000 A 
ATOM     17  C   UNL     1       0.878   3.349  19.856  0.00  0.00    +0.000 A 
ATOM     18  C   UNL     1       2.075   2.907  20.443  0.00  0.00    +0.000 A 
ATOM     19  C   UNL     1       2.101   2.739  21.939  0.00  0.00    +0.000 C 
ATOM     20  C   UNL     1       3.203   2.641  19.624  0.00  0.00    +0.000 A 
ATOM     21  C   UNL     1       4.489   2.121  20.215  0.00  0.00    +0.000 C 
ENDBRANCH  13  14
ENDBRANCH  12  13
ENDBRANCH   8  12
TORSDOF 3
ENDMDL
MODEL 2
REMARK VINA RESULT:      -7.5      3.247      4.451
REMARK  Name = 
REMARK  6 active torsions:
REMARK  status: ('A' for Active; 'I' for Inactive)
REMARK    1  A    between atoms: C_1  and  C_2
REMARK    2  A    between atoms: C_8  and  C_9
REMARK    3  A    between atoms: C_9  and  O_10
REMARK    4  A    between atoms: O_10  and  C_11
REMARK    5  A    between atoms: C_15  and  C_16
REMARK    6  A    between atoms: C_17  and  C_18
REMARK                            x       y       z     vdW  Elec       q    Type
REMARK                         _______ _______ _______ _____ _____    ______ ____
ROOT
ATOM      1  C   UNL     1       5.675   2.724  11.348  0.00  0.00    +0.000 C 
ATOM      2  C   UNL     1       6.138   3.547  12.516  0.00  0.00    +0.000 A 
ATOM      3  C   UNL     1       7.190   4.376  12.412  0.00  0.00    +0.000 A 
ATOM      4  C   UNL     1       7.617   5.166  13.590  0.00  0.00    +0.000 A 
ATOM      5  O   UNL     1       8.609   5.884  13.510  0.00  0.00    +0.000 OA
ATOM      6  N   UNL     1       6.819   4.976  14.697  0.00  0.00    +0.000 N 
ATOM      7  N   UNL     1       7.087   5.581  15.901  0.00  0.00    +0.000 NA
ATOM      8  C   UNL     1       6.228   5.164  16.780  0.00  0.00    +0.000 A 
ATOM      9  S   UNL     1       5.003   4.047  16.232  0.00  0.00    +0.000 S 
ATOM     10  C   UNL     1       5.772   4.094  14.675  0.00  0.00    +0.000 A 
ATOM     11  N   UNL     1       5.402   3.380  13.668  0.00  0.00    +0.000 NA
ENDROOT
BRANCH   8  12
ATOM     12  C   UNL     1       6.313   5.514  18.241  0.00  0.00    +0.000 C 
BRANCH  12  13
ATOM     13  O   UNL     1       5.777   4.527  19.116  0.00  0.00    +0.000 OA
BRANCH  13  14
ATOM     14  C   UNL     1       4.463   4.766  19.477  0.00  0.00    +0.000 A 
ATOM     15  C   UNL     1       3.855   6.018  19.304  0.00  0.00    +0.000 A 
ATOM     16  C   UNL     1       2.547   6.241  19.716  0.00  0.00    +0.000 A 
ATOM     17  C   UNL     1       1.817   5.203  20.274  0.00  0.00    +0.000 A 
ATOM     18  C   UNL     1       2.375   3.922  20.412  0.00  0.00    +0.000 A 
ATOM     19  C   UNL     1       1.507   2.838  20.995  0.00  0.00    +0.000 C 
ATOM     20  C   UNL     1       3.716   3.692  20.008  0.00  0.00    +0.000 A 
ATOM     21  C   UNL     1       4.332   2.318  20.098  0.00  0.00    +0.000 C 
ENDBRANCH  13  14
ENDBRANCH  12  13
ENDBRANCH   8  12
TORSDOF 3
ENDMDL
MODEL 3
REMARK VINA RESULT:      -7.5      1.215      1.364
REMARK  Name = 
REMARK  6 active torsions:
REMARK  status: ('A' for Active; 'I' for Inactive)
REMARK    1  A    between atoms: C_1  and  C_2
REMARK    2  A    between atoms: C_8  and  C_9
REMARK    3  A    between atoms: C_9  and  O_10
REMARK    4  A    between atoms: O_10  and  C_11
REMARK    5  A    between atoms: C_15  and  C_16
REMARK    6  A    between atoms: C_17  and  C_18
REMARK                            x       y       z     vdW  Elec       q    Type
REMARK                         _______ _______ _______ _____ _____    ______ ____
ROOT
ATOM      1  C   UNL     1       8.651   9.499  17.771  0.00  0.00    +0.000 C 
ATOM      2  C   UNL     1       7.982   8.170  17.968  0.00  0.00    +0.000 A 
ATOM      3  C   UNL     1       8.406   7.307  18.907  0.00  0.00    +0.000 A 
ATOM      4  C   UNL     1       7.720   6.003  19.065  0.00  0.00    +0.000 A 
ATOM      5  O   UNL     1       8.140   5.195  19.887  0.00  0.00    +0.000 OA
ATOM      6  N   UNL     1       6.650   5.840  18.212  0.00  0.00    +0.000 N 
ATOM      7  N   UNL     1       5.922   4.675  18.172  0.00  0.00    +0.000 NA
ATOM      8  C   UNL     1       5.035   4.767  17.230  0.00  0.00    +0.000 A 
ATOM      9  S   UNL     1       4.967   6.269  16.341  0.00  0.00    +0.000 S 
ATOM     10  C   UNL     1       6.321   6.798  17.292  0.00  0.00    +0.000 A 
ATOM     11  N   UNL     1       6.921   7.926  17.123  0.00  0.00    +0.000 NA
ENDROOT
BRANCH   8  12
ATOM     12  C   UNL     1       4.157   3.618  16.813  0.00  0.00    +0.000 C 
BRANCH  12  13
ATOM     13  O   UNL     1       2.763   3.842  17.001  0.00  0.00    +0.000 OA
BRANCH  13  14
ATOM     14  C   UNL     1       2.436   4.236  18.287  0.00  0.00    +0.000 A 
ATOM     15  C   UNL     1       2.381   5.586  18.664  0.00  0.00    +0.000 A 
ATOM     16  C   UNL     1       2.093   5.951  19.973  0.00  0.00    +0.000 A 
ATOM     17  C   UNL     1       1.823   4.970  20.915  0.00  0.00    +0.000 A 
ATOM     18  C   UNL     1       1.815   3.612  20.560  0.00  0.00    +0.000 A 
ATOM     19  C   UNL     1       1.476   2.610  21.631  0.00  0.00    +0.000 C 
ATOM     20  C   UNL     1       2.124   3.232  19.228  0.00  0.00    +0.000 A 
ATOM     21  C   UNL     1       2.079   1.786  18.801  0.00  0.00    +0.000 C 
ENDBRANCH  13  14
ENDBRANCH  12  13
ENDBRANCH   8  12
TORSDOF 3
ENDMDL
MODEL 4
REMARK VINA RESULT:      -7.3      1.222      1.763
REMARK  Name = 
REMARK  6 active torsions:
REMARK  status: ('A' for Active; 'I' for Inactive)
REMARK    1  A    between atoms: C_1  and  C_2
REMARK    2  A    between atoms: C_8  and  C_9
REMARK    3  A    between atoms: C_9  and  O_10
REMARK    4  A    between atoms: O_10  and  C_11
REMARK    5  A    between atoms: C_15  and  C_16
REMARK    6  A    between atoms: C_17  and  C_18
REMARK                            x       y       z     vdW  Elec       q    Type
REMARK                         _______ _______ _______ _____ _____    ______ ____
ROOT
ATOM      1  C   UNL     1       8.652   9.289  17.701  0.00  0.00    +0.000 C 
ATOM      2  C   UNL     1       7.965   7.978  17.955  0.00  0.00    +0.000 A 
ATOM      3  C   UNL     1       8.294   7.210  19.007  0.00  0.00    +0.000 A 
ATOM      4  C   UNL     1       7.594   5.921  19.219  0.00  0.00    +0.000 A 
ATOM      5  O   UNL     1       7.930   5.196  20.149  0.00  0.00    +0.000 OA
ATOM      6  N   UNL     1       6.612   5.671  18.285  0.00  0.00    +0.000 N 
ATOM      7  N   UNL     1       5.890   4.502  18.284  0.00  0.00    +0.000 NA
ATOM      8  C   UNL     1       5.098   4.499  17.255  0.00  0.00    +0.000 A 
ATOM      9  S   UNL     1       5.120   5.911  16.228  0.00  0.00    +0.000 S 
ATOM     10  C   UNL     1       6.376   6.537  17.252  0.00  0.00    +0.000 A 
ATOM     11  N   UNL     1       6.991   7.649  17.038  0.00  0.00    +0.000 NA
ENDROOT
BRANCH   8  12
ATOM     12  C   UNL     1       4.264   3.310  16.864  0.00  0.00    +0.000 C 
BRANCH  12  13
ATOM     13  O   UNL     1       2.861   3.494  17.026  0.00  0.00    +0.000 OA
BRANCH  13  14
ATOM     14  C   UNL     1       2.458   3.522  18.350  0.00  0.00    +0.000 A 
ATOM     15  C   UNL     1       2.426   2.368  19.146  0.00  0.00    +0.000 A 
ATOM     16  C   UNL     1       1.976   2.419  20.459  0.00  0.00    +0.000 A 
ATOM     17  C   UNL     1       1.583   3.632  21.005  0.00  0.00    +0.000 A 
ATOM     18  C   UNL     1       1.655   4.816  20.254  0.00  0.00    +0.000 A 
ATOM     19  C   UNL     1       1.245   6.098  20.928  0.00  0.00    +0.000 C 
ATOM     20  C   UNL     1       2.099   4.768  18.907  0.00  0.00    +0.000 A 
ATOM     21  C   UNL     1       2.232   6.027  18.086  0.00  0.00    +0.000 C 
ENDBRANCH  13  14
ENDBRANCH  12  13
ENDBRANCH   8  12
TORSDOF 3
ENDMDL
MODEL 5
REMARK VINA RESULT:      -7.0      3.451      4.787
REMARK  Name = 
REMARK  6 active torsions:
REMARK  status: ('A' for Active; 'I' for Inactive)
REMARK    1  A    between atoms: C_1  and  C_2
REMARK    2  A    between atoms: C_8  and  C_9
REMARK    3  A    between atoms: C_9  and  O_10
REMARK    4  A    between atoms: O_10  and  C_11
REMARK    5  A    between atoms: C_15  and  C_16
REMARK    6  A    between atoms: C_17  and  C_18
REMARK                            x       y       z     vdW  Elec       q    Type
REMARK                         _______ _______ _______ _____ _____    ______ ____
ROOT
ATOM      1  C   UNL     1       6.205   2.491  11.148  0.00  0.00    +0.000 C 
ATOM      2  C   UNL     1       6.556   3.400  12.291  0.00  0.00    +0.000 A 
ATOM      3  C   UNL     1       7.507   4.341  12.168  0.00  0.00    +0.000 A 
ATOM      4  C   UNL     1       7.826   5.213  13.322  0.00  0.00    +0.000 A 
ATOM      5  O   UNL     1       8.730   6.037  13.226  0.00  0.00    +0.000 OA
ATOM      6  N   UNL     1       7.040   4.968  14.428  0.00  0.00    +0.000 N 
ATOM      7  N   UNL     1       7.222   5.640  15.613  0.00  0.00    +0.000 NA
ATOM      8  C   UNL     1       6.406   5.156  16.498  0.00  0.00    +0.000 A 
ATOM      9  S   UNL     1       5.324   3.888  15.977  0.00  0.00    +0.000 S 
ATOM     10  C   UNL     1       6.102   3.972  14.426  0.00  0.00    +0.000 A 
ATOM     11  N   UNL     1       5.829   3.187  13.442  0.00  0.00    +0.000 NA
ENDROOT
BRANCH   8  12
ATOM     12  C   UNL     1       6.431   5.562  17.947  0.00  0.00    +0.000 C 
BRANCH  12  13
ATOM     13  O   UNL     1       5.169   5.964  18.470  0.00  0.00    +0.000 OA
BRANCH  13  14
ATOM     14  C   UNL     1       4.474   4.937  19.083  0.00  0.00    +0.000 A 
ATOM     15  C   UNL     1       5.069   3.700  19.372  0.00  0.00    +0.000 A 
ATOM     16  C   UNL     1       4.334   2.671  19.949  0.00  0.00    +0.000 A 
ATOM     17  C   UNL     1       3.003   2.879  20.276  0.00  0.00    +0.000 A 
ATOM     18  C   UNL     1       2.391   4.122  20.052  0.00  0.00    +0.000 A 
ATOM     19  C   UNL     1       0.953   4.280  20.468  0.00  0.00    +0.000 C 
ATOM     20  C   UNL     1       3.131   5.171  19.449  0.00  0.00    +0.000 A 
ATOM     21  C   UNL     1       2.519   6.534  19.236  0.00  0.00    +0.000 C 
ENDBRANCH  13  14
ENDBRANCH  12  13
ENDBRANCH   8  12
TORSDOF 3
ENDMDL
MODEL 6
REMARK VINA RESULT:      -6.6      2.090      2.939
REMARK  Name = 
REMARK  6 active torsions:
REMARK  status: ('A' for Active; 'I' for Inactive)
REMARK    1  A    between atoms: C_1  and  C_2
REMARK    2  A    between atoms: C_8  and  C_9
REMARK    3  A    between atoms: C_9  and  O_10
REMARK    4  A    between atoms: O_10  and  C_11
REMARK    5  A    between atoms: C_15  and  C_16
REMARK    6  A    between atoms: C_17  and  C_18
REMARK                            x       y       z     vdW  Elec       q    Type
REMARK                         _______ _______ _______ _____ _____    ______ ____
ROOT
ATOM      1  C   UNL     1       8.252   7.507  18.584  0.00  0.00    +0.000 C 
ATOM      2  C   UNL     1       7.331   6.548  17.887  0.00  0.00    +0.000 A 
ATOM      3  C   UNL     1       7.126   6.618  16.560  0.00  0.00    +0.000 A 
ATOM      4  C   UNL     1       6.205   5.655  15.912  0.00  0.00    +0.000 A 
ATOM      5  O   UNL     1       5.978   5.751  14.710  0.00  0.00    +0.000 OA
ATOM      6  N   UNL     1       5.672   4.732  16.786  0.00  0.00    +0.000 N 
ATOM      7  N   UNL     1       4.756   3.791  16.381  0.00  0.00    +0.000 NA
ATOM      8  C   UNL     1       4.367   3.113  17.417  0.00  0.00    +0.000 A 
ATOM      9  S   UNL     1       5.095   3.514  18.953  0.00  0.00    +0.000 S 
ATOM     10  C   UNL     1       5.960   4.771  18.123  0.00  0.00    +0.000 A 
ATOM     11  N   UNL     1       6.737   5.616  18.708  0.00  0.00    +0.000 NA
ENDROOT
BRANCH   8  12
ATOM     12  C   UNL     1       3.262   2.094  17.363  0.00  0.00    +0.000 C 
BRANCH  12  13
ATOM     13  O   UNL     1       1.964   2.615  17.634  0.00  0.00    +0.000 OA
BRANCH  13  14
ATOM     14  C   UNL     1       1.813   3.069  18.933  0.00  0.00    +0.000 A 
ATOM     15  C   UNL     1       1.750   2.195  20.028  0.00  0.00    +0.000 A 
ATOM     16  C   UNL     1       1.555   2.676  21.316  0.00  0.00    +0.000 A 
ATOM     17  C   UNL     1       1.454   4.042  21.530  0.00  0.00    +0.000 A 
ATOM     18  C   UNL     1       1.567   4.949  20.465  0.00  0.00    +0.000 A 
ATOM     19  C   UNL     1       1.483   6.418  20.783  0.00  0.00    +0.000 C 
ATOM     20  C   UNL     1       1.751   4.463  19.145  0.00  0.00    +0.000 A 
ATOM     21  C   UNL     1       1.924   5.410  17.983  0.00  0.00    +0.000 C 
ENDBRANCH  13  14
ENDBRANCH  12  13
ENDBRANCH   8  12
TORSDOF 3
ENDMDL
MODEL 7
REMARK VINA RESULT:      -6.6      5.323      6.210
REMARK  Name = 
REMARK  6 active torsions:
REMARK  status: ('A' for Active; 'I' for Inactive)
REMARK    1  A    between atoms: C_1  and  C_2
REMARK    2  A    between atoms: C_8  and  C_9
REMARK    3  A    between atoms: C_9  and  O_10
REMARK    4  A    between atoms: O_10  and  C_11
REMARK    5  A    between atoms: C_15  and  C_16
REMARK    6  A    between atoms: C_17  and  C_18
REMARK                            x       y       z     vdW  Elec       q    Type
REMARK                         _______ _______ _______ _____ _____    ______ ____
ROOT
ATOM      1  C   UNL     1       6.225   5.015  15.174  0.00  0.00    +0.000 C 
ATOM      2  C   UNL     1       5.474   5.107  16.471  0.00  0.00    +0.000 A 
ATOM      3  C   UNL     1       5.655   4.203  17.448  0.00  0.00    +0.000 A 
ATOM      4  C   UNL     1       4.890   4.329  18.711  0.00  0.00    +0.000 A 
ATOM      5  O   UNL     1       5.017   3.474  19.582  0.00  0.00    +0.000 OA
ATOM      6  N   UNL     1       4.072   5.437  18.748  0.00  0.00    +0.000 N 
ATOM      7  N   UNL     1       3.244   5.695  19.814  0.00  0.00    +0.000 NA
ATOM      8  C   UNL     1       2.535   6.748  19.549  0.00  0.00    +0.000 A 
ATOM      9  S   UNL     1       2.827   7.543  18.021  0.00  0.00    +0.000 S 
ATOM     10  C   UNL     1       3.974   6.284  17.678  0.00  0.00    +0.000 A 
ATOM     11  N   UNL     1       4.611   6.177  16.563  0.00  0.00    +0.000 NA
ENDROOT
BRANCH   8  12
ATOM     12  C   UNL     1       1.422   7.234  20.437  0.00  0.00    +0.000 C 
BRANCH  12  13
ATOM     13  O   UNL     1       1.703   8.450  21.124  0.00  0.00    +0.000 OA
BRANCH  13  14
ATOM     14  C   UNL     1       0.763   9.440  20.899  0.00  0.00    +0.000 A 
ATOM     15  C   UNL     1       0.464   9.908  19.611  0.00  0.00    +0.000 A 
ATOM     16  C   UNL     1      -0.453  10.934  19.418  0.00  0.00    +0.000 A 
ATOM     17  C   UNL     1      -1.109  11.482  20.510  0.00  0.00    +0.000 A 
ATOM     18  C   UNL     1      -0.875  11.000  21.808  0.00  0.00    +0.000 A 
ATOM     19  C   UNL     1      -1.652  11.623  22.937  0.00  0.00    +0.000 C 
ATOM     20  C   UNL     1       0.072   9.964  22.012  0.00  0.00    +0.000 A 
ATOM     21  C   UNL     1       0.314   9.390  23.387  0.00  0.00    +0.000 C 
ENDBRANCH  13  14
ENDBRANCH  12  13
ENDBRANCH   8  12
TORSDOF 3
ENDMDL
MODEL 8
REMARK VINA RESULT:      -6.5      5.726      6.195
REMARK  Name = 
REMARK  6 active torsions:
REMARK  status: ('A' for Active; 'I' for Inactive)
REMARK    1  A    between atoms: C_1  and  C_2
REMARK    2  A    between atoms: C_8  and  C_9
REMARK    3  A    between atoms: C_9  and  O_10
REMARK    4  A    between atoms: O_10  and  C_11
REMARK    5  A    between atoms: C_15  and  C_16
REMARK    6  A    between atoms: C_17  and  C_18
REMARK                            x       y       z     vdW  Elec       q    Type
REMARK                         _______ _______ _______ _____ _____    ______ ____
ROOT
ATOM      1  C   UNL     1      -0.226  13.572  21.023  0.00  0.00    +0.000 C 
ATOM      2  C   UNL     1       0.149  12.120  20.949  0.00  0.00    +0.000 A 
ATOM      3  C   UNL     1      -0.017  11.302  22.002  0.00  0.00    +0.000 A 
ATOM      4  C   UNL     1       0.371   9.876  21.889  0.00  0.00    +0.000 A 
ATOM      5  O   UNL     1       0.268   9.142  22.866  0.00  0.00    +0.000 OA
ATOM      6  N   UNL     1       0.843   9.534  20.640  0.00  0.00    +0.000 N 
ATOM      7  N   UNL     1       1.302   8.270  20.356  0.00  0.00    +0.000 NA
ATOM      8  C   UNL     1       1.757   8.253  19.141  0.00  0.00    +0.000 A 
ATOM      9  S   UNL     1       1.637   9.733  18.222  0.00  0.00    +0.000 S 
ATOM     10  C   UNL     1       0.968  10.468  19.647  0.00  0.00    +0.000 A 
ATOM     11  N   UNL     1       0.660  11.716  19.735  0.00  0.00    +0.000 NA
ENDROOT
BRANCH   8  12
ATOM     12  C   UNL     1       2.466   7.066  18.547  0.00  0.00    +0.000 C 
BRANCH  12  13
ATOM     13  O   UNL     1       3.203   6.288  19.484  0.00  0.00    +0.000 OA
BRANCH  13  14
ATOM     14  C   UNL     1       2.715   5.002  19.637  0.00  0.00    +0.000 A 
ATOM     15  C   UNL     1       1.577   4.720  20.407  0.00  0.00    +0.000 A 
ATOM     16  C   UNL     1       1.135   3.414  20.578  0.00  0.00    +0.000 A 
ATOM     17  C   UNL     1       1.807   2.375  19.952  0.00  0.00    +0.000 A 
ATOM     18  C   UNL     1       2.916   2.626  19.129  0.00  0.00    +0.000 A 
ATOM     19  C   UNL     1       3.569   1.449  18.455  0.00  0.00    +0.000 C 
ATOM     20  C   UNL     1       3.382   3.956  18.963  0.00  0.00    +0.000 A 
ATOM     21  C   UNL     1       4.541   4.267  18.050  0.00  0.00    +0.000 C 
ENDBRANCH  13  14
ENDBRANCH  12  13
ENDBRANCH   8  12
TORSDOF 3
ENDMDL
MODEL 9
REMARK VINA RESULT:      -6.5      6.150      6.689
REMARK  Name = 
REMARK  6 active torsions:
REMARK  status: ('A' for Active; 'I' for Inactive)
REMARK    1  A    between atoms: C_1  and  C_2
REMARK    2  A    between atoms: C_8  and  C_9
REMARK    3  A    between atoms: C_9  and  O_10
REMARK    4  A    between atoms: O_10  and  C_11
REMARK    5  A    between atoms: C_15  and  C_16
REMARK    6  A    between atoms: C_17  and  C_18
REMARK                            x       y       z     vdW  Elec       q    Type
REMARK                         _______ _______ _______ _____ _____    ______ ____
ROOT
ATOM      1  C   UNL     1       0.628  14.343  18.841  0.00  0.00    +0.000 C 
ATOM      2  C   UNL     1       0.581  13.055  19.613  0.00  0.00    +0.000 A 
ATOM      3  C   UNL     1       0.104  13.012  20.869  0.00  0.00    +0.000 A 
ATOM      4  C   UNL     1       0.080  11.722  21.597  0.00  0.00    +0.000 A 
ATOM      5  O   UNL     1      -0.307  11.691  22.761  0.00  0.00    +0.000 OA
ATOM      6  N   UNL     1       0.536  10.660  20.846  0.00  0.00    +0.000 N 
ATOM      7  N   UNL     1       0.639   9.392  21.366  0.00  0.00    +0.000 NA
ATOM      8  C   UNL     1       1.168   8.614  20.472  0.00  0.00    +0.000 A 
ATOM      9  S   UNL     1       1.548   9.323  18.922  0.00  0.00    +0.000 S 
ATOM     10  C   UNL     1       1.001  10.838  19.572  0.00  0.00    +0.000 A 
ATOM     11  N   UNL     1       1.054  11.955  18.932  0.00  0.00    +0.000 NA
ENDROOT
BRANCH   8  12
ATOM     12  C   UNL     1       1.557   7.188  20.751  0.00  0.00    +0.000 C 
BRANCH  12  13
ATOM     13  O   UNL     1       2.195   6.526  19.663  0.00  0.00    +0.000 OA
BRANCH  13  14
ATOM     14  C   UNL     1       2.043   5.151  19.690  0.00  0.00    +0.000 A 
ATOM     15  C   UNL     1       1.249   4.505  20.649  0.00  0.00    +0.000 A 
ATOM     16  C   UNL     1       1.150   3.119  20.679  0.00  0.00    +0.000 A 
ATOM     17  C   UNL     1       1.817   2.363  19.728  0.00  0.00    +0.000 A 
ATOM     18  C   UNL     1       2.577   2.979  18.720  0.00  0.00    +0.000 A 
ATOM     19  C   UNL     1       3.242   2.091  17.703  0.00  0.00    +0.000 C 
ATOM     20  C   UNL     1       2.694   4.392  18.694  0.00  0.00    +0.000 A 
ATOM     21  C   UNL     1       3.463   5.090  17.599  0.00  0.00    +0.000 C 
ENDBRANCH  13  14
ENDBRANCH  12  13
ENDBRANCH   8  12
TORSDOF 3
ENDMDL
