MODEL 1
REMARK VINA RESULT:      -8.4      0.000      0.000
REMARK  Name = 
REMARK  4 active torsions:
REMARK  status: ('A' for Active; 'I' for Inactive)
REMARK    1  A    between atoms: C_1  and  O_2
REMARK    2  A    between atoms: O_2  and  C_3
REMARK    3  A    between atoms: C_8  and  C_9
REMARK    4  A    between atoms: N_10  and  N_11
REMARK                            x       y       z     vdW  Elec       q    Type
REMARK                         _______ _______ _______ _____ _____    ______ ____
ROOT
ATOM      1  N   UNL     1       2.199   6.775  19.577  0.00  0.00    +0.000 N 
ATOM      2  C   UNL     1       2.960   7.151  18.453  0.00  0.00    +0.000 C 
ATOM      3  O   UNL     1       3.020   8.283  17.975  0.00  0.00    +0.000 OA
ATOM      4  C   UNL     1       3.708   6.077  17.760  0.00  0.00    +0.000 A 
ATOM      5  C   UNL     1       4.599   6.406  16.725  0.00  0.00    +0.000 A 
ATOM      6  C   UNL     1       5.226   5.400  15.998  0.00  0.00    +0.000 A 
ATOM      7  C   UNL     1       4.926   4.065  16.263  0.00  0.00    +0.000 A 
ATOM      8  C   UNL     1       4.018   3.723  17.279  0.00  0.00    +0.000 A 
ATOM      9  C   UNL     1       3.654   2.388  17.508  0.00  0.00    +0.000 A 
ATOM     10  C   UNL     1       2.758   2.061  18.522  0.00  0.00    +0.000 A 
ATOM     11  C   UNL     1       2.251   3.059  19.359  0.00  0.00    +0.000 A 
ATOM     12  C   UNL     1       2.597   4.400  19.133  0.00  0.00    +0.000 A 
ATOM     13  C   UNL     1       3.442   4.743  18.074  0.00  0.00    +0.000 A 
ATOM     14  C   UNL     1       2.054   5.454  20.030  0.00  0.00    +0.000 C 
ATOM     15  O   UNL     1       1.521   5.091  21.077  0.00  0.00    +0.000 OA
ENDROOT
BRANCH   1  17
ATOM     16  C   UNL     1       1.741   8.520  21.135  0.00  0.00    +0.000 C 
ATOM     17  N   UNL     1       1.459   7.830  20.082  0.00  0.00    +0.000 NA
BRANCH  16  23
ATOM     18  C   UNL     1       0.544  10.755  20.945  0.00  0.00    +0.000 A 
ATOM     19  C   UNL     1      -0.433  11.635  21.440  0.00  0.00    +0.000 A 
ATOM     20  C   UNL     1      -1.143  11.340  22.606  0.00  0.00    +0.000 A 
ATOM     21  C   UNL     1      -0.905  10.149  23.281  0.00  0.00    +0.000 A 
ATOM     22  C   UNL     1       0.020   9.240  22.770  0.00  0.00    +0.000 A 
ATOM     23  C   UNL     1       0.742   9.529  21.597  0.00  0.00    +0.000 A 
BRANCH  18  25
ATOM     24  C   UNL     1       0.586  11.024  18.601  0.00  0.00    +0.000 C 
ATOM     25  O   UNL     1       1.302  11.043  19.838  0.00  0.00    +0.000 OA
ENDBRANCH  18  25
ENDBRANCH  16  23
ENDBRANCH   1  17
TORSDOF 3
ENDMDL
MODEL 2
REMARK VINA RESULT:      -8.1      1.397      7.616
REMARK  Name = 
REMARK  4 active torsions:
REMARK  status: ('A' for Active; 'I' for Inactive)
REMARK    1  A    between atoms: C_1  and  O_2
REMARK    2  A    between atoms: O_2  and  C_3
REMARK    3  A    between atoms: C_8  and  C_9
REMARK    4  A    between atoms: N_10  and  N_11
REMARK                            x       y       z     vdW  Elec       q    Type
REMARK                         _______ _______ _______ _____ _____    ______ ____
ROOT
ATOM      1  N   UNL     1       1.767   8.357  19.190  0.00  0.00    +0.000 N 
ATOM      2  C   UNL     1       1.436   9.547  18.511  0.00  0.00    +0.000 C 
ATOM      3  O   UNL     1       1.909   9.913  17.437  0.00  0.00    +0.000 OA
ATOM      4  C   UNL     1       0.475  10.454  19.180  0.00  0.00    +0.000 A 
ATOM      5  C   UNL     1      -0.009  11.581  18.495  0.00  0.00    +0.000 A 
ATOM      6  C   UNL     1      -0.828  12.496  19.148  0.00  0.00    +0.000 A 
ATOM      7  C   UNL     1      -1.123  12.319  20.499  0.00  0.00    +0.000 A 
ATOM      8  C   UNL     1      -0.626  11.209  21.202  0.00  0.00    +0.000 A 
ATOM      9  C   UNL     1      -0.856  11.057  22.576  0.00  0.00    +0.000 A 
ATOM     10  C   UNL     1      -0.363   9.949  23.260  0.00  0.00    +0.000 A 
ATOM     11  C   UNL     1       0.323   8.947  22.570  0.00  0.00    +0.000 A 
ATOM     12  C   UNL     1       0.572   9.092  21.197  0.00  0.00    +0.000 A 
ATOM     13  C   UNL     1       0.140  10.234  20.517  0.00  0.00    +0.000 A 
ATOM     14  C   UNL     1       1.302   8.019  20.470  0.00  0.00    +0.000 C 
ATOM     15  O   UNL     1       1.447   6.942  21.044  0.00  0.00    +0.000 OA
ENDROOT
BRANCH   1  17
ATOM     16  C   UNL     1       2.633   6.436  18.077  0.00  0.00    +0.000 C 
ATOM     17  N   UNL     1       2.748   7.637  18.531  0.00  0.00    +0.000 NA
BRANCH  16  23
ATOM     18  C   UNL     1       3.889   4.425  17.158  0.00  0.00    +0.000 A 
ATOM     19  C   UNL     1       5.077   3.898  16.623  0.00  0.00    +0.000 A 
ATOM     20  C   UNL     1       6.230   4.681  16.522  0.00  0.00    +0.000 A 
ATOM     21  C   UNL     1       6.206   6.007  16.931  0.00  0.00    +0.000 A 
ATOM     22  C   UNL     1       5.019   6.560  17.411  0.00  0.00    +0.000 A 
ATOM     23  C   UNL     1       3.853   5.780  17.518  0.00  0.00    +0.000 A 
BRANCH  18  25
ATOM     24  C   UNL     1       2.991   2.354  17.844  0.00  0.00    +0.000 C 
ATOM     25  O   UNL     1       2.758   3.666  17.329  0.00  0.00    +0.000 OA
ENDBRANCH  18  25
ENDBRANCH  16  23
ENDBRANCH   1  17
TORSDOF 3
ENDMDL
MODEL 3
REMARK VINA RESULT:      -8.0      1.296      7.926
REMARK  Name = 
REMARK  4 active torsions:
REMARK  status: ('A' for Active; 'I' for Inactive)
REMARK    1  A    between atoms: C_1  and  O_2
REMARK    2  A    between atoms: O_2  and  C_3
REMARK    3  A    between atoms: C_8  and  C_9
REMARK    4  A    between atoms: N_10  and  N_11
REMARK                            x       y       z     vdW  Elec       q    Type
REMARK                         _______ _______ _______ _____ _____    ______ ____
ROOT
ATOM      1  N   UNL     1       1.830   8.561  19.046  0.00  0.00    +0.000 N 
ATOM      2  C   UNL     1       1.421   8.166  20.335  0.00  0.00    +0.000 C 
ATOM      3  O   UNL     1       1.597   7.055  20.832  0.00  0.00    +0.000 OA
ATOM      4  C   UNL     1       0.670   9.161  21.134  0.00  0.00    +0.000 A 
ATOM      5  C   UNL     1       0.363   8.886  22.476  0.00  0.00    +0.000 A 
ATOM      6  C   UNL     1      -0.431   9.765  23.205  0.00  0.00    +0.000 A 
ATOM      7  C   UNL     1      -0.966  10.892  22.583  0.00  0.00    +0.000 A 
ATOM      8  C   UNL     1      -0.685  11.167  21.234  0.00  0.00    +0.000 A 
ATOM      9  C   UNL     1      -1.273  12.258  20.578  0.00  0.00    +0.000 A 
ATOM     10  C   UNL     1      -0.983  12.523  19.242  0.00  0.00    +0.000 A 
ATOM     11  C   UNL     1      -0.058  11.732  18.555  0.00  0.00    +0.000 A 
ATOM     12  C   UNL     1       0.528  10.630  19.195  0.00  0.00    +0.000 A 
ATOM     13  C   UNL     1       0.189  10.317  20.515  0.00  0.00    +0.000 A 
ATOM     14  C   UNL     1       1.513   9.795  18.457  0.00  0.00    +0.000 C 
ATOM     15  O   UNL     1       1.956  10.241  17.400  0.00  0.00    +0.000 OA
ENDROOT
BRANCH   1  17
ATOM     16  C   UNL     1       3.677   7.211  18.378  0.00  0.00    +0.000 C 
ATOM     17  N   UNL     1       2.427   7.525  18.348  0.00  0.00    +0.000 NA
BRANCH  16  23
ATOM     18  C   UNL     1       3.876   4.785  17.642  0.00  0.00    +0.000 A 
ATOM     19  C   UNL     1       4.349   3.855  16.700  0.00  0.00    +0.000 A 
ATOM     20  C   UNL     1       5.146   4.259  15.627  0.00  0.00    +0.000 A 
ATOM     21  C   UNL     1       5.463   5.602  15.466  0.00  0.00    +0.000 A 
ATOM     22  C   UNL     1       4.955   6.543  16.359  0.00  0.00    +0.000 A 
ATOM     23  C   UNL     1       4.152   6.146  17.444  0.00  0.00    +0.000 A 
BRANCH  18  25
ATOM     24  C   UNL     1       1.824   3.946  18.450  0.00  0.00    +0.000 C 
ATOM     25  O   UNL     1       3.143   4.413  18.741  0.00  0.00    +0.000 OA
ENDBRANCH  18  25
ENDBRANCH  16  23
ENDBRANCH   1  17
TORSDOF 3
ENDMDL
MODEL 4
REMARK VINA RESULT:      -8.0      1.418      7.853
REMARK  Name = 
REMARK  4 active torsions:
REMARK  status: ('A' for Active; 'I' for Inactive)
REMARK    1  A    between atoms: C_1  and  O_2
REMARK    2  A    between atoms: O_2  and  C_3
REMARK    3  A    between atoms: C_8  and  C_9
REMARK    4  A    between atoms: N_10  and  N_11
REMARK                            x       y       z     vdW  Elec       q    Type
REMARK                         _______ _______ _______ _____ _____    ______ ____
ROOT
ATOM      1  N   UNL     1       1.818   8.395  19.219  0.00  0.00    +0.000 N 
ATOM      2  C   UNL     1       1.406   8.139  20.542  0.00  0.00    +0.000 C 
ATOM      3  O   UNL     1       1.604   7.097  21.165  0.00  0.00    +0.000 OA
ATOM      4  C   UNL     1       0.622   9.199  21.217  0.00  0.00    +0.000 A 
ATOM      5  C   UNL     1       0.308   9.071  22.580  0.00  0.00    +0.000 A 
ATOM      6  C   UNL     1      -0.515  10.006  23.197  0.00  0.00    +0.000 A 
ATOM      7  C   UNL     1      -1.071  11.041  22.447  0.00  0.00    +0.000 A 
ATOM      8  C   UNL     1      -0.783  11.168  21.078  0.00  0.00    +0.000 A 
ATOM      9  C   UNL     1      -1.392  12.161  20.297  0.00  0.00    +0.000 A 
ATOM     10  C   UNL     1      -1.094  12.279  18.942  0.00  0.00    +0.000 A 
ATOM     11  C   UNL     1      -0.143  11.440  18.357  0.00  0.00    +0.000 A 
ATOM     12  C   UNL     1       0.463  10.433  19.123  0.00  0.00    +0.000 A 
ATOM     13  C   UNL     1       0.119  10.264  20.467  0.00  0.00    +0.000 A 
ATOM     14  C   UNL     1       1.476   9.545  18.491  0.00  0.00    +0.000 C 
ATOM     15  O   UNL     1       1.919   9.879  17.394  0.00  0.00    +0.000 OA
ENDROOT
BRANCH   1  17
ATOM     16  C   UNL     1       3.680   7.246  18.275  0.00  0.00    +0.000 C 
ATOM     17  N   UNL     1       2.447   7.302  18.649  0.00  0.00    +0.000 NA
BRANCH  16  23
ATOM     18  C   UNL     1       5.302   5.989  16.773  0.00  0.00    +0.000 A 
ATOM     19  C   UNL     1       5.662   4.786  16.143  0.00  0.00    +0.000 A 
ATOM     20  C   UNL     1       4.839   3.659  16.219  0.00  0.00    +0.000 A 
ATOM     21  C   UNL     1       3.658   3.711  16.946  0.00  0.00    +0.000 A 
ATOM     22  C   UNL     1       3.315   4.880  17.624  0.00  0.00    +0.000 A 
ATOM     23  C   UNL     1       4.135   6.021  17.552  0.00  0.00    +0.000 A 
BRANCH  18  25
ATOM     24  C   UNL     1       7.266   7.122  17.425  0.00  0.00    +0.000 C 
ATOM     25  O   UNL     1       6.055   7.131  16.666  0.00  0.00    +0.000 OA
ENDBRANCH  18  25
ENDBRANCH  16  23
ENDBRANCH   1  17
TORSDOF 3
ENDMDL
MODEL 5
REMARK VINA RESULT:      -7.9      1.277      7.898
REMARK  Name = 
REMARK  4 active torsions:
REMARK  status: ('A' for Active; 'I' for Inactive)
REMARK    1  A    between atoms: C_1  and  O_2
REMARK    2  A    between atoms: O_2  and  C_3
REMARK    3  A    between atoms: C_8  and  C_9
REMARK    4  A    between atoms: N_10  and  N_11
REMARK                            x       y       z     vdW  Elec       q    Type
REMARK                         _______ _______ _______ _____ _____    ______ ____
ROOT
ATOM      1  N   UNL     1       1.754   8.533  19.467  0.00  0.00    +0.000 N 
ATOM      2  C   UNL     1       1.254   8.332  20.769  0.00  0.00    +0.000 C 
ATOM      3  O   UNL     1       1.405   7.315  21.444  0.00  0.00    +0.000 OA
ATOM      4  C   UNL     1       0.432   9.420  21.346  0.00  0.00    +0.000 A 
ATOM      5  C   UNL     1       0.027   9.348  22.689  0.00  0.00    +0.000 A 
ATOM      6  C   UNL     1      -0.831  10.310  23.212  0.00  0.00    +0.000 A 
ATOM      7  C   UNL     1      -1.330  11.315  22.385  0.00  0.00    +0.000 A 
ATOM      8  C   UNL     1      -0.951  11.385  21.034  0.00  0.00    +0.000 A 
ATOM      9  C   UNL     1      -1.501  12.347  20.175  0.00  0.00    +0.000 A 
ATOM     10  C   UNL     1      -1.113  12.409  18.839  0.00  0.00    +0.000 A 
ATOM     11  C   UNL     1      -0.130  11.545  18.353  0.00  0.00    +0.000 A 
ATOM     12  C   UNL     1       0.419  10.568  19.198  0.00  0.00    +0.000 A 
ATOM     13  C   UNL     1      -0.014  10.455  20.522  0.00  0.00    +0.000 A 
ATOM     14  C   UNL     1       1.467   9.654  18.672  0.00  0.00    +0.000 C 
ATOM     15  O   UNL     1       1.984   9.942  17.594  0.00  0.00    +0.000 OA
ENDROOT
BRANCH   1  17
ATOM     16  C   UNL     1       1.954   6.575  18.122  0.00  0.00    +0.000 C 
ATOM     17  N   UNL     1       2.415   7.416  18.985  0.00  0.00    +0.000 NA
BRANCH  16  23
ATOM     18  C   UNL     1       2.304   4.057  18.093  0.00  0.00    +0.000 A 
ATOM     19  C   UNL     1       3.131   2.967  17.771  0.00  0.00    +0.000 A 
ATOM     20  C   UNL     1       4.422   3.166  17.275  0.00  0.00    +0.000 A 
ATOM     21  C   UNL     1       4.896   4.454  17.071  0.00  0.00    +0.000 A 
ATOM     22  C   UNL     1       4.067   5.544  17.332  0.00  0.00    +0.000 A 
ATOM     23  C   UNL     1       2.766   5.356  17.834  0.00  0.00    +0.000 A 
BRANCH  18  25
ATOM     24  C   UNL     1       1.049   3.585  20.035  0.00  0.00    +0.000 C 
ATOM     25  O   UNL     1       1.056   3.898  18.640  0.00  0.00    +0.000 OA
ENDBRANCH  18  25
ENDBRANCH  16  23
ENDBRANCH   1  17
TORSDOF 3
ENDMDL
MODEL 6
REMARK VINA RESULT:      -7.9      2.025      2.685
REMARK  Name = 
REMARK  4 active torsions:
REMARK  status: ('A' for Active; 'I' for Inactive)
REMARK    1  A    between atoms: C_1  and  O_2
REMARK    2  A    between atoms: O_2  and  C_3
REMARK    3  A    between atoms: C_8  and  C_9
REMARK    4  A    between atoms: N_10  and  N_11
REMARK                            x       y       z     vdW  Elec       q    Type
REMARK                         _______ _______ _______ _____ _____    ______ ____
ROOT
ATOM      1  N   UNL     1       2.260   7.649  19.161  0.00  0.00    +0.000 N 
ATOM      2  C   UNL     1       3.012   7.261  18.034  0.00  0.00    +0.000 C 
ATOM      3  O   UNL     1       3.329   7.993  17.098  0.00  0.00    +0.000 OA
ATOM      4  C   UNL     1       3.406   5.835  17.950  0.00  0.00    +0.000 A 
ATOM      5  C   UNL     1       4.277   5.414  16.932  0.00  0.00    +0.000 A 
ATOM      6  C   UNL     1       4.570   4.063  16.779  0.00  0.00    +0.000 A 
ATOM      7  C   UNL     1       3.954   3.124  17.605  0.00  0.00    +0.000 A 
ATOM      8  C   UNL     1       3.062   3.530  18.612  0.00  0.00    +0.000 A 
ATOM      9  C   UNL     1       2.383   2.592  19.401  0.00  0.00    +0.000 A 
ATOM     10  C   UNL     1       1.505   3.008  20.399  0.00  0.00    +0.000 A 
ATOM     11  C   UNL     1       1.334   4.369  20.660  0.00  0.00    +0.000 A 
ATOM     12  C   UNL     1       1.998   5.319  19.869  0.00  0.00    +0.000 A 
ATOM     13  C   UNL     1       2.827   4.911  18.821  0.00  0.00    +0.000 A 
ATOM     14  C   UNL     1       1.811   6.767  20.156  0.00  0.00    +0.000 C 
ATOM     15  O   UNL     1       1.276   7.071  21.220  0.00  0.00    +0.000 OA
ENDROOT
BRANCH   1  17
ATOM     16  C   UNL     1       0.637   9.391  19.071  0.00  0.00    +0.000 C 
ATOM     17  N   UNL     1       1.855   8.970  19.087  0.00  0.00    +0.000 NA
BRANCH  16  23
ATOM     18  C   UNL     1      -0.841  11.370  18.466  0.00  0.00    +0.000 A 
ATOM     19  C   UNL     1      -0.971  12.759  18.295  0.00  0.00    +0.000 A 
ATOM     20  C   UNL     1       0.133  13.606  18.423  0.00  0.00    +0.000 A 
ATOM     21  C   UNL     1       1.377  13.080  18.745  0.00  0.00    +0.000 A 
ATOM     22  C   UNL     1       1.509  11.711  18.974  0.00  0.00    +0.000 A 
ATOM     23  C   UNL     1       0.404  10.849  18.846  0.00  0.00    +0.000 A 
BRANCH  18  25
ATOM     24  C   UNL     1      -2.248  10.271  16.923  0.00  0.00    +0.000 C 
ATOM     25  O   UNL     1      -1.891  10.504  18.287  0.00  0.00    +0.000 OA
ENDBRANCH  18  25
ENDBRANCH  16  23
ENDBRANCH   1  17
TORSDOF 3
ENDMDL
MODEL 7
REMARK VINA RESULT:      -7.8      1.122      1.894
REMARK  Name = 
REMARK  4 active torsions:
REMARK  status: ('A' for Active; 'I' for Inactive)
REMARK    1  A    between atoms: C_1  and  O_2
REMARK    2  A    between atoms: O_2  and  C_3
REMARK    3  A    between atoms: C_8  and  C_9
REMARK    4  A    between atoms: N_10  and  N_11
REMARK                            x       y       z     vdW  Elec       q    Type
REMARK                         _______ _______ _______ _____ _____    ______ ____
ROOT
ATOM      1  N   UNL     1       2.275   7.437  18.972  0.00  0.00    +0.000 N 
ATOM      2  C   UNL     1       3.077   7.599  17.826  0.00  0.00    +0.000 C 
ATOM      3  O   UNL     1       3.116   8.601  17.114  0.00  0.00    +0.000 OA
ATOM      4  C   UNL     1       3.904   6.440  17.418  0.00  0.00    +0.000 A 
ATOM      5  C   UNL     1       4.834   6.581  16.375  0.00  0.00    +0.000 A 
ATOM      6  C   UNL     1       5.539   5.475  15.914  0.00  0.00    +0.000 A 
ATOM      7  C   UNL     1       5.281   4.216  16.453  0.00  0.00    +0.000 A 
ATOM      8  C   UNL     1       4.336   4.056  17.481  0.00  0.00    +0.000 A 
ATOM      9  C   UNL     1       4.016   2.787  17.981  0.00  0.00    +0.000 A 
ATOM     10  C   UNL     1       3.082   2.642  19.004  0.00  0.00    +0.000 A 
ATOM     11  C   UNL     1       2.492   3.770  19.579  0.00  0.00    +0.000 A 
ATOM     12  C   UNL     1       2.793   5.046  19.078  0.00  0.00    +0.000 A 
ATOM     13  C   UNL     1       3.678   5.194  18.006  0.00  0.00    +0.000 A 
ATOM     14  C   UNL     1       2.161   6.241  19.698  0.00  0.00    +0.000 C 
ATOM     15  O   UNL     1       1.589   6.087  20.775  0.00  0.00    +0.000 OA
ENDROOT
BRANCH   1  17
ATOM     16  C   UNL     1       1.280   9.119  20.338  0.00  0.00    +0.000 C 
ATOM     17  N   UNL     1       1.467   8.537  19.202  0.00  0.00    +0.000 NA
BRANCH  16  23
ATOM     18  C   UNL     1      -0.091  10.846  21.605  0.00  0.00    +0.000 A 
ATOM     19  C   UNL     1      -1.049  11.873  21.570  0.00  0.00    +0.000 A 
ATOM     20  C   UNL     1      -1.705  12.205  20.382  0.00  0.00    +0.000 A 
ATOM     21  C   UNL     1      -1.395  11.533  19.207  0.00  0.00    +0.000 A 
ATOM     22  C   UNL     1      -0.406  10.551  19.215  0.00  0.00    +0.000 A 
ATOM     23  C   UNL     1       0.259  10.207  20.406  0.00  0.00    +0.000 A 
BRANCH  18  25
ATOM     24  C   UNL     1      -0.208   9.501  23.540  0.00  0.00    +0.000 C 
ATOM     25  O   UNL     1       0.526  10.453  22.766  0.00  0.00    +0.000 OA
ENDBRANCH  18  25
ENDBRANCH  16  23
ENDBRANCH   1  17
TORSDOF 3
ENDMDL
MODEL 8
REMARK VINA RESULT:      -7.8      1.243      7.795
REMARK  Name = 
REMARK  4 active torsions:
REMARK  status: ('A' for Active; 'I' for Inactive)
REMARK    1  A    between atoms: C_1  and  O_2
REMARK    2  A    between atoms: O_2  and  C_3
REMARK    3  A    between atoms: C_8  and  C_9
REMARK    4  A    between atoms: N_10  and  N_11
REMARK                            x       y       z     vdW  Elec       q    Type
REMARK                         _______ _______ _______ _____ _____    ______ ____
ROOT
ATOM      1  N   UNL     1       1.713   8.396  19.561  0.00  0.00    +0.000 N 
ATOM      2  C   UNL     1       1.196   8.286  20.867  0.00  0.00    +0.000 C 
ATOM      3  O   UNL     1       1.299   7.301  21.597  0.00  0.00    +0.000 OA
ATOM      4  C   UNL     1       0.419   9.437  21.380  0.00  0.00    +0.000 A 
ATOM      5  C   UNL     1       0.003   9.454  22.721  0.00  0.00    +0.000 A 
ATOM      6  C   UNL     1      -0.815  10.478  23.186  0.00  0.00    +0.000 A 
ATOM      7  C   UNL     1      -1.266  11.458  22.303  0.00  0.00    +0.000 A 
ATOM      8  C   UNL     1      -0.876  11.440  20.953  0.00  0.00    +0.000 A 
ATOM      9  C   UNL     1      -1.379  12.378  20.040  0.00  0.00    +0.000 A 
ATOM     10  C   UNL     1      -0.981  12.353  18.706  0.00  0.00    +0.000 A 
ATOM     11  C   UNL     1      -0.033  11.422  18.274  0.00  0.00    +0.000 A 
ATOM     12  C   UNL     1       0.468  10.469  19.174  0.00  0.00    +0.000 A 
ATOM     13  C   UNL     1       0.022  10.445  20.499  0.00  0.00    +0.000 A 
ATOM     14  C   UNL     1       1.479   9.484  18.706  0.00  0.00    +0.000 C 
ATOM     15  O   UNL     1       2.015   9.692  17.619  0.00  0.00    +0.000 OA
ENDROOT
BRANCH   1  17
ATOM     16  C   UNL     1       2.069   6.580  18.059  0.00  0.00    +0.000 C 
ATOM     17  N   UNL     1       2.327   7.228  19.144  0.00  0.00    +0.000 NA
BRANCH  16  23
ATOM     18  C   UNL     1       4.077   5.151  17.433  0.00  0.00    +0.000 A 
ATOM     19  C   UNL     1       4.634   3.869  17.285  0.00  0.00    +0.000 A 
ATOM     20  C   UNL     1       3.860   2.722  17.476  0.00  0.00    +0.000 A 
ATOM     21  C   UNL     1       2.526   2.838  17.841  0.00  0.00    +0.000 A 
ATOM     22  C   UNL     1       1.974   4.101  18.046  0.00  0.00    +0.000 A 
ATOM     23  C   UNL     1       2.744   5.263  17.855  0.00  0.00    +0.000 A 
BRANCH  18  25
ATOM     24  C   UNL     1       5.232   6.454  15.841  0.00  0.00    +0.000 C 
ATOM     25  O   UNL     1       4.791   6.297  17.192  0.00  0.00    +0.000 OA
ENDBRANCH  18  25
ENDBRANCH  16  23
ENDBRANCH   1  17
TORSDOF 3
ENDMDL
MODEL 9
REMARK VINA RESULT:      -7.7      0.869      2.777
REMARK  Name = 
REMARK  4 active torsions:
REMARK  status: ('A' for Active; 'I' for Inactive)
REMARK    1  A    between atoms: C_1  and  O_2
REMARK    2  A    between atoms: O_2  and  C_3
REMARK    3  A    between atoms: C_8  and  C_9
REMARK    4  A    between atoms: N_10  and  N_11
REMARK                            x       y       z     vdW  Elec       q    Type
REMARK                         _______ _______ _______ _____ _____    ______ ____
ROOT
ATOM      1  N   UNL     1       2.137   7.289  19.227  0.00  0.00    +0.000 N 
ATOM      2  C   UNL     1       2.122   5.991  19.774  0.00  0.00    +0.000 C 
ATOM      3  O   UNL     1       1.617   5.673  20.849  0.00  0.00    +0.000 OA
ATOM      4  C   UNL     1       2.820   4.933  19.008  0.00  0.00    +0.000 A 
ATOM      5  C   UNL     1       2.719   3.594  19.420  0.00  0.00    +0.000 A 
ATOM      6  C   UNL     1       3.454   2.607  18.772  0.00  0.00    +0.000 A 
ATOM      7  C   UNL     1       4.334   2.959  17.750  0.00  0.00    +0.000 A 
ATOM      8  C   UNL     1       4.463   4.297  17.344  0.00  0.00    +0.000 A 
ATOM      9  C   UNL     1       5.395   4.673  16.367  0.00  0.00    +0.000 A 
ATOM     10  C   UNL     1       5.509   6.003  15.969  0.00  0.00    +0.000 A 
ATOM     11  C   UNL     1       4.656   6.970  16.504  0.00  0.00    +0.000 A 
ATOM     12  C   UNL     1       3.728   6.611  17.493  0.00  0.00    +0.000 A 
ATOM     13  C   UNL     1       3.654   5.291  17.947  0.00  0.00    +0.000 A 
ATOM     14  C   UNL     1       2.822   7.648  18.056  0.00  0.00    +0.000 C 
ATOM     15  O   UNL     1       2.755   8.725  17.466  0.00  0.00    +0.000 OA
ENDROOT
BRANCH   1  17
ATOM     16  C   UNL     1       0.416   8.801  19.886  0.00  0.00    +0.000 C 
ATOM     17  N   UNL     1       1.551   8.217  20.071  0.00  0.00    +0.000 NA
BRANCH  16  23
ATOM     18  C   UNL     1       0.050  11.239  20.508  0.00  0.00    +0.000 A 
ATOM     19  C   UNL     1      -0.359  12.181  21.467  0.00  0.00    +0.000 A 
ATOM     20  C   UNL     1      -0.714  11.784  22.759  0.00  0.00    +0.000 A 
ATOM     21  C   UNL     1      -0.689  10.440  23.103  0.00  0.00    +0.000 A 
ATOM     22  C   UNL     1      -0.341   9.489  22.146  0.00  0.00    +0.000 A 
ATOM     23  C   UNL     1       0.020   9.877  20.842  0.00  0.00    +0.000 A 
BRANCH  18  25
ATOM     24  C   UNL     1       1.688  12.339  19.214  0.00  0.00    +0.000 C 
ATOM     25  O   UNL     1       0.464  11.600  19.250  0.00  0.00    +0.000 OA
ENDBRANCH  18  25
ENDBRANCH  16  23
ENDBRANCH   1  17
TORSDOF 3
ENDMDL
