MODEL 1
REMARK VINA RESULT:      -8.3      0.000      0.000
REMARK  Name = 
REMARK  3 active torsions:
REMARK  status: ('A' for Active; 'I' for Inactive)
REMARK    1  A    between atoms: C_5  and  C_7
REMARK    2  A    between atoms: C_7  and  S_8
REMARK    3  A    between atoms: S_8  and  C_9
REMARK                            x       y       z     vdW  Elec       q    Type
REMARK                         _______ _______ _______ _____ _____    ______ ____
ROOT
ATOM      1  O   UNL     1       8.276   7.283  18.634  0.00  0.00    +0.000 OA
ATOM      2  C   UNL     1       7.561   6.495  18.016  0.00  0.00    +0.000 C 
ATOM      3  C   UNL     1       6.664   5.487  18.717  0.00  0.00    +0.000 C 
ATOM      4  N   UNL     1       5.529   5.016  17.907  0.00  0.00    +0.000 N 
ATOM      5  C   UNL     1       4.208   4.941  18.378  0.00  0.00    +0.000 C 
ATOM      6  O   UNL     1       3.258   4.648  17.644  0.00  0.00    +0.000 OA
ATOM      7  C   UNL     1       5.858   4.734  16.533  0.00  0.00    +0.000 A 
ATOM      8  C   UNL     1       5.146   3.820  15.748  0.00  0.00    +0.000 A 
ATOM      9  C   UNL     1       5.473   3.623  14.401  0.00  0.00    +0.000 A 
ATOM     10  C   UNL     1       6.505   4.350  13.814  0.00  0.00    +0.000 A 
ATOM     11  C   UNL     1       7.230   5.261  14.577  0.00  0.00    +0.000 A 
ATOM     12  C   UNL     1       6.924   5.432  15.930  0.00  0.00    +0.000 A 
ATOM     13  N   UNL     1       7.674   6.360  16.663  0.00  0.00    +0.000 N 
ATOM     14  H   UNL     1       8.356   6.950  16.205  0.00  0.00    +0.000 HD
ENDROOT
BRANCH   5  15
ATOM     15  C   UNL     1       3.944   5.348  19.837  0.00  0.00    +0.000 C 
BRANCH  15  16
ATOM     16  S   UNL     1       2.164   5.340  20.200  0.00  0.00    +0.000 S 
BRANCH  16  17
ATOM     17  C   UNL     1       1.760   7.019  20.062  0.00  0.00    +0.000 A 
ATOM     18  N   UNL     1       1.208   7.723  20.993  0.00  0.00    +0.000 NA
ATOM     19  C   UNL     1       0.961   9.085  20.698  0.00  0.00    +0.000 A 
ATOM     20  C   UNL     1       0.389   9.906  21.672  0.00  0.00    +0.000 A 
ATOM     21  C   UNL     1       0.132  11.259  21.407  0.00  0.00    +0.000 A 
ATOM     22  C   UNL     1       0.444  11.806  20.162  0.00  0.00    +0.000 A 
ATOM     23  C   UNL     1       1.015  11.002  19.178  0.00  0.00    +0.000 A 
ATOM     24  C   UNL     1       1.268   9.654  19.455  0.00  0.00    +0.000 A 
ATOM     25  C   UNL     1       1.880   8.784  18.440  0.00  0.00    +0.000 A 
ATOM     26  O   UNL     1       2.172   9.188  17.321  0.00  0.00    +0.000 OA
ATOM     27  N   UNL     1       2.098   7.495  18.836  0.00  0.00    +0.000 N 
ATOM     28  H   UNL     1       2.522   6.864  18.167  0.00  0.00    +0.000 HD
ENDBRANCH  16  17
ENDBRANCH  15  16
ENDBRANCH   5  15
TORSDOF 3
ENDMDL
MODEL 2
REMARK VINA RESULT:      -8.1      1.241      1.877
REMARK  Name = 
REMARK  3 active torsions:
REMARK  status: ('A' for Active; 'I' for Inactive)
REMARK    1  A    between atoms: C_5  and  C_7
REMARK    2  A    between atoms: C_7  and  S_8
REMARK    3  A    between atoms: S_8  and  C_9
REMARK                            x       y       z     vdW  Elec       q    Type
REMARK                         _______ _______ _______ _____ _____    ______ ____
ROOT
ATOM      1  O   UNL     1       8.174   7.424  18.495  0.00  0.00    +0.000 OA
ATOM      2  C   UNL     1       7.547   6.554  17.891  0.00  0.00    +0.000 C 
ATOM      3  C   UNL     1       6.845   5.410  18.606  0.00  0.00    +0.000 C 
ATOM      4  N   UNL     1       5.747   4.797  17.842  0.00  0.00    +0.000 N 
ATOM      5  C   UNL     1       4.479   4.520  18.377  0.00  0.00    +0.000 C 
ATOM      6  O   UNL     1       3.542   4.107  17.685  0.00  0.00    +0.000 OA
ATOM      7  C   UNL     1       6.038   4.596  16.446  0.00  0.00    +0.000 A 
ATOM      8  C   UNL     1       5.423   3.605  15.671  0.00  0.00    +0.000 A 
ATOM      9  C   UNL     1       5.701   3.487  14.303  0.00  0.00    +0.000 A 
ATOM     10  C   UNL     1       6.583   4.370  13.687  0.00  0.00    +0.000 A 
ATOM     11  C   UNL     1       7.210   5.360  14.438  0.00  0.00    +0.000 A 
ATOM     12  C   UNL     1       6.957   5.455  15.809  0.00  0.00    +0.000 A 
ATOM     13  N   UNL     1       7.604   6.466  16.530  0.00  0.00    +0.000 N 
ATOM     14  H   UNL     1       8.168   7.159  16.056  0.00  0.00    +0.000 HD
ENDROOT
BRANCH   5  15
ATOM     15  C   UNL     1       4.239   4.852  19.859  0.00  0.00    +0.000 C 
BRANCH  15  16
ATOM     16  S   UNL     1       2.463   4.856  20.243  0.00  0.00    +0.000 S 
BRANCH  16  17
ATOM     17  C   UNL     1       2.053   6.526  20.036  0.00  0.00    +0.000 A 
ATOM     18  N   UNL     1       2.279   7.212  18.967  0.00  0.00    +0.000 NA
ATOM     19  C   UNL     1       1.864   8.566  18.980  0.00  0.00    +0.000 A 
ATOM     20  C   UNL     1       2.057   9.355  17.845  0.00  0.00    +0.000 A 
ATOM     21  C   UNL     1       1.656  10.700  17.831  0.00  0.00    +0.000 A 
ATOM     22  C   UNL     1       1.058  11.270  18.955  0.00  0.00    +0.000 A 
ATOM     23  C   UNL     1       0.858  10.497  20.097  0.00  0.00    +0.000 A 
ATOM     24  C   UNL     1       1.260   9.157  20.098  0.00  0.00    +0.000 A 
ATOM     25  C   UNL     1       1.051   8.314  21.285  0.00  0.00    +0.000 A 
ATOM     26  O   UNL     1       0.543   8.745  22.312  0.00  0.00    +0.000 OA
ATOM     27  N   UNL     1       1.465   7.018  21.156  0.00  0.00    +0.000 N 
ATOM     28  H   UNL     1       1.335   6.404  21.950  0.00  0.00    +0.000 HD
ENDBRANCH  16  17
ENDBRANCH  15  16
ENDBRANCH   5  15
TORSDOF 3
ENDMDL
MODEL 3
REMARK VINA RESULT:      -7.9      2.742      3.845
REMARK  Name = 
REMARK  3 active torsions:
REMARK  status: ('A' for Active; 'I' for Inactive)
REMARK    1  A    between atoms: C_5  and  C_7
REMARK    2  A    between atoms: C_7  and  S_8
REMARK    3  A    between atoms: S_8  and  C_9
REMARK                            x       y       z     vdW  Elec       q    Type
REMARK                         _______ _______ _______ _____ _____    ______ ____
ROOT
ATOM      1  O   UNL     1       6.898   4.842  18.890  0.00  0.00    +0.000 OA
ATOM      2  C   UNL     1       5.686   4.629  18.901  0.00  0.00    +0.000 C 
ATOM      3  C   UNL     1       4.680   5.669  19.368  0.00  0.00    +0.000 C 
ATOM      4  N   UNL     1       3.320   5.480  18.839  0.00  0.00    +0.000 N 
ATOM      5  C   UNL     1       2.545   6.511  18.282  0.00  0.00    +0.000 C 
ATOM      6  O   UNL     1       1.451   6.303  17.746  0.00  0.00    +0.000 OA
ATOM      7  C   UNL     1       2.870   4.111  18.835  0.00  0.00    +0.000 A 
ATOM      8  C   UNL     1       1.519   3.750  18.894  0.00  0.00    +0.000 A 
ATOM      9  C   UNL     1       1.133   2.405  18.832  0.00  0.00    +0.000 A 
ATOM     10  C   UNL     1       2.090   1.404  18.690  0.00  0.00    +0.000 A 
ATOM     11  C   UNL     1       3.440   1.740  18.634  0.00  0.00    +0.000 A 
ATOM     12  C   UNL     1       3.826   3.080  18.731  0.00  0.00    +0.000 A 
ATOM     13  N   UNL     1       5.192   3.378  18.667  0.00  0.00    +0.000 N 
ATOM     14  H   UNL     1       5.870   2.654  18.469  0.00  0.00    +0.000 HD
ENDROOT
BRANCH   5  15
ATOM     15  C   UNL     1       3.149   7.924  18.254  0.00  0.00    +0.000 C 
BRANCH  15  16
ATOM     16  S   UNL     1       2.002   9.103  17.482  0.00  0.00    +0.000 S 
BRANCH  16  17
ATOM     17  C   UNL     1       1.120   9.697  18.849  0.00  0.00    +0.000 A 
ATOM     18  N   UNL     1       1.111   9.145  20.016  0.00  0.00    +0.000 NA
ATOM     19  C   UNL     1       0.335   9.780  21.014  0.00  0.00    +0.000 A 
ATOM     20  C   UNL     1       0.303   9.247  22.304  0.00  0.00    +0.000 A 
ATOM     21  C   UNL     1      -0.457   9.856  23.313  0.00  0.00    +0.000 A 
ATOM     22  C   UNL     1      -1.197  11.008  23.041  0.00  0.00    +0.000 A 
ATOM     23  C   UNL     1      -1.179  11.553  21.760  0.00  0.00    +0.000 A 
ATOM     24  C   UNL     1      -0.414  10.938  20.763  0.00  0.00    +0.000 A 
ATOM     25  C   UNL     1      -0.366  11.499  19.404  0.00  0.00    +0.000 A 
ATOM     26  O   UNL     1      -0.996  12.499  19.086  0.00  0.00    +0.000 OA
ATOM     27  N   UNL     1       0.432  10.821  18.525  0.00  0.00    +0.000 N 
ATOM     28  H   UNL     1       0.496  11.178  17.580  0.00  0.00    +0.000 HD
ENDBRANCH  16  17
ENDBRANCH  15  16
ENDBRANCH   5  15
TORSDOF 3
ENDMDL
MODEL 4
REMARK VINA RESULT:      -7.7      2.781      9.217
REMARK  Name = 
REMARK  3 active torsions:
REMARK  status: ('A' for Active; 'I' for Inactive)
REMARK    1  A    between atoms: C_5  and  C_7
REMARK    2  A    between atoms: C_7  and  S_8
REMARK    3  A    between atoms: S_8  and  C_9
REMARK                            x       y       z     vdW  Elec       q    Type
REMARK                         _______ _______ _______ _____ _____    ______ ____
ROOT
ATOM      1  O   UNL     1      -2.178  11.370  16.959  0.00  0.00    +0.000 OA
ATOM      2  C   UNL     1      -1.939  11.464  18.163  0.00  0.00    +0.000 C 
ATOM      3  C   UNL     1      -1.369  10.309  18.972  0.00  0.00    +0.000 C 
ATOM      4  N   UNL     1      -0.666  10.715  20.199  0.00  0.00    +0.000 N 
ATOM      5  C   UNL     1       0.593  10.224  20.579  0.00  0.00    +0.000 C 
ATOM      6  O   UNL     1       1.210  10.664  21.556  0.00  0.00    +0.000 OA
ATOM      7  C   UNL     1      -1.328  11.755  20.945  0.00  0.00    +0.000 A 
ATOM      8  C   UNL     1      -1.169  11.926  22.326  0.00  0.00    +0.000 A 
ATOM      9  C   UNL     1      -1.792  12.987  22.994  0.00  0.00    +0.000 A 
ATOM     10  C   UNL     1      -2.567  13.904  22.289  0.00  0.00    +0.000 A 
ATOM     11  C   UNL     1      -2.743  13.751  20.916  0.00  0.00    +0.000 A 
ATOM     12  C   UNL     1      -2.148  12.672  20.256  0.00  0.00    +0.000 A 
ATOM     13  N   UNL     1      -2.345  12.554  18.876  0.00  0.00    +0.000 N 
ATOM     14  H   UNL     1      -2.829  13.277  18.360  0.00  0.00    +0.000 HD
ENDROOT
BRANCH   5  15
ATOM     15  C   UNL     1       1.258   9.178  19.669  0.00  0.00    +0.000 C 
BRANCH  15  16
ATOM     16  S   UNL     1       1.620   7.654  20.591  0.00  0.00    +0.000 S 
BRANCH  16  17
ATOM     17  C   UNL     1       2.467   6.711  19.411  0.00  0.00    +0.000 A 
ATOM     18  N   UNL     1       3.247   7.195  18.503  0.00  0.00    +0.000 NA
ATOM     19  C   UNL     1       3.860   6.265  17.630  0.00  0.00    +0.000 A 
ATOM     20  C   UNL     1       4.735   6.722  16.643  0.00  0.00    +0.000 A 
ATOM     21  C   UNL     1       5.356   5.823  15.763  0.00  0.00    +0.000 A 
ATOM     22  C   UNL     1       5.107   4.454  15.862  0.00  0.00    +0.000 A 
ATOM     23  C   UNL     1       4.237   3.979  16.840  0.00  0.00    +0.000 A 
ATOM     24  C   UNL     1       3.625   4.886  17.713  0.00  0.00    +0.000 A 
ATOM     25  C   UNL     1       2.711   4.412  18.763  0.00  0.00    +0.000 A 
ATOM     26  O   UNL     1       2.434   3.228  18.905  0.00  0.00    +0.000 OA
ATOM     27  N   UNL     1       2.194   5.390  19.565  0.00  0.00    +0.000 N 
ATOM     28  H   UNL     1       1.563   5.105  20.304  0.00  0.00    +0.000 HD
ENDBRANCH  16  17
ENDBRANCH  15  16
ENDBRANCH   5  15
TORSDOF 3
ENDMDL
MODEL 5
REMARK VINA RESULT:      -7.6      4.635      9.816
REMARK  Name = 
REMARK  3 active torsions:
REMARK  status: ('A' for Active; 'I' for Inactive)
REMARK    1  A    between atoms: C_5  and  C_7
REMARK    2  A    between atoms: C_7  and  S_8
REMARK    3  A    between atoms: S_8  and  C_9
REMARK                            x       y       z     vdW  Elec       q    Type
REMARK                         _______ _______ _______ _____ _____    ______ ____
ROOT
ATOM      1  O   UNL     1      -2.669  10.654  15.418  0.00  0.00    +0.000 OA
ATOM      2  C   UNL     1      -3.236  11.028  16.444  0.00  0.00    +0.000 C 
ATOM      3  C   UNL     1      -2.701  10.711  17.832  0.00  0.00    +0.000 C 
ATOM      4  N   UNL     1      -3.156  11.633  18.885  0.00  0.00    +0.000 N 
ATOM      5  C   UNL     1      -2.304  12.217  19.836  0.00  0.00    +0.000 C 
ATOM      6  O   UNL     1      -2.693  13.073  20.639  0.00  0.00    +0.000 OA
ATOM      7  C   UNL     1      -4.550  11.986  18.801  0.00  0.00    +0.000 A 
ATOM      8  C   UNL     1      -5.307  12.379  19.911  0.00  0.00    +0.000 A 
ATOM      9  C   UNL     1      -6.646  12.765  19.767  0.00  0.00    +0.000 A 
ATOM     10  C   UNL     1      -7.241  12.782  18.508  0.00  0.00    +0.000 A 
ATOM     11  C   UNL     1      -6.508  12.392  17.390  0.00  0.00    +0.000 A 
ATOM     12  C   UNL     1      -5.183  11.975  17.541  0.00  0.00    +0.000 A 
ATOM     13  N   UNL     1      -4.478  11.592  16.394  0.00  0.00    +0.000 N 
ATOM     14  H   UNL     1      -4.889  11.699  15.476  0.00  0.00    +0.000 HD
ENDROOT
BRANCH   5  15
ATOM     15  C   UNL     1      -0.814  11.843  19.788  0.00  0.00    +0.000 C 
BRANCH  15  16
ATOM     16  S   UNL     1      -0.367  10.779  21.193  0.00  0.00    +0.000 S 
BRANCH  16  17
ATOM     17  C   UNL     1       0.591   9.556  20.429  0.00  0.00    +0.000 A 
ATOM     18  N   UNL     1       0.879   8.412  20.952  0.00  0.00    +0.000 NA
ATOM     19  C   UNL     1       1.670   7.535  20.171  0.00  0.00    +0.000 A 
ATOM     20  C   UNL     1       1.995   6.273  20.671  0.00  0.00    +0.000 A 
ATOM     21  C   UNL     1       2.777   5.384  19.919  0.00  0.00    +0.000 A 
ATOM     22  C   UNL     1       3.245   5.751  18.656  0.00  0.00    +0.000 A 
ATOM     23  C   UNL     1       2.932   7.006  18.142  0.00  0.00    +0.000 A 
ATOM     24  C   UNL     1       2.148   7.883  18.901  0.00  0.00    +0.000 A 
ATOM     25  C   UNL     1       1.792   9.211  18.379  0.00  0.00    +0.000 A 
ATOM     26  O   UNL     1       2.174   9.608  17.286  0.00  0.00    +0.000 OA
ATOM     27  N   UNL     1       1.006   9.966  19.203  0.00  0.00    +0.000 N 
ATOM     28  H   UNL     1       0.734  10.886  18.878  0.00  0.00    +0.000 HD
ENDBRANCH  16  17
ENDBRANCH  15  16
ENDBRANCH   5  15
TORSDOF 3
ENDMDL
MODEL 6
REMARK VINA RESULT:      -7.5      3.070      8.985
REMARK  Name = 
REMARK  3 active torsions:
REMARK  status: ('A' for Active; 'I' for Inactive)
REMARK    1  A    between atoms: C_5  and  C_7
REMARK    2  A    between atoms: C_7  and  S_8
REMARK    3  A    between atoms: S_8  and  C_9
REMARK                            x       y       z     vdW  Elec       q    Type
REMARK                         _______ _______ _______ _____ _____    ______ ____
ROOT
ATOM      1  O   UNL     1      -2.855  11.189  15.927  0.00  0.00    +0.000 OA
ATOM      2  C   UNL     1      -2.404  11.168  17.071  0.00  0.00    +0.000 C 
ATOM      3  C   UNL     1      -1.623   9.983  17.617  0.00  0.00    +0.000 C 
ATOM      4  N   UNL     1      -0.732  10.307  18.742  0.00  0.00    +0.000 N 
ATOM      5  C   UNL     1       0.605   9.886  18.830  0.00  0.00    +0.000 C 
ATOM      6  O   UNL     1       1.363  10.264  19.730  0.00  0.00    +0.000 OA
ATOM      7  C   UNL     1      -1.308  11.198  19.716  0.00  0.00    +0.000 A 
ATOM      8  C   UNL     1      -0.907  11.227  21.058  0.00  0.00    +0.000 A 
ATOM      9  C   UNL     1      -1.462  12.151  21.953  0.00  0.00    +0.000 A 
ATOM     10  C   UNL     1      -2.410  13.072  21.515  0.00  0.00    +0.000 A 
ATOM     11  C   UNL     1      -2.826  13.058  20.187  0.00  0.00    +0.000 A 
ATOM     12  C   UNL     1      -2.297  12.114  19.303  0.00  0.00    +0.000 A 
ATOM     13  N   UNL     1      -2.739  12.134  17.975  0.00  0.00    +0.000 N 
ATOM     14  H   UNL     1      -3.355  12.866  17.647  0.00  0.00    +0.000 HD
ENDROOT
BRANCH   5  15
ATOM     15  C   UNL     1       1.154   9.007  17.693  0.00  0.00    +0.000 C 
BRANCH  15  16
ATOM     16  S   UNL     1       2.939   8.732  17.893  0.00  0.00    +0.000 S 
BRANCH  16  17
ATOM     17  C   UNL     1       3.046   7.004  17.840  0.00  0.00    +0.000 A 
ATOM     18  N   UNL     1       2.123   6.196  18.243  0.00  0.00    +0.000 NA
ATOM     19  C   UNL     1       2.387   4.812  18.112  0.00  0.00    +0.000 A 
ATOM     20  C   UNL     1       1.419   3.887  18.507  0.00  0.00    +0.000 A 
ATOM     21  C   UNL     1       1.655   2.509  18.389  0.00  0.00    +0.000 A 
ATOM     22  C   UNL     1       2.865   2.041  17.875  0.00  0.00    +0.000 A 
ATOM     23  C   UNL     1       3.843   2.949  17.477  0.00  0.00    +0.000 A 
ATOM     24  C   UNL     1       3.595   4.322  17.597  0.00  0.00    +0.000 A 
ATOM     25  C   UNL     1       4.604   5.304  17.174  0.00  0.00    +0.000 A 
ATOM     26  O   UNL     1       5.693   4.971  16.724  0.00  0.00    +0.000 OA
ATOM     27  N   UNL     1       4.237   6.612  17.321  0.00  0.00    +0.000 N 
ATOM     28  H   UNL     1       4.903   7.320  17.036  0.00  0.00    +0.000 HD
ENDBRANCH  16  17
ENDBRANCH  15  16
ENDBRANCH   5  15
TORSDOF 3
ENDMDL
MODEL 7
REMARK VINA RESULT:      -7.5      3.052      8.378
REMARK  Name = 
REMARK  3 active torsions:
REMARK  status: ('A' for Active; 'I' for Inactive)
REMARK    1  A    between atoms: C_5  and  C_7
REMARK    2  A    between atoms: C_7  and  S_8
REMARK    3  A    between atoms: S_8  and  C_9
REMARK                            x       y       z     vdW  Elec       q    Type
REMARK                         _______ _______ _______ _____ _____    ______ ____
ROOT
ATOM      1  O   UNL     1      -2.809  10.690  18.440  0.00  0.00    +0.000 OA
ATOM      2  C   UNL     1      -1.702  11.211  18.569  0.00  0.00    +0.000 C 
ATOM      3  C   UNL     1      -0.488  10.435  19.055  0.00  0.00    +0.000 C 
ATOM      4  N   UNL     1       0.805  11.015  18.659  0.00  0.00    +0.000 N 
ATOM      5  C   UNL     1       1.861  10.272  18.108  0.00  0.00    +0.000 C 
ATOM      6  O   UNL     1       2.894  10.802  17.682  0.00  0.00    +0.000 OA
ATOM      7  C   UNL     1       0.871  12.449  18.778  0.00  0.00    +0.000 A 
ATOM      8  C   UNL     1       2.070  13.145  18.976  0.00  0.00    +0.000 A 
ATOM      9  C   UNL     1       2.087  14.545  19.031  0.00  0.00    +0.000 A 
ATOM     10  C   UNL     1       0.909  15.269  18.870  0.00  0.00    +0.000 A 
ATOM     11  C   UNL     1      -0.295  14.598  18.676  0.00  0.00    +0.000 A 
ATOM     12  C   UNL     1      -0.315  13.200  18.656  0.00  0.00    +0.000 A 
ATOM     13  N   UNL     1      -1.545  12.562  18.457  0.00  0.00    +0.000 N 
ATOM     14  H   UNL     1      -2.377  13.098  18.246  0.00  0.00    +0.000 HD
ENDROOT
BRANCH   5  15
ATOM     15  C   UNL     1       1.660   8.757  17.940  0.00  0.00    +0.000 C 
BRANCH  15  16
ATOM     16  S   UNL     1       3.222   7.941  17.500  0.00  0.00    +0.000 S 
BRANCH  16  17
ATOM     17  C   UNL     1       3.142   6.482  18.431  0.00  0.00    +0.000 A 
ATOM     18  N   UNL     1       2.102   6.081  19.083  0.00  0.00    +0.000 NA
ATOM     19  C   UNL     1       2.223   4.855  19.781  0.00  0.00    +0.000 A 
ATOM     20  C   UNL     1       1.126   4.355  20.485  0.00  0.00    +0.000 A 
ATOM     21  C   UNL     1       1.218   3.143  21.185  0.00  0.00    +0.000 A 
ATOM     22  C   UNL     1       2.411   2.418  21.190  0.00  0.00    +0.000 A 
ATOM     23  C   UNL     1       3.515   2.903  20.494  0.00  0.00    +0.000 A 
ATOM     24  C   UNL     1       3.410   4.112  19.797  0.00  0.00    +0.000 A 
ATOM     25  C   UNL     1       4.557   4.642  19.043  0.00  0.00    +0.000 A 
ATOM     26  O   UNL     1       5.639   4.071  19.009  0.00  0.00    +0.000 OA
ATOM     27  N   UNL     1       4.325   5.818  18.387  0.00  0.00    +0.000 N 
ATOM     28  H   UNL     1       5.088   6.215  17.852  0.00  0.00    +0.000 HD
ENDBRANCH  16  17
ENDBRANCH  15  16
ENDBRANCH   5  15
TORSDOF 3
ENDMDL
MODEL 8
REMARK VINA RESULT:      -7.5      2.422      3.830
REMARK  Name = 
REMARK  3 active torsions:
REMARK  status: ('A' for Active; 'I' for Inactive)
REMARK    1  A    between atoms: C_5  and  C_7
REMARK    2  A    between atoms: C_7  and  S_8
REMARK    3  A    between atoms: S_8  and  C_9
REMARK                            x       y       z     vdW  Elec       q    Type
REMARK                         _______ _______ _______ _____ _____    ______ ____
ROOT
ATOM      1  O   UNL     1       1.924   2.903  19.129  0.00  0.00    +0.000 OA
ATOM      2  C   UNL     1       2.617   3.616  18.403  0.00  0.00    +0.000 C 
ATOM      3  C   UNL     1       2.160   4.988  17.934  0.00  0.00    +0.000 C 
ATOM      4  N   UNL     1       3.253   5.894  17.549  0.00  0.00    +0.000 N 
ATOM      5  C   UNL     1       3.350   7.230  17.971  0.00  0.00    +0.000 C 
ATOM      6  O   UNL     1       4.334   7.936  17.723  0.00  0.00    +0.000 OA
ATOM      7  C   UNL     1       4.298   5.269  16.778  0.00  0.00    +0.000 A 
ATOM      8  C   UNL     1       5.115   5.972  15.885  0.00  0.00    +0.000 A 
ATOM      9  C   UNL     1       6.153   5.326  15.201  0.00  0.00    +0.000 A 
ATOM     10  C   UNL     1       6.400   3.973  15.414  0.00  0.00    +0.000 A 
ATOM     11  C   UNL     1       5.597   3.253  16.295  0.00  0.00    +0.000 A 
ATOM     12  C   UNL     1       4.541   3.891  16.951  0.00  0.00    +0.000 A 
ATOM     13  N   UNL     1       3.758   3.134  17.830  0.00  0.00    +0.000 N 
ATOM     14  H   UNL     1       4.005   2.178  18.049  0.00  0.00    +0.000 HD
ENDROOT
BRANCH   5  15
ATOM     15  C   UNL     1       2.226   7.781  18.865  0.00  0.00    +0.000 C 
BRANCH  15  16
ATOM     16  S   UNL     1       1.490   9.274  18.135  0.00  0.00    +0.000 S 
BRANCH  16  17
ATOM     17  C   UNL     1       0.626   9.944  19.477  0.00  0.00    +0.000 A 
ATOM     18  N   UNL     1      -0.337  10.799  19.381  0.00  0.00    +0.000 NA
ATOM     19  C   UNL     1      -0.930  11.228  20.592  0.00  0.00    +0.000 A 
ATOM     20  C   UNL     1      -1.993  12.133  20.554  0.00  0.00    +0.000 A 
ATOM     21  C   UNL     1      -2.599  12.575  21.739  0.00  0.00    +0.000 A 
ATOM     22  C   UNL     1      -2.148  12.116  22.977  0.00  0.00    +0.000 A 
ATOM     23  C   UNL     1      -1.089  11.214  23.034  0.00  0.00    +0.000 A 
ATOM     24  C   UNL     1      -0.493  10.779  21.845  0.00  0.00    +0.000 A 
ATOM     25  C   UNL     1       0.619   9.817  21.875  0.00  0.00    +0.000 A 
ATOM     26  O   UNL     1       1.078   9.378  22.921  0.00  0.00    +0.000 OA
ATOM     27  N   UNL     1       1.102   9.452  20.649  0.00  0.00    +0.000 N 
ATOM     28  H   UNL     1       1.866   8.787  20.626  0.00  0.00    +0.000 HD
ENDBRANCH  16  17
ENDBRANCH  15  16
ENDBRANCH   5  15
TORSDOF 3
ENDMDL
MODEL 9
REMARK VINA RESULT:      -7.4      2.234      3.445
REMARK  Name = 
REMARK  3 active torsions:
REMARK  status: ('A' for Active; 'I' for Inactive)
REMARK    1  A    between atoms: C_5  and  C_7
REMARK    2  A    between atoms: C_7  and  S_8
REMARK    3  A    between atoms: S_8  and  C_9
REMARK                            x       y       z     vdW  Elec       q    Type
REMARK                         _______ _______ _______ _____ _____    ______ ____
ROOT
ATOM      1  O   UNL     1       4.267   2.466  20.381  0.00  0.00    +0.000 OA
ATOM      2  C   UNL     1       4.359   3.301  19.482  0.00  0.00    +0.000 C 
ATOM      3  C   UNL     1       3.153   4.052  18.941  0.00  0.00    +0.000 C 
ATOM      4  N   UNL     1       3.474   5.332  18.291  0.00  0.00    +0.000 N 
ATOM      5  C   UNL     1       2.790   6.532  18.543  0.00  0.00    +0.000 C 
ATOM      6  O   UNL     1       3.151   7.615  18.067  0.00  0.00    +0.000 OA
ATOM      7  C   UNL     1       4.636   5.289  17.440  0.00  0.00    +0.000 A 
ATOM      8  C   UNL     1       4.823   6.157  16.357  0.00  0.00    +0.000 A 
ATOM      9  C   UNL     1       5.997   6.110  15.595  0.00  0.00    +0.000 A 
ATOM     10  C   UNL     1       7.008   5.208  15.915  0.00  0.00    +0.000 A 
ATOM     11  C   UNL     1       6.841   4.332  16.984  0.00  0.00    +0.000 A 
ATOM     12  C   UNL     1       5.655   4.358  17.723  0.00  0.00    +0.000 A 
ATOM     13  N   UNL     1       5.526   3.464  18.793  0.00  0.00    +0.000 N 
ATOM     14  H   UNL     1       6.303   2.880  19.075  0.00  0.00    +0.000 HD
ENDROOT
BRANCH   5  15
ATOM     15  C   UNL     1       1.616   6.492  19.535  0.00  0.00    +0.000 C 
BRANCH  15  16
ATOM     16  S   UNL     1       1.992   7.466  21.023  0.00  0.00    +0.000 S 
BRANCH  16  17
ATOM     17  C   UNL     1       0.943   8.831  20.836  0.00  0.00    +0.000 A 
ATOM     18  N   UNL     1       0.548   9.306  19.703  0.00  0.00    +0.000 NA
ATOM     19  C   UNL     1      -0.318  10.426  19.749  0.00  0.00    +0.000 A 
ATOM     20  C   UNL     1      -0.800  10.971  18.558  0.00  0.00    +0.000 A 
ATOM     21  C   UNL     1      -1.659  12.080  18.575  0.00  0.00    +0.000 A 
ATOM     22  C   UNL     1      -2.043  12.658  19.786  0.00  0.00    +0.000 A 
ATOM     23  C   UNL     1      -1.571  12.127  20.984  0.00  0.00    +0.000 A 
ATOM     24  C   UNL     1      -0.716  11.019  20.954  0.00  0.00    +0.000 A 
ATOM     25  C   UNL     1      -0.211  10.430  22.204  0.00  0.00    +0.000 A 
ATOM     26  O   UNL     1      -0.494  10.887  23.304  0.00  0.00    +0.000 OA
ATOM     27  N   UNL     1       0.596   9.340  22.046  0.00  0.00    +0.000 N 
ATOM     28  H   UNL     1       0.962   8.902  22.883  0.00  0.00    +0.000 HD
ENDBRANCH  16  17
ENDBRANCH  15  16
ENDBRANCH   5  15
TORSDOF 3
ENDMDL
