MODEL 1
REMARK VINA RESULT:      -7.8      0.000      0.000
REMARK  Name = 
REMARK  3 active torsions:
REMARK  status: ('A' for Active; 'I' for Inactive)
REMARK    1  A    between atoms: C_5  and  N_6
REMARK    2  A    between atoms: N_11  and  C_12
REMARK    3  A    between atoms: C_12  and  C_13
REMARK                            x       y       z     vdW  Elec       q    Type
REMARK                         _______ _______ _______ _____ _____    ______ ____
ROOT
ATOM      1  N   UNL     1       1.914   8.339  19.170  0.00  0.00    +0.000 N 
ATOM      2  N   UNL     1       2.212   9.026  18.023  0.00  0.00    +0.000 NA
ATOM      3  C   UNL     1       3.022   8.211  17.348  0.00  0.00    +0.000 A 
ATOM      4  C   UNL     1       3.231   6.982  17.992  0.00  0.00    +0.000 A 
ATOM      5  C   UNL     1       3.943   5.799  17.749  0.00  0.00    +0.000 A 
ATOM      6  N   UNL     1       4.781   5.646  16.658  0.00  0.00    +0.000 N 
ATOM      7  N   UNL     1       3.836   4.805  18.661  0.00  0.00    +0.000 NA
ATOM      8  C   UNL     1       3.077   5.000  19.754  0.00  0.00    +0.000 A 
ATOM      9  N   UNL     1       2.378   6.093  20.085  0.00  0.00    +0.000 NA
ATOM     10  C   UNL     1       2.491   7.069  19.161  0.00  0.00    +0.000 A 
ATOM     11  H   UNL     1       4.703   6.347  15.932  0.00  0.00    +0.000 HD
ENDROOT
BRANCH   1  16
ATOM     12 CL   UNL     1      -1.462  10.998  23.294  0.00  0.00    +0.000 Cl
ATOM     13  C   UNL     1      -0.484  10.227  22.107  0.00  0.00    +0.000 A 
ATOM     14  C   UNL     1      -0.607  10.583  20.767  0.00  0.00    +0.000 A 
ATOM     15  C   UNL     1       0.192   9.957  19.804  0.00  0.00    +0.000 A 
ATOM     16  C   UNL     1       1.113   8.960  20.177  0.00  0.00    +0.000 A 
ATOM     17  C   UNL     1       1.225   8.615  21.531  0.00  0.00    +0.000 A 
ATOM     18  C   UNL     1       0.430   9.249  22.491  0.00  0.00    +0.000 A 
ENDBRANCH   1  16
BRANCH   6  19
ATOM     19  C   UNL     1       4.963   4.301  16.129  0.00  0.00    +0.000 C 
BRANCH  19  20
ATOM     20  C   UNL     1       5.766   4.372  14.846  0.00  0.00    +0.000 A 
ATOM     21  C   UNL     1       5.394   3.583  13.756  0.00  0.00    +0.000 A 
ATOM     22  C   UNL     1       6.153   3.641  12.592  0.00  0.00    +0.000 A 
ATOM     23  C   UNL     1       7.266   4.469  12.549  0.00  0.00    +0.000 A 
ATOM     24  C   UNL     1       7.580   5.205  13.679  0.00  0.00    +0.000 A 
ATOM     25  N   UNL     1       6.861   5.176  14.824  0.00  0.00    +0.000 NA
ENDBRANCH  19  20
ENDBRANCH   6  19
TORSDOF 3
ENDMDL
MODEL 2
REMARK VINA RESULT:      -7.7      0.486      1.098
REMARK  Name = 
REMARK  3 active torsions:
REMARK  status: ('A' for Active; 'I' for Inactive)
REMARK    1  A    between atoms: C_5  and  N_6
REMARK    2  A    between atoms: N_11  and  C_12
REMARK    3  A    between atoms: C_12  and  C_13
REMARK                            x       y       z     vdW  Elec       q    Type
REMARK                         _______ _______ _______ _____ _____    ______ ____
ROOT
ATOM      1  N   UNL     1       2.216   8.162  18.905  0.00  0.00    +0.000 N 
ATOM      2  N   UNL     1       2.437   8.825  17.728  0.00  0.00    +0.000 NA
ATOM      3  C   UNL     1       3.296   8.052  17.066  0.00  0.00    +0.000 A 
ATOM      4  C   UNL     1       3.614   6.868  17.749  0.00  0.00    +0.000 A 
ATOM      5  C   UNL     1       4.412   5.735  17.534  0.00  0.00    +0.000 A 
ATOM      6  N   UNL     1       5.240   5.608  16.432  0.00  0.00    +0.000 N 
ATOM      7  N   UNL     1       4.401   4.772  18.484  0.00  0.00    +0.000 NA
ATOM      8  C   UNL     1       3.650   4.948  19.585  0.00  0.00    +0.000 A 
ATOM      9  N   UNL     1       2.873   5.995  19.891  0.00  0.00    +0.000 NA
ATOM     10  C   UNL     1       2.891   6.941  18.930  0.00  0.00    +0.000 A 
ATOM     11  H   UNL     1       5.093   6.272  15.682  0.00  0.00    +0.000 HD
ENDROOT
BRANCH   1  16
ATOM     12 CL   UNL     1      -1.207  10.562  23.147  0.00  0.00    +0.000 Cl
ATOM     13  C   UNL     1      -0.221   9.872  21.918  0.00  0.00    +0.000 A 
ATOM     14  C   UNL     1       0.672   8.853  22.234  0.00  0.00    +0.000 A 
ATOM     15  C   UNL     1       1.471   8.291  21.232  0.00  0.00    +0.000 A 
ATOM     16  C   UNL     1       1.387   8.756  19.906  0.00  0.00    +0.000 A 
ATOM     17  C   UNL     1       0.480   9.782  19.605  0.00  0.00    +0.000 A 
ATOM     18  C   UNL     1      -0.321  10.335  20.608  0.00  0.00    +0.000 A 
ENDBRANCH   1  16
BRANCH   6  19
ATOM     19  C   UNL     1       5.517   4.262  15.948  0.00  0.00    +0.000 C 
BRANCH  19  20
ATOM     20  C   UNL     1       6.169   4.345  14.582  0.00  0.00    +0.000 A 
ATOM     21  C   UNL     1       5.678   3.563  13.536  0.00  0.00    +0.000 A 
ATOM     22  C   UNL     1       6.301   3.632  12.294  0.00  0.00    +0.000 A 
ATOM     23  C   UNL     1       7.400   4.464  12.131  0.00  0.00    +0.000 A 
ATOM     24  C   UNL     1       7.838   5.193  13.225  0.00  0.00    +0.000 A 
ATOM     25  N   UNL     1       7.254   5.152  14.443  0.00  0.00    +0.000 NA
ENDBRANCH  19  20
ENDBRANCH   6  19
TORSDOF 3
ENDMDL
MODEL 3
REMARK VINA RESULT:      -7.5      2.886      5.341
REMARK  Name = 
REMARK  3 active torsions:
REMARK  status: ('A' for Active; 'I' for Inactive)
REMARK    1  A    between atoms: C_5  and  N_6
REMARK    2  A    between atoms: N_11  and  C_12
REMARK    3  A    between atoms: C_12  and  C_13
REMARK                            x       y       z     vdW  Elec       q    Type
REMARK                         _______ _______ _______ _____ _____    ______ ____
ROOT
ATOM      1  N   UNL     1      -0.455  11.172  22.209  0.00  0.00    +0.000 N 
ATOM      2  N   UNL     1       0.195  10.251  22.987  0.00  0.00    +0.000 NA
ATOM      3  C   UNL     1       0.814   9.456  22.115  0.00  0.00    +0.000 A 
ATOM      4  C   UNL     1       0.634   9.853  20.781  0.00  0.00    +0.000 A 
ATOM      5  C   UNL     1       1.043   9.420  19.512  0.00  0.00    +0.000 A 
ATOM      6  N   UNL     1       1.772   8.259  19.322  0.00  0.00    +0.000 N 
ATOM      7  N   UNL     1       0.647  10.150  18.443  0.00  0.00    +0.000 NA
ATOM      8  C   UNL     1      -0.126  11.232  18.641  0.00  0.00    +0.000 A 
ATOM      9  N   UNL     1      -0.583  11.714  19.803  0.00  0.00    +0.000 NA
ATOM     10  C   UNL     1      -0.172  10.979  20.857  0.00  0.00    +0.000 A 
ATOM     11  H   UNL     1       2.174   7.842  20.152  0.00  0.00    +0.000 HD
ENDROOT
BRANCH   1  16
ATOM     12 CL   UNL     1      -3.871  15.317  24.782  0.00  0.00    +0.000 Cl
ATOM     13  C   UNL     1      -2.889  14.117  24.040  0.00  0.00    +0.000 A 
ATOM     14  C   UNL     1      -1.603  14.436  23.613  0.00  0.00    +0.000 A 
ATOM     15  C   UNL     1      -0.805  13.456  23.013  0.00  0.00    +0.000 A 
ATOM     16  C   UNL     1      -1.295  12.151  22.826  0.00  0.00    +0.000 A 
ATOM     17  C   UNL     1      -2.591  11.845  23.263  0.00  0.00    +0.000 A 
ATOM     18  C   UNL     1      -3.383  12.826  23.869  0.00  0.00    +0.000 A 
ENDBRANCH   1  16
BRANCH   6  19
ATOM     19  C   UNL     1       2.665   8.203  18.172  0.00  0.00    +0.000 C 
BRANCH  19  20
ATOM     20  C   UNL     1       3.018   6.758  17.882  0.00  0.00    +0.000 A 
ATOM     21  C   UNL     1       2.139   5.744  18.267  0.00  0.00    +0.000 A 
ATOM     22  C   UNL     1       2.485   4.421  18.016  0.00  0.00    +0.000 A 
ATOM     23  C   UNL     1       3.699   4.142  17.402  0.00  0.00    +0.000 A 
ATOM     24  C   UNL     1       4.524   5.204  17.069  0.00  0.00    +0.000 A 
ATOM     25  N   UNL     1       4.216   6.500  17.295  0.00  0.00    +0.000 NA
ENDBRANCH  19  20
ENDBRANCH   6  19
TORSDOF 3
ENDMDL
MODEL 4
REMARK VINA RESULT:      -7.5      3.865      5.898
REMARK  Name = 
REMARK  3 active torsions:
REMARK  status: ('A' for Active; 'I' for Inactive)
REMARK    1  A    between atoms: C_5  and  N_6
REMARK    2  A    between atoms: N_11  and  C_12
REMARK    3  A    between atoms: C_12  and  C_13
REMARK                            x       y       z     vdW  Elec       q    Type
REMARK                         _______ _______ _______ _____ _____    ______ ____
ROOT
ATOM      1  N   UNL     1      -0.404  11.217  22.422  0.00  0.00    +0.000 N 
ATOM      2  N   UNL     1      -0.254  10.377  23.493  0.00  0.00    +0.000 NA
ATOM      3  C   UNL     1       0.287   9.274  22.979  0.00  0.00    +0.000 A 
ATOM      4  C   UNL     1       0.548   9.375  21.604  0.00  0.00    +0.000 A 
ATOM      5  C   UNL     1       1.094   8.569  20.596  0.00  0.00    +0.000 A 
ATOM      6  N   UNL     1       1.472   7.255  20.817  0.00  0.00    +0.000 N 
ATOM      7  N   UNL     1       1.191   9.098  19.354  0.00  0.00    +0.000 NA
ATOM      8  C   UNL     1       0.748  10.349  19.140  0.00  0.00    +0.000 A 
ATOM      9  N   UNL     1       0.197  11.188  20.026  0.00  0.00    +0.000 NA
ATOM     10  C   UNL     1       0.115  10.646  21.259  0.00  0.00    +0.000 A 
ATOM     11  H   UNL     1       1.528   6.962  21.785  0.00  0.00    +0.000 HD
ENDROOT
BRANCH   1  16
ATOM     12 CL   UNL     1      -2.947  16.553  23.151  0.00  0.00    +0.000 Cl
ATOM     13  C   UNL     1      -2.217  15.009  22.942  0.00  0.00    +0.000 A 
ATOM     14  C   UNL     1      -0.905  14.916  22.489  0.00  0.00    +0.000 A 
ATOM     15  C   UNL     1      -0.312  13.659  22.323  0.00  0.00    +0.000 A 
ATOM     16  C   UNL     1      -1.037  12.486  22.601  0.00  0.00    +0.000 A 
ATOM     17  C   UNL     1      -2.357  12.597  23.059  0.00  0.00    +0.000 A 
ATOM     18  C   UNL     1      -2.943  13.856  23.229  0.00  0.00    +0.000 A 
ENDBRANCH   1  16
BRANCH   6  19
ATOM     19  C   UNL     1       2.549   6.716  20.000  0.00  0.00    +0.000 C 
BRANCH  19  20
ATOM     20  C   UNL     1       2.131   5.369  19.444  0.00  0.00    +0.000 A 
ATOM     21  C   UNL     1       2.398   5.062  18.109  0.00  0.00    +0.000 A 
ATOM     22  C   UNL     1       1.989   3.833  17.605  0.00  0.00    +0.000 A 
ATOM     23  C   UNL     1       1.313   2.950  18.436  0.00  0.00    +0.000 A 
ATOM     24  C   UNL     1       1.068   3.338  19.744  0.00  0.00    +0.000 A 
ATOM     25  N   UNL     1       1.456   4.523  20.266  0.00  0.00    +0.000 NA
ENDBRANCH  19  20
ENDBRANCH   6  19
TORSDOF 3
ENDMDL
MODEL 5
REMARK VINA RESULT:      -7.5      4.196      8.117
REMARK  Name = 
REMARK  3 active torsions:
REMARK  status: ('A' for Active; 'I' for Inactive)
REMARK    1  A    between atoms: C_5  and  N_6
REMARK    2  A    between atoms: N_11  and  C_12
REMARK    3  A    between atoms: C_12  and  C_13
REMARK                            x       y       z     vdW  Elec       q    Type
REMARK                         _______ _______ _______ _____ _____    ______ ____
ROOT
ATOM      1  N   UNL     1       2.340   7.204  18.629  0.00  0.00    +0.000 N 
ATOM      2  N   UNL     1       2.573   7.974  17.521  0.00  0.00    +0.000 NA
ATOM      3  C   UNL     1       2.083   9.171  17.838  0.00  0.00    +0.000 A 
ATOM      4  C   UNL     1       1.576   9.232  19.145  0.00  0.00    +0.000 A 
ATOM      5  C   UNL     1       0.981  10.191  19.976  0.00  0.00    +0.000 A 
ATOM      6  N   UNL     1       0.664  11.465  19.535  0.00  0.00    +0.000 N 
ATOM      7  N   UNL     1       0.659   9.816  21.236  0.00  0.00    +0.000 NA
ATOM      8  C   UNL     1       0.904   8.551  21.623  0.00  0.00    +0.000 A 
ATOM      9  N   UNL     1       1.447   7.562  20.903  0.00  0.00    +0.000 NA
ATOM     10  C   UNL     1       1.767   7.957  19.654  0.00  0.00    +0.000 A 
ATOM     11  H   UNL     1       1.065  11.744  18.648  0.00  0.00    +0.000 HD
ENDROOT
BRANCH   1  16
ATOM     12 CL   UNL     1       3.648   1.395  18.494  0.00  0.00    +0.000 Cl
ATOM     13  C   UNL     1       3.275   3.073  18.536  0.00  0.00    +0.000 A 
ATOM     14  C   UNL     1       2.154   3.553  17.866  0.00  0.00    +0.000 A 
ATOM     15  C   UNL     1       1.850   4.919  17.904  0.00  0.00    +0.000 A 
ATOM     16  C   UNL     1       2.676   5.815  18.608  0.00  0.00    +0.000 A 
ATOM     17  C   UNL     1       3.800   5.315  19.280  0.00  0.00    +0.000 A 
ATOM     18  C   UNL     1       4.096   3.948  19.244  0.00  0.00    +0.000 A 
ENDBRANCH   1  16
BRANCH   6  19
ATOM     19  C   UNL     1       0.664  12.540  20.518  0.00  0.00    +0.000 C 
BRANCH  19  20
ATOM     20  C   UNL     1       1.928  13.361  20.362  0.00  0.00    +0.000 A 
ATOM     21  C   UNL     1       2.393  13.674  19.084  0.00  0.00    +0.000 A 
ATOM     22  C   UNL     1       3.566  14.410  18.955  0.00  0.00    +0.000 A 
ATOM     23  C   UNL     1       4.251  14.799  20.098  0.00  0.00    +0.000 A 
ATOM     24  C   UNL     1       3.735  14.431  21.330  0.00  0.00    +0.000 A 
ATOM     25  N   UNL     1       2.596  13.722  21.490  0.00  0.00    +0.000 NA
ENDBRANCH  19  20
ENDBRANCH   6  19
TORSDOF 3
ENDMDL
MODEL 6
REMARK VINA RESULT:      -7.4      2.879      5.411
REMARK  Name = 
REMARK  3 active torsions:
REMARK  status: ('A' for Active; 'I' for Inactive)
REMARK    1  A    between atoms: C_5  and  N_6
REMARK    2  A    between atoms: N_11  and  C_12
REMARK    3  A    between atoms: C_12  and  C_13
REMARK                            x       y       z     vdW  Elec       q    Type
REMARK                         _______ _______ _______ _____ _____    ______ ____
ROOT
ATOM      1  N   UNL     1      -0.451  11.170  22.236  0.00  0.00    +0.000 N 
ATOM      2  N   UNL     1       0.167  10.236  23.025  0.00  0.00    +0.000 NA
ATOM      3  C   UNL     1       0.780   9.426  22.164  0.00  0.00    +0.000 A 
ATOM      4  C   UNL     1       0.628   9.823  20.827  0.00  0.00    +0.000 A 
ATOM      5  C   UNL     1       1.046   9.379  19.565  0.00  0.00    +0.000 A 
ATOM      6  N   UNL     1       1.752   8.201  19.387  0.00  0.00    +0.000 N 
ATOM      7  N   UNL     1       0.682  10.114  18.489  0.00  0.00    +0.000 NA
ATOM      8  C   UNL     1      -0.070  11.214  18.673  0.00  0.00    +0.000 A 
ATOM      9  N   UNL     1      -0.532  11.709  19.828  0.00  0.00    +0.000 NA
ATOM     10  C   UNL     1      -0.154  10.967  20.888  0.00  0.00    +0.000 A 
ATOM     11  H   UNL     1       2.133   7.777  20.224  0.00  0.00    +0.000 HD
ENDROOT
BRANCH   1  16
ATOM     12 CL   UNL     1      -3.981  15.260  24.743  0.00  0.00    +0.000 Cl
ATOM     13  C   UNL     1      -2.957  14.083  24.018  0.00  0.00    +0.000 A 
ATOM     14  C   UNL     1      -3.411  12.778  23.847  0.00  0.00    +0.000 A 
ATOM     15  C   UNL     1      -2.578  11.823  23.254  0.00  0.00    +0.000 A 
ATOM     16  C   UNL     1      -1.278  12.168  22.839  0.00  0.00    +0.000 A 
ATOM     17  C   UNL     1      -0.838  13.487  23.016  0.00  0.00    +0.000 A 
ATOM     18  C   UNL     1      -1.677  14.440  23.603  0.00  0.00    +0.000 A 
ENDBRANCH   1  16
BRANCH   6  19
ATOM     19  C   UNL     1       2.660   8.122  18.251  0.00  0.00    +0.000 C 
BRANCH  19  20
ATOM     20  C   UNL     1       3.035   6.674  18.009  0.00  0.00    +0.000 A 
ATOM     21  C   UNL     1       4.184   6.373  17.277  0.00  0.00    +0.000 A 
ATOM     22  C   UNL     1       4.505   5.040  17.042  0.00  0.00    +0.000 A 
ATOM     23  C   UNL     1       3.666   4.046  17.528  0.00  0.00    +0.000 A 
ATOM     24  C   UNL     1       2.533   4.428  18.227  0.00  0.00    +0.000 A 
ATOM     25  N   UNL     1       2.196   5.713  18.477  0.00  0.00    +0.000 NA
ENDBRANCH  19  20
ENDBRANCH   6  19
TORSDOF 3
ENDMDL
MODEL 7
REMARK VINA RESULT:      -7.4      3.430      4.648
REMARK  Name = 
REMARK  3 active torsions:
REMARK  status: ('A' for Active; 'I' for Inactive)
REMARK    1  A    between atoms: C_5  and  N_6
REMARK    2  A    between atoms: N_11  and  C_12
REMARK    3  A    between atoms: C_12  and  C_13
REMARK                            x       y       z     vdW  Elec       q    Type
REMARK                         _______ _______ _______ _____ _____    ______ ____
ROOT
ATOM      1  N   UNL     1       0.325  10.321  20.847  0.00  0.00    +0.000 N 
ATOM      2  N   UNL     1       0.414   9.641  22.033  0.00  0.00    +0.000 NA
ATOM      3  C   UNL     1       1.080   8.528  21.729  0.00  0.00    +0.000 A 
ATOM      4  C   UNL     1       1.481   8.473  20.385  0.00  0.00    +0.000 A 
ATOM      5  C   UNL     1       2.186   7.591  19.554  0.00  0.00    +0.000 A 
ATOM      6  N   UNL     1       2.624   6.351  19.988  0.00  0.00    +0.000 N 
ATOM      7  N   UNL     1       2.381   7.962  18.268  0.00  0.00    +0.000 NA
ATOM      8  C   UNL     1       1.881   9.137  17.844  0.00  0.00    +0.000 A 
ATOM      9  N   UNL     1       1.183  10.035  18.549  0.00  0.00    +0.000 NA
ATOM     10  C   UNL     1       1.004   9.650  19.830  0.00  0.00    +0.000 A 
ATOM     11  H   UNL     1       2.595   6.190  20.987  0.00  0.00    +0.000 HD
ENDROOT
BRANCH   1  16
ATOM     12 CL   UNL     1      -2.655  15.475  20.675  0.00  0.00    +0.000 Cl
ATOM     13  C   UNL     1      -1.798  13.984  20.722  0.00  0.00    +0.000 A 
ATOM     14  C   UNL     1      -0.569  13.909  21.369  0.00  0.00    +0.000 A 
ATOM     15  C   UNL     1       0.124  12.694  21.409  0.00  0.00    +0.000 A 
ATOM     16  C   UNL     1      -0.407  11.547  20.789  0.00  0.00    +0.000 A 
ATOM     17  C   UNL     1      -1.647  11.640  20.144  0.00  0.00    +0.000 A 
ATOM     18  C   UNL     1      -2.340  12.855  20.112  0.00  0.00    +0.000 A 
ENDBRANCH   1  16
BRANCH   6  19
ATOM     19  C   UNL     1       3.818   5.800  19.361  0.00  0.00    +0.000 C 
BRANCH  19  20
ATOM     20  C   UNL     1       3.541   4.376  18.922  0.00  0.00    +0.000 A 
ATOM     21  C   UNL     1       2.638   4.139  17.884  0.00  0.00    +0.000 A 
ATOM     22  C   UNL     1       2.376   2.827  17.505  0.00  0.00    +0.000 A 
ATOM     23  C   UNL     1       3.006   1.788  18.177  0.00  0.00    +0.000 A 
ATOM     24  C   UNL     1       3.873   2.106  19.210  0.00  0.00    +0.000 A 
ATOM     25  N   UNL     1       4.153   3.370  19.599  0.00  0.00    +0.000 NA
ENDBRANCH  19  20
ENDBRANCH   6  19
TORSDOF 3
ENDMDL
MODEL 8
REMARK VINA RESULT:      -7.4      3.912      5.016
REMARK  Name = 
REMARK  3 active torsions:
REMARK  status: ('A' for Active; 'I' for Inactive)
REMARK    1  A    between atoms: C_5  and  N_6
REMARK    2  A    between atoms: N_11  and  C_12
REMARK    3  A    between atoms: C_12  and  C_13
REMARK                            x       y       z     vdW  Elec       q    Type
REMARK                         _______ _______ _______ _____ _____    ______ ____
ROOT
ATOM      1  N   UNL     1       1.442  10.681  18.709  0.00  0.00    +0.000 N 
ATOM      2  N   UNL     1       1.997  10.126  17.586  0.00  0.00    +0.000 NA
ATOM      3  C   UNL     1       2.248   8.863  17.929  0.00  0.00    +0.000 A 
ATOM      4  C   UNL     1       1.830   8.550  19.231  0.00  0.00    +0.000 A 
ATOM      5  C   UNL     1       1.829   7.428  20.072  0.00  0.00    +0.000 A 
ATOM      6  N   UNL     1       2.424   6.230  19.715  0.00  0.00    +0.000 N 
ATOM      7  N   UNL     1       1.271   7.564  21.297  0.00  0.00    +0.000 NA
ATOM      8  C   UNL     1       0.767   8.758  21.657  0.00  0.00    +0.000 A 
ATOM      9  N   UNL     1       0.737   9.888  20.938  0.00  0.00    +0.000 NA
ATOM     10  C   UNL     1       1.290   9.730  19.718  0.00  0.00    +0.000 A 
ATOM     11  H   UNL     1       2.681   6.131  18.740  0.00  0.00    +0.000 HD
ENDROOT
BRANCH   1  16
ATOM     12 CL   UNL     1       0.179  16.501  18.776  0.00  0.00    +0.000 Cl
ATOM     13  C   UNL     1       0.538  14.819  18.756  0.00  0.00    +0.000 A 
ATOM     14  C   UNL     1       1.862  14.391  18.758  0.00  0.00    +0.000 A 
ATOM     15  C   UNL     1       2.152  13.022  18.745  0.00  0.00    +0.000 A 
ATOM     16  C   UNL     1       1.114  12.072  18.721  0.00  0.00    +0.000 A 
ATOM     17  C   UNL     1      -0.214  12.520  18.722  0.00  0.00    +0.000 A 
ATOM     18  C   UNL     1      -0.499  13.889  18.741  0.00  0.00    +0.000 A 
ENDBRANCH   1  16
BRANCH   6  19
ATOM     19  C   UNL     1       1.871   5.007  20.280  0.00  0.00    +0.000 C 
BRANCH  19  20
ATOM     20  C   UNL     1       2.451   3.812  19.551  0.00  0.00    +0.000 A 
ATOM     21  C   UNL     1       1.851   3.366  18.372  0.00  0.00    +0.000 A 
ATOM     22  C   UNL     1       2.380   2.254  17.725  0.00  0.00    +0.000 A 
ATOM     23  C   UNL     1       3.480   1.609  18.275  0.00  0.00    +0.000 A 
ATOM     24  C   UNL     1       4.005   2.102  19.459  0.00  0.00    +0.000 A 
ATOM     25  N   UNL     1       3.518   3.182  20.110  0.00  0.00    +0.000 NA
ENDBRANCH  19  20
ENDBRANCH   6  19
TORSDOF 3
ENDMDL
MODEL 9
REMARK VINA RESULT:      -7.4      3.588      5.556
REMARK  Name = 
REMARK  3 active torsions:
REMARK  status: ('A' for Active; 'I' for Inactive)
REMARK    1  A    between atoms: C_5  and  N_6
REMARK    2  A    between atoms: N_11  and  C_12
REMARK    3  A    between atoms: C_12  and  C_13
REMARK                            x       y       z     vdW  Elec       q    Type
REMARK                         _______ _______ _______ _____ _____    ______ ____
ROOT
ATOM      1  N   UNL     1      -0.139  10.994  22.211  0.00  0.00    +0.000 N 
ATOM      2  N   UNL     1       0.109  10.175  23.281  0.00  0.00    +0.000 NA
ATOM      3  C   UNL     1       0.657   9.085  22.745  0.00  0.00    +0.000 A 
ATOM      4  C   UNL     1       0.826   9.177  21.355  0.00  0.00    +0.000 A 
ATOM      5  C   UNL     1       1.337   8.378  20.323  0.00  0.00    +0.000 A 
ATOM      6  N   UNL     1       1.776   7.082  20.534  0.00  0.00    +0.000 N 
ATOM      7  N   UNL     1       1.335   8.893  19.072  0.00  0.00    +0.000 NA
ATOM      8  C   UNL     1       0.833  10.125  18.873  0.00  0.00    +0.000 A 
ATOM      9  N   UNL     1       0.309  10.955  19.783  0.00  0.00    +0.000 NA
ATOM     10  C   UNL     1       0.326  10.427  21.024  0.00  0.00    +0.000 A 
ATOM     11  H   UNL     1       1.904   6.804  21.499  0.00  0.00    +0.000 HD
ENDROOT
BRANCH   1  16
ATOM     12 CL   UNL     1      -3.009  16.139  23.086  0.00  0.00    +0.000 Cl
ATOM     13  C   UNL     1      -2.176  14.656  22.832  0.00  0.00    +0.000 A 
ATOM     14  C   UNL     1      -2.803  13.448  23.120  0.00  0.00    +0.000 A 
ATOM     15  C   UNL     1      -2.124  12.243  22.909  0.00  0.00    +0.000 A 
ATOM     16  C   UNL     1      -0.806  12.242  22.417  0.00  0.00    +0.000 A 
ATOM     17  C   UNL     1      -0.190  13.467  22.129  0.00  0.00    +0.000 A 
ATOM     18  C   UNL     1      -0.875  14.669  22.335  0.00  0.00    +0.000 A 
ENDBRANCH   1  16
BRANCH   6  19
ATOM     19  C   UNL     1       2.818   6.571  19.656  0.00  0.00    +0.000 C 
BRANCH  19  20
ATOM     20  C   UNL     1       2.421   5.197  19.152  0.00  0.00    +0.000 A 
ATOM     21  C   UNL     1       2.886   4.757  17.913  0.00  0.00    +0.000 A 
ATOM     22  C   UNL     1       2.495   3.504  17.452  0.00  0.00    +0.000 A 
ATOM     23  C   UNL     1       1.644   2.731  18.230  0.00  0.00    +0.000 A 
ATOM     24  C   UNL     1       1.211   3.248  19.440  0.00  0.00    +0.000 A 
ATOM     25  N   UNL     1       1.575   4.459  19.918  0.00  0.00    +0.000 NA
ENDBRANCH  19  20
ENDBRANCH   6  19
TORSDOF 3
ENDMDL
