MODEL 1
REMARK VINA RESULT:      -6.6      0.000      0.000
REMARK  Name = 
REMARK  5 active torsions:
REMARK  status: ('A' for Active; 'I' for Inactive)
REMARK    1  A    between atoms: C_2  and  C_10
REMARK    2  A    between atoms: N_3  and  C_4
REMARK    3  A    between atoms: C_4  and  C_5
REMARK    4  A    between atoms: C_5  and  C_6
REMARK    5  A    between atoms: C_6  and  O_7
REMARK                            x       y       z     vdW  Elec       q    Type
REMARK                         _______ _______ _______ _____ _____    ______ ____
ROOT
ATOM      1  O   UNL     1       5.501   2.992  19.314  0.00  0.00    +0.000 OA
ATOM      2  C   UNL     1       4.700   3.923  19.330  0.00  0.00    +0.000 C 
ATOM      3  N   UNL     1       5.087   5.242  19.242  0.00  0.00    +0.000 N 
ATOM      4  H   UNL     1       4.398   5.976  19.371  0.00  0.00    +0.000 HD
ENDROOT
BRANCH   2   5
ATOM      5  C   UNL     1       3.253   3.647  19.473  0.00  0.00    +0.000 A 
ATOM      6  C   UNL     1       2.735   3.434  20.758  0.00  0.00    +0.000 A 
ATOM      7  C   UNL     1       1.371   3.203  20.939  0.00  0.00    +0.000 A 
ATOM      8  C   UNL     1       0.511   3.195  19.839  0.00  0.00    +0.000 A 
ATOM      9  C   UNL     1       1.020   3.415  18.559  0.00  0.00    +0.000 A 
ATOM     10  C   UNL     1       2.383   3.634  18.380  0.00  0.00    +0.000 A 
ATOM     11  F   UNL     1       2.835   3.850  17.137  0.00  0.00    +0.000 F 
ENDBRANCH   2   5
BRANCH   3  12
ATOM     12  C   UNL     1       6.481   5.624  19.208  0.00  0.00    +0.000 C 
BRANCH  12  13
ATOM     13  C   UNL     1       6.900   5.972  17.796  0.00  0.00    +0.000 C 
ATOM     14  C   UNL     1       6.119   7.057  17.076  0.00  0.00    +0.000 C 
ATOM     15  C   UNL     1       7.509   7.345  17.566  0.00  0.00    +0.000 C 
BRANCH  13  16
ATOM     16  C   UNL     1       7.394   4.821  16.949  0.00  0.00    +0.000 C 
BRANCH  16  17
ATOM     17  O   UNL     1       8.228   3.969  17.721  0.00  0.00    +0.000 OA
ATOM     18  H   UNL     1       8.027   3.052  17.430  0.00  0.00    +0.000 HD
ENDBRANCH  16  17
ENDBRANCH  13  16
ENDBRANCH  12  13
ENDBRANCH   3  12
TORSDOF 5
ENDMDL
MODEL 2
REMARK VINA RESULT:      -6.6      2.333      5.729
REMARK  Name = 
REMARK  5 active torsions:
REMARK  status: ('A' for Active; 'I' for Inactive)
REMARK    1  A    between atoms: C_2  and  C_10
REMARK    2  A    between atoms: N_3  and  C_4
REMARK    3  A    between atoms: C_4  and  C_5
REMARK    4  A    between atoms: C_5  and  C_6
REMARK    5  A    between atoms: C_6  and  O_7
REMARK                            x       y       z     vdW  Elec       q    Type
REMARK                         _______ _______ _______ _____ _____    ______ ____
ROOT
ATOM      1  O   UNL     1       5.818   4.651  19.486  0.00  0.00    +0.000 OA
ATOM      2  C   UNL     1       5.342   4.016  18.548  0.00  0.00    +0.000 C 
ATOM      3  N   UNL     1       4.404   3.022  18.718  0.00  0.00    +0.000 N 
ATOM      4  H   UNL     1       4.126   2.455  17.924  0.00  0.00    +0.000 HD
ENDROOT
BRANCH   2   5
ATOM      5  C   UNL     1       5.796   4.294  17.167  0.00  0.00    +0.000 A 
ATOM      6  C   UNL     1       4.834   4.385  16.151  0.00  0.00    +0.000 A 
ATOM      7  C   UNL     1       5.218   4.678  14.842  0.00  0.00    +0.000 A 
ATOM      8  C   UNL     1       6.564   4.896  14.539  0.00  0.00    +0.000 A 
ATOM      9  C   UNL     1       7.524   4.815  15.548  0.00  0.00    +0.000 A 
ATOM     10  C   UNL     1       7.139   4.512  16.852  0.00  0.00    +0.000 A 
ATOM     11  F   UNL     1       8.087   4.450  17.797  0.00  0.00    +0.000 F 
ENDBRANCH   2   5
BRANCH   3  12
ATOM     12  C   UNL     1       3.974   2.600  20.032  0.00  0.00    +0.000 C 
BRANCH  12  13
ATOM     13  C   UNL     1       2.516   2.947  20.249  0.00  0.00    +0.000 C 
ATOM     14  C   UNL     1       1.933   2.709  21.630  0.00  0.00    +0.000 C 
ATOM     15  C   UNL     1       2.207   4.113  21.172  0.00  0.00    +0.000 C 
BRANCH  13  16
ATOM     16  C   UNL     1       1.595   2.701  19.075  0.00  0.00    +0.000 C 
BRANCH  16  17
ATOM     17  O   UNL     1       1.966   1.505  18.406  0.00  0.00    +0.000 OA
ATOM     18  H   UNL     1       1.129   1.021  18.225  0.00  0.00    +0.000 HD
ENDBRANCH  16  17
ENDBRANCH  13  16
ENDBRANCH  12  13
ENDBRANCH   3  12
TORSDOF 5
ENDMDL
MODEL 3
REMARK VINA RESULT:      -6.6      1.164      1.175
REMARK  Name = 
REMARK  5 active torsions:
REMARK  status: ('A' for Active; 'I' for Inactive)
REMARK    1  A    between atoms: C_2  and  C_10
REMARK    2  A    between atoms: N_3  and  C_4
REMARK    3  A    between atoms: C_4  and  C_5
REMARK    4  A    between atoms: C_5  and  C_6
REMARK    5  A    between atoms: C_6  and  O_7
REMARK                            x       y       z     vdW  Elec       q    Type
REMARK                         _______ _______ _______ _____ _____    ______ ____
ROOT
ATOM      1  O   UNL     1       3.891   6.197  19.497  0.00  0.00    +0.000 OA
ATOM      2  C   UNL     1       4.240   5.027  19.355  0.00  0.00    +0.000 C 
ATOM      3  N   UNL     1       5.561   4.647  19.267  0.00  0.00    +0.000 N 
ATOM      4  H   UNL     1       5.791   3.685  19.040  0.00  0.00    +0.000 HD
ENDROOT
BRANCH   2   5
ATOM      5  C   UNL     1       3.217   3.963  19.248  0.00  0.00    +0.000 A 
ATOM      6  C   UNL     1       2.465   3.639  20.386  0.00  0.00    +0.000 A 
ATOM      7  C   UNL     1       1.468   2.665  20.318  0.00  0.00    +0.000 A 
ATOM      8  C   UNL     1       1.206   2.015  19.110  0.00  0.00    +0.000 A 
ATOM      9  C   UNL     1       1.945   2.340  17.972  0.00  0.00    +0.000 A 
ATOM     10  C   UNL     1       2.947   3.305  18.046  0.00  0.00    +0.000 A 
ATOM     11  F   UNL     1       3.632   3.597  16.932  0.00  0.00    +0.000 F 
ENDBRANCH   2   5
BRANCH   3  12
ATOM     12  C   UNL     1       6.632   5.618  19.253  0.00  0.00    +0.000 C 
BRANCH  12  13
ATOM     13  C   UNL     1       6.997   5.983  17.830  0.00  0.00    +0.000 C 
ATOM     14  C   UNL     1       6.200   7.088  17.160  0.00  0.00    +0.000 C 
ATOM     15  C   UNL     1       7.612   7.352  17.597  0.00  0.00    +0.000 C 
BRANCH  13  16
ATOM     16  C   UNL     1       7.442   4.840  16.946  0.00  0.00    +0.000 C 
BRANCH  16  17
ATOM     17  O   UNL     1       8.254   3.939  17.686  0.00  0.00    +0.000 OA
ATOM     18  H   UNL     1       9.171   4.062  17.355  0.00  0.00    +0.000 HD
ENDBRANCH  16  17
ENDBRANCH  13  16
ENDBRANCH  12  13
ENDBRANCH   3  12
TORSDOF 5
ENDMDL
MODEL 4
REMARK VINA RESULT:      -6.6      1.960      5.605
REMARK  Name = 
REMARK  5 active torsions:
REMARK  status: ('A' for Active; 'I' for Inactive)
REMARK    1  A    between atoms: C_2  and  C_10
REMARK    2  A    between atoms: N_3  and  C_4
REMARK    3  A    between atoms: C_4  and  C_5
REMARK    4  A    between atoms: C_5  and  C_6
REMARK    5  A    between atoms: C_6  and  O_7
REMARK                            x       y       z     vdW  Elec       q    Type
REMARK                         _______ _______ _______ _____ _____    ______ ____
ROOT
ATOM      1  O   UNL     1       4.314   3.711  16.993  0.00  0.00    +0.000 OA
ATOM      2  C   UNL     1       4.283   4.725  17.686  0.00  0.00    +0.000 C 
ATOM      3  N   UNL     1       3.129   5.190  18.278  0.00  0.00    +0.000 N 
ATOM      4  H   UNL     1       3.135   6.090  18.747  0.00  0.00    +0.000 HD
ENDROOT
BRANCH   2   5
ATOM      5  C   UNL     1       5.518   5.515  17.889  0.00  0.00    +0.000 A 
ATOM      6  C   UNL     1       6.380   5.153  18.934  0.00  0.00    +0.000 A 
ATOM      7  C   UNL     1       7.570   5.851  19.140  0.00  0.00    +0.000 A 
ATOM      8  C   UNL     1       7.916   6.908  18.295  0.00  0.00    +0.000 A 
ATOM      9  C   UNL     1       7.067   7.266  17.247  0.00  0.00    +0.000 A 
ATOM     10  C   UNL     1       5.874   6.575  17.052  0.00  0.00    +0.000 A 
ATOM     11  F   UNL     1       5.086   6.941  16.032  0.00  0.00    +0.000 F 
ENDBRANCH   2   5
BRANCH   3  12
ATOM     12  C   UNL     1       1.851   4.553  18.054  0.00  0.00    +0.000 C 
BRANCH  12  13
ATOM     13  C   UNL     1       1.583   3.514  19.122  0.00  0.00    +0.000 C 
ATOM     14  C   UNL     1       2.265   3.693  20.465  0.00  0.00    +0.000 C 
ATOM     15  C   UNL     1       0.792   3.954  20.342  0.00  0.00    +0.000 C 
BRANCH  13  16
ATOM     16  C   UNL     1       1.412   2.093  18.635  0.00  0.00    +0.000 C 
BRANCH  16  17
ATOM     17  O   UNL     1       2.671   1.550  18.263  0.00  0.00    +0.000 OA
ATOM     18  H   UNL     1       3.022   1.098  19.062  0.00  0.00    +0.000 HD
ENDBRANCH  16  17
ENDBRANCH  13  16
ENDBRANCH  12  13
ENDBRANCH   3  12
TORSDOF 5
ENDMDL
MODEL 5
REMARK VINA RESULT:      -6.5      2.232      5.596
REMARK  Name = 
REMARK  5 active torsions:
REMARK  status: ('A' for Active; 'I' for Inactive)
REMARK    1  A    between atoms: C_2  and  C_10
REMARK    2  A    between atoms: N_3  and  C_4
REMARK    3  A    between atoms: C_4  and  C_5
REMARK    4  A    between atoms: C_5  and  C_6
REMARK    5  A    between atoms: C_6  and  O_7
REMARK                            x       y       z     vdW  Elec       q    Type
REMARK                         _______ _______ _______ _____ _____    ______ ____
ROOT
ATOM      1  O   UNL     1       3.012   6.053  17.851  0.00  0.00    +0.000 OA
ATOM      2  C   UNL     1       3.968   5.288  17.752  0.00  0.00    +0.000 C 
ATOM      3  N   UNL     1       3.827   3.954  17.440  0.00  0.00    +0.000 N 
ATOM      4  H   UNL     1       4.636   3.342  17.480  0.00  0.00    +0.000 HD
ENDROOT
BRANCH   2   5
ATOM      5  C   UNL     1       5.339   5.788  17.999  0.00  0.00    +0.000 A 
ATOM      6  C   UNL     1       6.033   5.315  19.121  0.00  0.00    +0.000 A 
ATOM      7  C   UNL     1       7.340   5.736  19.371  0.00  0.00    +0.000 A 
ATOM      8  C   UNL     1       7.968   6.624  18.495  0.00  0.00    +0.000 A 
ATOM      9  C   UNL     1       7.285   7.091  17.372  0.00  0.00    +0.000 A 
ATOM     10  C   UNL     1       5.977   6.677  17.131  0.00  0.00    +0.000 A 
ATOM     11  F   UNL     1       5.354   7.140  16.039  0.00  0.00    +0.000 F 
ENDBRANCH   2   5
BRANCH   3  12
ATOM     12  C   UNL     1       2.526   3.343  17.286  0.00  0.00    +0.000 C 
BRANCH  12  13
ATOM     13  C   UNL     1       2.114   2.645  18.564  0.00  0.00    +0.000 C 
ATOM     14  C   UNL     1       1.289   3.434  19.563  0.00  0.00    +0.000 C 
ATOM     15  C   UNL     1       0.636   2.351  18.754  0.00  0.00    +0.000 C 
BRANCH  13  16
ATOM     16  C   UNL     1       3.116   1.668  19.138  0.00  0.00    +0.000 C 
BRANCH  16  17
ATOM     17  O   UNL     1       4.016   1.241  18.126  0.00  0.00    +0.000 OA
ATOM     18  H   UNL     1       3.463   1.000  17.350  0.00  0.00    +0.000 HD
ENDBRANCH  16  17
ENDBRANCH  13  16
ENDBRANCH  12  13
ENDBRANCH   3  12
TORSDOF 5
ENDMDL
MODEL 6
REMARK VINA RESULT:      -6.5      1.818      2.517
REMARK  Name = 
REMARK  5 active torsions:
REMARK  status: ('A' for Active; 'I' for Inactive)
REMARK    1  A    between atoms: C_2  and  C_10
REMARK    2  A    between atoms: N_3  and  C_4
REMARK    3  A    between atoms: C_4  and  C_5
REMARK    4  A    between atoms: C_5  and  C_6
REMARK    5  A    between atoms: C_6  and  O_7
REMARK                            x       y       z     vdW  Elec       q    Type
REMARK                         _______ _______ _______ _____ _____    ______ ____
ROOT
ATOM      1  O   UNL     1       2.961   3.653  16.730  0.00  0.00    +0.000 OA
ATOM      2  C   UNL     1       3.337   4.258  17.731  0.00  0.00    +0.000 C 
ATOM      3  N   UNL     1       4.229   5.307  17.679  0.00  0.00    +0.000 N 
ATOM      4  H   UNL     1       4.592   5.699  18.541  0.00  0.00    +0.000 HD
ENDROOT
BRANCH   2   5
ATOM      5  C   UNL     1       2.847   3.848  19.066  0.00  0.00    +0.000 A 
ATOM      6  C   UNL     1       1.606   4.335  19.502  0.00  0.00    +0.000 A 
ATOM      7  C   UNL     1       1.093   3.947  20.741  0.00  0.00    +0.000 A 
ATOM      8  C   UNL     1       1.808   3.059  21.547  0.00  0.00    +0.000 A 
ATOM      9  C   UNL     1       3.039   2.565  21.114  0.00  0.00    +0.000 A 
ATOM     10  C   UNL     1       3.554   2.963  19.883  0.00  0.00    +0.000 A 
ATOM     11  F   UNL     1       4.735   2.462  19.495  0.00  0.00    +0.000 F 
ENDBRANCH   2   5
BRANCH   3  12
ATOM     12  C   UNL     1       4.849   5.715  16.438  0.00  0.00    +0.000 C 
BRANCH  12  13
ATOM     13  C   UNL     1       6.179   5.016  16.255  0.00  0.00    +0.000 C 
ATOM     14  C   UNL     1       6.182   3.690  15.517  0.00  0.00    +0.000 C 
ATOM     15  C   UNL     1       6.727   4.916  14.842  0.00  0.00    +0.000 C 
BRANCH  13  16
ATOM     16  C   UNL     1       7.163   5.156  17.395  0.00  0.00    +0.000 C 
BRANCH  16  17
ATOM     17  O   UNL     1       6.949   4.130  18.354  0.00  0.00    +0.000 OA
ATOM     18  H   UNL     1       7.570   4.313  19.094  0.00  0.00    +0.000 HD
ENDBRANCH  16  17
ENDBRANCH  13  16
ENDBRANCH  12  13
ENDBRANCH   3  12
TORSDOF 5
ENDMDL
MODEL 7
REMARK VINA RESULT:      -6.4      2.191      5.734
REMARK  Name = 
REMARK  5 active torsions:
REMARK  status: ('A' for Active; 'I' for Inactive)
REMARK    1  A    between atoms: C_2  and  C_10
REMARK    2  A    between atoms: N_3  and  C_4
REMARK    3  A    between atoms: C_4  and  C_5
REMARK    4  A    between atoms: C_5  and  C_6
REMARK    5  A    between atoms: C_6  and  O_7
REMARK                            x       y       z     vdW  Elec       q    Type
REMARK                         _______ _______ _______ _____ _____    ______ ____
ROOT
ATOM      1  O   UNL     1       3.042   6.260  17.919  0.00  0.00    +0.000 OA
ATOM      2  C   UNL     1       3.967   5.467  17.761  0.00  0.00    +0.000 C 
ATOM      3  N   UNL     1       3.768   4.143  17.437  0.00  0.00    +0.000 N 
ATOM      4  H   UNL     1       4.558   3.506  17.427  0.00  0.00    +0.000 HD
ENDROOT
BRANCH   2   5
ATOM      5  C   UNL     1       5.364   5.920  17.946  0.00  0.00    +0.000 A 
ATOM      6  C   UNL     1       5.836   6.974  17.151  0.00  0.00    +0.000 A 
ATOM      7  C   UNL     1       7.136   7.453  17.316  0.00  0.00    +0.000 A 
ATOM      8  C   UNL     1       7.971   6.892  18.285  0.00  0.00    +0.000 A 
ATOM      9  C   UNL     1       7.502   5.849  19.086  0.00  0.00    +0.000 A 
ATOM     10  C   UNL     1       6.208   5.366  18.910  0.00  0.00    +0.000 A 
ATOM     11  F   UNL     1       5.788   4.369  19.702  0.00  0.00    +0.000 F 
ENDBRANCH   2   5
BRANCH   3  12
ATOM     12  C   UNL     1       2.442   3.575  17.339  0.00  0.00    +0.000 C 
BRANCH  12  13
ATOM     13  C   UNL     1       2.096   2.818  18.603  0.00  0.00    +0.000 C 
ATOM     14  C   UNL     1       1.129   3.470  19.573  0.00  0.00    +0.000 C 
ATOM     15  C   UNL     1       0.673   2.305  18.743  0.00  0.00    +0.000 C 
BRANCH  13  16
ATOM     16  C   UNL     1       3.213   1.999  19.211  0.00  0.00    +0.000 C 
BRANCH  16  17
ATOM     17  O   UNL     1       3.974   1.375  18.187  0.00  0.00    +0.000 OA
ATOM     18  H   UNL     1       3.557   1.637  17.336  0.00  0.00    +0.000 HD
ENDBRANCH  16  17
ENDBRANCH  13  16
ENDBRANCH  12  13
ENDBRANCH   3  12
TORSDOF 5
ENDMDL
MODEL 8
REMARK VINA RESULT:      -6.4      2.049      2.568
REMARK  Name = 
REMARK  5 active torsions:
REMARK  status: ('A' for Active; 'I' for Inactive)
REMARK    1  A    between atoms: C_2  and  C_10
REMARK    2  A    between atoms: N_3  and  C_4
REMARK    3  A    between atoms: C_4  and  C_5
REMARK    4  A    between atoms: C_5  and  C_6
REMARK    5  A    between atoms: C_6  and  O_7
REMARK                            x       y       z     vdW  Elec       q    Type
REMARK                         _______ _______ _______ _____ _____    ______ ____
ROOT
ATOM      1  O   UNL     1       5.907   4.127  19.426  0.00  0.00    +0.000 OA
ATOM      2  C   UNL     1       4.921   3.875  18.738  0.00  0.00    +0.000 C 
ATOM      3  N   UNL     1       4.979   3.756  17.366  0.00  0.00    +0.000 N 
ATOM      4  H   UNL     1       4.120   3.657  16.836  0.00  0.00    +0.000 HD
ENDROOT
BRANCH   2   5
ATOM      5  C   UNL     1       3.598   3.711  19.380  0.00  0.00    +0.000 A 
ATOM      6  C   UNL     1       3.046   4.802  20.064  0.00  0.00    +0.000 A 
ATOM      7  C   UNL     1       1.786   4.699  20.656  0.00  0.00    +0.000 A 
ATOM      8  C   UNL     1       1.062   3.509  20.557  0.00  0.00    +0.000 A 
ATOM      9  C   UNL     1       1.603   2.422  19.869  0.00  0.00    +0.000 A 
ATOM     10  C   UNL     1       2.866   2.525  19.290  0.00  0.00    +0.000 A 
ATOM     11  F   UNL     1       3.351   1.464  18.630  0.00  0.00    +0.000 F 
ENDBRANCH   2   5
BRANCH   3  12
ATOM     12  C   UNL     1       6.200   4.004  16.633  0.00  0.00    +0.000 C 
BRANCH  12  13
ATOM     13  C   UNL     1       5.926   4.877  15.428  0.00  0.00    +0.000 C 
ATOM     14  C   UNL     1       6.945   4.866  14.303  0.00  0.00    +0.000 C 
ATOM     15  C   UNL     1       5.624   4.178  14.114  0.00  0.00    +0.000 C 
BRANCH  13  16
ATOM     16  C   UNL     1       5.244   6.197  15.708  0.00  0.00    +0.000 C 
BRANCH  16  17
ATOM     17  O   UNL     1       5.710   6.737  16.937  0.00  0.00    +0.000 OA
ATOM     18  H   UNL     1       4.913   7.050  17.418  0.00  0.00    +0.000 HD
ENDBRANCH  16  17
ENDBRANCH  13  16
ENDBRANCH  12  13
ENDBRANCH   3  12
TORSDOF 5
ENDMDL
MODEL 9
REMARK VINA RESULT:      -6.3      1.907      2.060
REMARK  Name = 
REMARK  5 active torsions:
REMARK  status: ('A' for Active; 'I' for Inactive)
REMARK    1  A    between atoms: C_2  and  C_10
REMARK    2  A    between atoms: N_3  and  C_4
REMARK    3  A    between atoms: C_4  and  C_5
REMARK    4  A    between atoms: C_5  and  C_6
REMARK    5  A    between atoms: C_6  and  O_7
REMARK                            x       y       z     vdW  Elec       q    Type
REMARK                         _______ _______ _______ _____ _____    ______ ____
ROOT
ATOM      1  O   UNL     1       2.544   7.001  17.939  0.00  0.00    +0.000 OA
ATOM      2  C   UNL     1       3.104   5.934  18.177  0.00  0.00    +0.000 C 
ATOM      3  N   UNL     1       4.440   5.718  17.920  0.00  0.00    +0.000 N 
ATOM      4  H   UNL     1       4.827   4.787  18.031  0.00  0.00    +0.000 HD
ENDROOT
BRANCH   2   5
ATOM      5  C   UNL     1       2.329   4.806  18.740  0.00  0.00    +0.000 A 
ATOM      6  C   UNL     1       1.851   4.912  20.054  0.00  0.00    +0.000 A 
ATOM      7  C   UNL     1       1.088   3.885  20.611  0.00  0.00    +0.000 A 
ATOM      8  C   UNL     1       0.785   2.750  19.856  0.00  0.00    +0.000 A 
ATOM      9  C   UNL     1       1.251   2.643  18.545  0.00  0.00    +0.000 A 
ATOM     10  C   UNL     1       2.021   3.665  17.996  0.00  0.00    +0.000 A 
ATOM     11  F   UNL     1       2.445   3.533  16.731  0.00  0.00    +0.000 F 
ENDBRANCH   2   5
BRANCH   3  12
ATOM     12  C   UNL     1       5.261   6.717  17.273  0.00  0.00    +0.000 C 
BRANCH  12  13
ATOM     13  C   UNL     1       6.706   6.271  17.233  0.00  0.00    +0.000 C 
ATOM     14  C   UNL     1       7.777   7.337  17.375  0.00  0.00    +0.000 C 
ATOM     15  C   UNL     1       7.511   6.397  18.515  0.00  0.00    +0.000 C 
BRANCH  13  16
ATOM     16  C   UNL     1       7.019   5.119  16.304  0.00  0.00    +0.000 C 
BRANCH  16  17
ATOM     17  O   UNL     1       7.529   5.610  15.073  0.00  0.00    +0.000 OA
ATOM     18  H   UNL     1       8.415   5.987  15.274  0.00  0.00    +0.000 HD
ENDBRANCH  16  17
ENDBRANCH  13  16
ENDBRANCH  12  13
ENDBRANCH   3  12
TORSDOF 5
ENDMDL
