MODEL 1
REMARK VINA RESULT:      -6.8      0.000      0.000
REMARK  Name = 
REMARK  10 active torsions:
REMARK  status: ('A' for Active; 'I' for Inactive)
REMARK    1  A    between atoms: C_1  and  C_2
REMARK    2  A    between atoms: C_2  and  C_3
REMARK    3  A    between atoms: C_2  and  C_10
REMARK    4  A    between atoms: C_3  and  C_4
REMARK    5  A    between atoms: C_15  and  O_16
REMARK    6  A    between atoms: C_15  and  C_17
REMARK    7  A    between atoms: C_17  and  N_18
REMARK    8  A    between atoms: C_20  and  C_21
REMARK    9  A    between atoms: C_31  and  C_32
REMARK   10  A    between atoms: C_31  and  C_33
REMARK                            x       y       z     vdW  Elec       q    Type
REMARK                         _______ _______ _______ _____ _____    ______ ____
ROOT
ATOM      1  C   UNL     1       1.246  12.055  19.428  0.00  0.00    +0.000 C 
ATOM      2  O   UNL     1       1.239  11.295  18.458  0.00  0.00    +0.000 OA
ATOM      3  N   UNL     1       2.204  13.061  19.561  0.00  0.00    +0.000 N 
ATOM      4  C   UNL     1       3.110  13.332  18.432  0.00  0.00    +0.000 C 
ATOM      5  C   UNL     1       3.219  14.826  18.095  0.00  0.00    +0.000 C 
ATOM      6  C   UNL     1       3.436  15.708  19.341  0.00  0.00    +0.000 C 
ATOM      7  C   UNL     1       2.300  15.380  20.399  0.00  0.00    +0.000 C 
ATOM      8  C   UNL     1       0.870  15.652  19.840  0.00  0.00    +0.000 C 
ATOM      9  C   UNL     1       2.398  16.243  21.680  0.00  0.00    +0.000 C 
ATOM     10  C   UNL     1       2.395  13.885  20.755  0.00  0.00    +0.000 C 
ENDROOT
BRANCH   1  12
ATOM     11  C   UNL     1       0.073  10.449  20.967  0.00  0.00    +0.000 C 
ATOM     12  C   UNL     1       0.191  11.912  20.538  0.00  0.00    +0.000 C 
BRANCH  12  13
ATOM     13  C   UNL     1      -1.158  12.502  20.074  0.00  0.00    +0.000 C 
BRANCH  13  14
ATOM     14  C   UNL     1      -1.700  13.669  20.937  0.00  0.00    +0.000 C 
ATOM     15  C   UNL     1      -3.220  13.883  20.824  0.00  0.00    +0.000 C 
ATOM     16  C   UNL     1      -4.020  12.761  21.482  0.00  0.00    +0.000 C 
ATOM     17  C   UNL     1      -3.623  12.587  22.944  0.00  0.00    +0.000 C 
ATOM     18  C   UNL     1      -2.118  12.392  23.115  0.00  0.00    +0.000 C 
ATOM     19  C   UNL     1      -1.315  13.487  22.416  0.00  0.00    +0.000 C 
ENDBRANCH  13  14
ENDBRANCH  12  13
ENDBRANCH   1  12
BRANCH   6  20
ATOM     20  O   UNL     1       3.234  17.075  18.959  0.00  0.00    +0.000 OA
ATOM     21  H   UNL     1       2.746  17.117  18.114  0.00  0.00    +0.000 HD
ENDBRANCH   6  20
BRANCH   6  22
ATOM     22  C   UNL     1       4.884  15.476  19.929  0.00  0.00    +0.000 C 
BRANCH  22  23
ATOM     23  N   UNL     1       6.052  15.807  19.089  0.00  0.00    +0.000 N 
ATOM     24  C   UNL     1       6.893  14.778  18.670  0.00  0.00    +0.000 A 
ATOM     25  C   UNL     1       8.141  15.009  18.213  0.00  0.00    +0.000 A 
ATOM     26  N   UNL     1       8.660  16.284  18.063  0.00  0.00    +0.000 NA
ATOM     27  C   UNL     1       7.905  17.269  18.447  0.00  0.00    +0.000 A 
ATOM     28  C   UNL     1       6.534  17.106  19.049  0.00  0.00    +0.000 A 
ATOM     29  O   UNL     1       5.951  18.096  19.465  0.00  0.00    +0.000 OA
BRANCH  25  30
ATOM     30  C   UNL     1       9.039  13.839  17.956  0.00  0.00    +0.000 A 
ATOM     31  C   UNL     1      10.356  14.020  17.534  0.00  0.00    +0.000 A 
ATOM     32  C   UNL     1      11.190  12.909  17.396  0.00  0.00    +0.000 A 
ATOM     33  C   UNL     1      10.689  11.646  17.679  0.00  0.00    +0.000 A 
ATOM     34  C   UNL     1       9.372  11.544  18.082  0.00  0.00    +0.000 A 
ATOM     35  N   UNL     1       8.547  12.603  18.226  0.00  0.00    +0.000 NA
ENDBRANCH  25  30
ENDBRANCH  22  23
ENDBRANCH   6  22
TORSDOF 7
ENDMDL
MODEL 2
REMARK VINA RESULT:      -6.7      1.884      2.583
REMARK  Name = 
REMARK  10 active torsions:
REMARK  status: ('A' for Active; 'I' for Inactive)
REMARK    1  A    between atoms: C_1  and  C_2
REMARK    2  A    between atoms: C_2  and  C_3
REMARK    3  A    between atoms: C_2  and  C_10
REMARK    4  A    between atoms: C_3  and  C_4
REMARK    5  A    between atoms: C_15  and  O_16
REMARK    6  A    between atoms: C_15  and  C_17
REMARK    7  A    between atoms: C_17  and  N_18
REMARK    8  A    between atoms: C_20  and  C_21
REMARK    9  A    between atoms: C_31  and  C_32
REMARK   10  A    between atoms: C_31  and  C_33
REMARK                            x       y       z     vdW  Elec       q    Type
REMARK                         _______ _______ _______ _____ _____    ______ ____
ROOT
ATOM      1  C   UNL     1       1.026  11.055  18.996  0.00  0.00    +0.000 C 
ATOM      2  O   UNL     1       1.277  10.297  18.058  0.00  0.00    +0.000 OA
ATOM      3  N   UNL     1       1.775  12.211  19.223  0.00  0.00    +0.000 N 
ATOM      4  C   UNL     1       2.767  12.622  18.216  0.00  0.00    +0.000 C 
ATOM      5  C   UNL     1       2.670  14.110  17.851  0.00  0.00    +0.000 C 
ATOM      6  C   UNL     1       2.565  15.027  19.086  0.00  0.00    +0.000 C 
ATOM      7  C   UNL     1       1.367  14.520  19.994  0.00  0.00    +0.000 C 
ATOM      8  C   UNL     1       0.000  14.539  19.242  0.00  0.00    +0.000 C 
ATOM      9  C   UNL     1       1.144  15.396  21.249  0.00  0.00    +0.000 C 
ATOM     10  C   UNL     1       1.661  13.065  20.406  0.00  0.00    +0.000 C 
ENDROOT
BRANCH   1  12
ATOM     11  C   UNL     1       0.252   9.592  20.889  0.00  0.00    +0.000 C 
ATOM     12  C   UNL     1      -0.132  10.745  19.960  0.00  0.00    +0.000 C 
BRANCH  12  13
ATOM     13  C   UNL     1      -1.427  10.460  19.169  0.00  0.00    +0.000 C 
BRANCH  13  14
ATOM     14  C   UNL     1      -2.073  11.696  18.495  0.00  0.00    +0.000 C 
ATOM     15  C   UNL     1      -1.826  11.788  16.978  0.00  0.00    +0.000 C 
ATOM     16  C   UNL     1      -2.582  10.717  16.196  0.00  0.00    +0.000 C 
ATOM     17  C   UNL     1      -4.078  10.775  16.487  0.00  0.00    +0.000 C 
ATOM     18  C   UNL     1      -4.378  10.709  17.983  0.00  0.00    +0.000 C 
ATOM     19  C   UNL     1      -3.586  11.749  18.773  0.00  0.00    +0.000 C 
ENDBRANCH  13  14
ENDBRANCH  12  13
ENDBRANCH   1  12
BRANCH   6  20
ATOM     20  O   UNL     1       2.191  16.337  18.639  0.00  0.00    +0.000 OA
ATOM     21  H   UNL     1       1.776  16.281  17.756  0.00  0.00    +0.000 HD
ENDBRANCH   6  20
BRANCH   6  22
ATOM     22  C   UNL     1       3.938  15.049  19.867  0.00  0.00    +0.000 C 
BRANCH  22  23
ATOM     23  N   UNL     1       5.107  15.682  19.228  0.00  0.00    +0.000 N 
ATOM     24  C   UNL     1       6.158  14.875  18.797  0.00  0.00    +0.000 A 
ATOM     25  C   UNL     1       7.385  15.370  18.531  0.00  0.00    +0.000 A 
ATOM     26  N   UNL     1       7.679  16.720  18.604  0.00  0.00    +0.000 NA
ATOM     27  C   UNL     1       6.725  17.504  19.007  0.00  0.00    +0.000 A 
ATOM     28  C   UNL     1       5.351  17.035  19.407  0.00  0.00    +0.000 A 
ATOM     29  O   UNL     1       4.560  17.847  19.864  0.00  0.00    +0.000 OA
BRANCH  25  30
ATOM     30  C   UNL     1       8.499  14.411  18.249  0.00  0.00    +0.000 A 
ATOM     31  C   UNL     1       8.244  13.064  17.992  0.00  0.00    +0.000 A 
ATOM     32  C   UNL     1       9.300  12.221  17.641  0.00  0.00    +0.000 A 
ATOM     33  C   UNL     1      10.584  12.741  17.557  0.00  0.00    +0.000 A 
ATOM     34  C   UNL     1      10.761  14.083  17.835  0.00  0.00    +0.000 A 
ATOM     35  N   UNL     1       9.757  14.918  18.174  0.00  0.00    +0.000 NA
ENDBRANCH  25  30
ENDBRANCH  22  23
ENDBRANCH   6  22
TORSDOF 7
ENDMDL
MODEL 3
REMARK VINA RESULT:      -6.7      2.198      2.866
REMARK  Name = 
REMARK  10 active torsions:
REMARK  status: ('A' for Active; 'I' for Inactive)
REMARK    1  A    between atoms: C_1  and  C_2
REMARK    2  A    between atoms: C_2  and  C_3
REMARK    3  A    between atoms: C_2  and  C_10
REMARK    4  A    between atoms: C_3  and  C_4
REMARK    5  A    between atoms: C_15  and  O_16
REMARK    6  A    between atoms: C_15  and  C_17
REMARK    7  A    between atoms: C_17  and  N_18
REMARK    8  A    between atoms: C_20  and  C_21
REMARK    9  A    between atoms: C_31  and  C_32
REMARK   10  A    between atoms: C_31  and  C_33
REMARK                            x       y       z     vdW  Elec       q    Type
REMARK                         _______ _______ _______ _____ _____    ______ ____
ROOT
ATOM      1  C   UNL     1       0.845  11.235  18.885  0.00  0.00    +0.000 C 
ATOM      2  O   UNL     1       1.219  10.399  18.061  0.00  0.00    +0.000 OA
ATOM      3  N   UNL     1       1.585  12.390  19.142  0.00  0.00    +0.000 N 
ATOM      4  C   UNL     1       2.740  12.698  18.283  0.00  0.00    +0.000 C 
ATOM      5  C   UNL     1       2.752  14.154  17.794  0.00  0.00    +0.000 C 
ATOM      6  C   UNL     1       2.480  15.169  18.922  0.00  0.00    +0.000 C 
ATOM      7  C   UNL     1       1.135  14.761  19.658  0.00  0.00    +0.000 C 
ATOM      8  C   UNL     1      -0.091  14.747  18.694  0.00  0.00    +0.000 C 
ATOM      9  C   UNL     1       0.742  15.740  20.789  0.00  0.00    +0.000 C 
ATOM     10  C   UNL     1       1.311  13.339  20.222  0.00  0.00    +0.000 C 
ENDROOT
BRANCH   1  12
ATOM     11  C   UNL     1      -0.505   9.615  20.253  0.00  0.00    +0.000 C 
ATOM     12  C   UNL     1      -0.463  11.027  19.668  0.00  0.00    +0.000 C 
BRANCH  12  13
ATOM     13  C   UNL     1      -1.680  11.330  18.769  0.00  0.00    +0.000 C 
BRANCH  13  14
ATOM     14  C   UNL     1      -2.375  10.088  18.157  0.00  0.00    +0.000 C 
ATOM     15  C   UNL     1      -3.911  10.114  18.253  0.00  0.00    +0.000 C 
ATOM     16  C   UNL     1      -4.537  11.163  17.338  0.00  0.00    +0.000 C 
ATOM     17  C   UNL     1      -4.107  10.956  15.889  0.00  0.00    +0.000 C 
ATOM     18  C   UNL     1      -2.588  10.901  15.740  0.00  0.00    +0.000 C 
ATOM     19  C   UNL     1      -1.955   9.886  16.690  0.00  0.00    +0.000 C 
ENDBRANCH  13  14
ENDBRANCH  12  13
ENDBRANCH   1  12
BRANCH   6  20
ATOM     20  O   UNL     1       2.226  16.446  18.321  0.00  0.00    +0.000 OA
ATOM     21  H   UNL     1       2.674  17.150  18.830  0.00  0.00    +0.000 HD
ENDBRANCH   6  20
BRANCH   6  22
ATOM     22  C   UNL     1       3.709  15.227  19.913  0.00  0.00    +0.000 C 
BRANCH  22  23
ATOM     23  N   UNL     1       5.018  15.668  19.394  0.00  0.00    +0.000 N 
ATOM     24  C   UNL     1       6.029  14.724  19.226  0.00  0.00    +0.000 A 
ATOM     25  C   UNL     1       7.326  15.072  19.100  0.00  0.00    +0.000 A 
ATOM     26  N   UNL     1       7.747  16.391  19.062  0.00  0.00    +0.000 NA
ATOM     27  C   UNL     1       6.833  17.299  19.220  0.00  0.00    +0.000 A 
ATOM     28  C   UNL     1       5.374  17.007  19.453  0.00  0.00    +0.000 A 
ATOM     29  O   UNL     1       4.615  17.936  19.685  0.00  0.00    +0.000 OA
BRANCH  25  30
ATOM     30  C   UNL     1       8.363  13.993  19.106  0.00  0.00    +0.000 A 
ATOM     31  C   UNL     1       9.101  13.708  20.255  0.00  0.00    +0.000 A 
ATOM     32  C   UNL     1       9.991  12.633  20.249  0.00  0.00    +0.000 A 
ATOM     33  C   UNL     1      10.124  11.869  19.097  0.00  0.00    +0.000 A 
ATOM     34  C   UNL     1       9.367  12.218  17.995  0.00  0.00    +0.000 A 
ATOM     35  N   UNL     1       8.499  13.250  17.977  0.00  0.00    +0.000 NA
ENDBRANCH  25  30
ENDBRANCH  22  23
ENDBRANCH   6  22
TORSDOF 7
ENDMDL
MODEL 4
REMARK VINA RESULT:      -6.7      0.549      1.241
REMARK  Name = 
REMARK  10 active torsions:
REMARK  status: ('A' for Active; 'I' for Inactive)
REMARK    1  A    between atoms: C_1  and  C_2
REMARK    2  A    between atoms: C_2  and  C_3
REMARK    3  A    between atoms: C_2  and  C_10
REMARK    4  A    between atoms: C_3  and  C_4
REMARK    5  A    between atoms: C_15  and  O_16
REMARK    6  A    between atoms: C_15  and  C_17
REMARK    7  A    between atoms: C_17  and  N_18
REMARK    8  A    between atoms: C_20  and  C_21
REMARK    9  A    between atoms: C_31  and  C_32
REMARK   10  A    between atoms: C_31  and  C_33
REMARK                            x       y       z     vdW  Elec       q    Type
REMARK                         _______ _______ _______ _____ _____    ______ ____
ROOT
ATOM      1  C   UNL     1       1.289  12.001  19.465  0.00  0.00    +0.000 C 
ATOM      2  O   UNL     1       1.277  11.271  18.473  0.00  0.00    +0.000 OA
ATOM      3  N   UNL     1       2.232  13.020  19.610  0.00  0.00    +0.000 N 
ATOM      4  C   UNL     1       3.111  13.341  18.473  0.00  0.00    +0.000 C 
ATOM      5  C   UNL     1       3.188  14.846  18.180  0.00  0.00    +0.000 C 
ATOM      6  C   UNL     1       3.413  15.695  19.448  0.00  0.00    +0.000 C 
ATOM      7  C   UNL     1       2.303  15.315  20.516  0.00  0.00    +0.000 C 
ATOM      8  C   UNL     1       0.857  15.577  19.991  0.00  0.00    +0.000 C 
ATOM      9  C   UNL     1       2.410  16.140  21.820  0.00  0.00    +0.000 C 
ATOM     10  C   UNL     1       2.430  13.812  20.825  0.00  0.00    +0.000 C 
ENDROOT
BRANCH   1  12
ATOM     11  C   UNL     1      -0.030  10.318  20.787  0.00  0.00    +0.000 C 
ATOM     12  C   UNL     1       0.258  11.806  20.589  0.00  0.00    +0.000 C 
BRANCH  12  13
ATOM     13  C   UNL     1      -1.020  12.620  20.291  0.00  0.00    +0.000 C 
BRANCH  13  14
ATOM     14  C   UNL     1      -2.031  12.714  21.461  0.00  0.00    +0.000 C 
ATOM     15  C   UNL     1      -1.381  12.943  22.838  0.00  0.00    +0.000 C 
ATOM     16  C   UNL     1      -0.785  14.341  22.978  0.00  0.00    +0.000 C 
ATOM     17  C   UNL     1      -1.832  15.416  22.708  0.00  0.00    +0.000 C 
ATOM     18  C   UNL     1      -2.524  15.223  21.360  0.00  0.00    +0.000 C 
ATOM     19  C   UNL     1      -3.079  13.809  21.199  0.00  0.00    +0.000 C 
ENDBRANCH  13  14
ENDBRANCH  12  13
ENDBRANCH   1  12
BRANCH   6  20
ATOM     20  O   UNL     1       3.179  17.069  19.111  0.00  0.00    +0.000 OA
ATOM     21  H   UNL     1       4.004  17.477  18.782  0.00  0.00    +0.000 HD
ENDBRANCH   6  20
BRANCH   6  22
ATOM     22  C   UNL     1       4.875  15.472  20.001  0.00  0.00    +0.000 C 
BRANCH  22  23
ATOM     23  N   UNL     1       6.020  15.799  19.131  0.00  0.00    +0.000 N 
ATOM     24  C   UNL     1       6.864  14.772  18.712  0.00  0.00    +0.000 A 
ATOM     25  C   UNL     1       8.100  15.009  18.224  0.00  0.00    +0.000 A 
ATOM     26  N   UNL     1       8.600  16.286  18.040  0.00  0.00    +0.000 NA
ATOM     27  C   UNL     1       7.843  17.269  18.422  0.00  0.00    +0.000 A 
ATOM     28  C   UNL     1       6.487  17.103  19.056  0.00  0.00    +0.000 A 
ATOM     29  O   UNL     1       5.901  18.093  19.466  0.00  0.00    +0.000 OA
BRANCH  25  30
ATOM     30  C   UNL     1       9.005  13.844  17.969  0.00  0.00    +0.000 A 
ATOM     31  C   UNL     1      10.326  14.033  17.563  0.00  0.00    +0.000 A 
ATOM     32  C   UNL     1      11.166  12.926  17.427  0.00  0.00    +0.000 A 
ATOM     33  C   UNL     1      10.667  11.659  17.696  0.00  0.00    +0.000 A 
ATOM     34  C   UNL     1       9.346  11.550  18.084  0.00  0.00    +0.000 A 
ATOM     35  N   UNL     1       8.515  12.604  18.226  0.00  0.00    +0.000 NA
ENDBRANCH  25  30
ENDBRANCH  22  23
ENDBRANCH   6  22
TORSDOF 7
ENDMDL
MODEL 5
REMARK VINA RESULT:      -6.7      6.815      9.408
REMARK  Name = 
REMARK  10 active torsions:
REMARK  status: ('A' for Active; 'I' for Inactive)
REMARK    1  A    between atoms: C_1  and  C_2
REMARK    2  A    between atoms: C_2  and  C_3
REMARK    3  A    between atoms: C_2  and  C_10
REMARK    4  A    between atoms: C_3  and  C_4
REMARK    5  A    between atoms: C_15  and  O_16
REMARK    6  A    between atoms: C_15  and  C_17
REMARK    7  A    between atoms: C_17  and  N_18
REMARK    8  A    between atoms: C_20  and  C_21
REMARK    9  A    between atoms: C_31  and  C_32
REMARK   10  A    between atoms: C_31  and  C_33
REMARK                            x       y       z     vdW  Elec       q    Type
REMARK                         _______ _______ _______ _____ _____    ______ ____
ROOT
ATOM      1  C   UNL     1       2.037   7.325  19.694  0.00  0.00    +0.000 C 
ATOM      2  O   UNL     1       1.838   7.712  20.846  0.00  0.00    +0.000 OA
ATOM      3  N   UNL     1       2.784   6.176  19.428  0.00  0.00    +0.000 N 
ATOM      4  C   UNL     1       3.187   5.316  20.553  0.00  0.00    +0.000 C 
ATOM      5  C   UNL     1       2.904   3.828  20.303  0.00  0.00    +0.000 C 
ATOM      6  C   UNL     1       3.368   3.353  18.910  0.00  0.00    +0.000 C 
ATOM      7  C   UNL     1       2.738   4.311  17.813  0.00  0.00    +0.000 C 
ATOM      8  C   UNL     1       1.178   4.309  17.845  0.00  0.00    +0.000 C 
ATOM      9  C   UNL     1       3.107   3.900  16.368  0.00  0.00    +0.000 C 
ATOM     10  C   UNL     1       3.217   5.746  18.098  0.00  0.00    +0.000 C 
ENDROOT
BRANCH   1  12
ATOM     11  C   UNL     1       2.581   8.882  17.796  0.00  0.00    +0.000 C 
ATOM     12  C   UNL     1       1.466   8.106  18.498  0.00  0.00    +0.000 C 
BRANCH  12  13
ATOM     13  C   UNL     1       0.310   9.020  18.959  0.00  0.00    +0.000 C 
BRANCH  13  14
ATOM     14  C   UNL     1      -0.058  10.163  17.980  0.00  0.00    +0.000 C 
ATOM     15  C   UNL     1      -1.393   9.955  17.242  0.00  0.00    +0.000 C 
ATOM     16  C   UNL     1      -2.599  10.089  18.167  0.00  0.00    +0.000 C 
ATOM     17  C   UNL     1      -2.600  11.438  18.879  0.00  0.00    +0.000 C 
ATOM     18  C   UNL     1      -1.287  11.705  19.611  0.00  0.00    +0.000 C 
ATOM     19  C   UNL     1      -0.075  11.523  18.699  0.00  0.00    +0.000 C 
ENDBRANCH  13  14
ENDBRANCH  12  13
ENDBRANCH   1  12
BRANCH   6  20
ATOM     20  O   UNL     1       2.804   2.057  18.671  0.00  0.00    +0.000 OA
ATOM     21  H   UNL     1       3.403   1.364  19.012  0.00  0.00    +0.000 HD
ENDBRANCH   6  20
BRANCH   6  22
ATOM     22  C   UNL     1       4.945   3.323  18.842  0.00  0.00    +0.000 C 
BRANCH  22  23
ATOM     23  N   UNL     1       5.645   4.400  18.115  0.00  0.00    +0.000 N 
ATOM     24  C   UNL     1       5.781   4.300  16.732  0.00  0.00    +0.000 A 
ATOM     25  C   UNL     1       6.683   5.031  16.042  0.00  0.00    +0.000 A 
ATOM     26  N   UNL     1       7.494   5.979  16.641  0.00  0.00    +0.000 NA
ATOM     27  C   UNL     1       7.397   6.097  17.931  0.00  0.00    +0.000 A 
ATOM     28  C   UNL     1       6.484   5.269  18.796  0.00  0.00    +0.000 A 
ATOM     29  O   UNL     1       6.544   5.396  20.010  0.00  0.00    +0.000 OA
BRANCH  25  30
ATOM     30  C   UNL     1       6.888   4.731  14.590  0.00  0.00    +0.000 A 
ATOM     31  C   UNL     1       6.111   3.777  13.933  0.00  0.00    +0.000 A 
ATOM     32  C   UNL     1       6.268   3.593  12.559  0.00  0.00    +0.000 A 
ATOM     33  C   UNL     1       7.197   4.362  11.874  0.00  0.00    +0.000 A 
ATOM     34  C   UNL     1       7.938   5.281  12.593  0.00  0.00    +0.000 A 
ATOM     35  N   UNL     1       7.803   5.479  13.921  0.00  0.00    +0.000 NA
ENDBRANCH  25  30
ENDBRANCH  22  23
ENDBRANCH   6  22
TORSDOF 7
ENDMDL
MODEL 6
REMARK VINA RESULT:      -6.7      1.715      2.309
REMARK  Name = 
REMARK  10 active torsions:
REMARK  status: ('A' for Active; 'I' for Inactive)
REMARK    1  A    between atoms: C_1  and  C_2
REMARK    2  A    between atoms: C_2  and  C_3
REMARK    3  A    between atoms: C_2  and  C_10
REMARK    4  A    between atoms: C_3  and  C_4
REMARK    5  A    between atoms: C_15  and  O_16
REMARK    6  A    between atoms: C_15  and  C_17
REMARK    7  A    between atoms: C_17  and  N_18
REMARK    8  A    between atoms: C_20  and  C_21
REMARK    9  A    between atoms: C_31  and  C_32
REMARK   10  A    between atoms: C_31  and  C_33
REMARK                            x       y       z     vdW  Elec       q    Type
REMARK                         _______ _______ _______ _____ _____    ______ ____
ROOT
ATOM      1  C   UNL     1       1.184  12.562  18.986  0.00  0.00    +0.000 C 
ATOM      2  O   UNL     1       1.364  11.636  18.194  0.00  0.00    +0.000 OA
ATOM      3  N   UNL     1       2.151  13.547  19.190  0.00  0.00    +0.000 N 
ATOM      4  C   UNL     1       3.329  13.578  18.309  0.00  0.00    +0.000 C 
ATOM      5  C   UNL     1       3.633  14.980  17.761  0.00  0.00    +0.000 C 
ATOM      6  C   UNL     1       3.595  16.072  18.849  0.00  0.00    +0.000 C 
ATOM      7  C   UNL     1       2.207  15.979  19.612  0.00  0.00    +0.000 C 
ATOM      8  C   UNL     1       0.988  16.182  18.660  0.00  0.00    +0.000 C 
ATOM      9  C   UNL     1       2.043  17.061  20.706  0.00  0.00    +0.000 C 
ATOM     10  C   UNL     1       2.095  14.574  20.232  0.00  0.00    +0.000 C 
ENDROOT
BRANCH   1  12
ATOM     11  C   UNL     1      -0.142  11.605  20.896  0.00  0.00    +0.000 C 
ATOM     12  C   UNL     1      -0.125  12.658  19.788  0.00  0.00    +0.000 C 
BRANCH  12  13
ATOM     13  C   UNL     1      -1.341  12.542  18.845  0.00  0.00    +0.000 C 
BRANCH  13  14
ATOM     14  C   UNL     1      -2.265  11.326  19.106  0.00  0.00    +0.000 C 
ATOM     15  C   UNL     1      -3.737  11.559  18.720  0.00  0.00    +0.000 C 
ATOM     16  C   UNL     1      -3.941  11.643  17.210  0.00  0.00    +0.000 C 
ATOM     17  C   UNL     1      -3.409  10.395  16.513  0.00  0.00    +0.000 C 
ATOM     18  C   UNL     1      -1.955  10.105  16.878  0.00  0.00    +0.000 C 
ATOM     19  C   UNL     1      -1.740  10.069  18.390  0.00  0.00    +0.000 C 
ENDBRANCH  13  14
ENDBRANCH  12  13
ENDBRANCH   1  12
BRANCH   6  20
ATOM     20  O   UNL     1       3.599  17.350  18.198  0.00  0.00    +0.000 OA
ATOM     21  H   UNL     1       3.804  17.240  17.249  0.00  0.00    +0.000 HD
ENDBRANCH   6  20
BRANCH   6  22
ATOM     22  C   UNL     1       4.825  15.912  19.826  0.00  0.00    +0.000 C 
BRANCH  22  23
ATOM     23  N   UNL     1       6.187  16.079  19.285  0.00  0.00    +0.000 N 
ATOM     24  C   UNL     1       6.961  14.945  19.047  0.00  0.00    +0.000 A 
ATOM     25  C   UNL     1       8.301  15.005  18.893  0.00  0.00    +0.000 A 
ATOM     26  N   UNL     1       9.001  16.199  18.895  0.00  0.00    +0.000 NA
ATOM     27  C   UNL     1       8.313  17.278  19.117  0.00  0.00    +0.000 A 
ATOM     28  C   UNL     1       6.831  17.303  19.385  0.00  0.00    +0.000 A 
ATOM     29  O   UNL     1       6.302  18.364  19.678  0.00  0.00    +0.000 OA
BRANCH  25  30
ATOM     30  C   UNL     1       9.073  13.725  18.824  0.00  0.00    +0.000 A 
ATOM     31  C   UNL     1      10.021  13.508  17.823  0.00  0.00    +0.000 A 
ATOM     32  C   UNL     1      10.787  12.342  17.846  0.00  0.00    +0.000 A 
ATOM     33  C   UNL     1      10.589  11.420  18.864  0.00  0.00    +0.000 A 
ATOM     34  C   UNL     1       9.626  11.699  19.815  0.00  0.00    +0.000 A 
ATOM     35  N   UNL     1       8.874  12.820  19.816  0.00  0.00    +0.000 NA
ENDBRANCH  25  30
ENDBRANCH  22  23
ENDBRANCH   6  22
TORSDOF 7
ENDMDL
MODEL 7
REMARK VINA RESULT:      -6.6      1.854      2.414
REMARK  Name = 
REMARK  10 active torsions:
REMARK  status: ('A' for Active; 'I' for Inactive)
REMARK    1  A    between atoms: C_1  and  C_2
REMARK    2  A    between atoms: C_2  and  C_3
REMARK    3  A    between atoms: C_2  and  C_10
REMARK    4  A    between atoms: C_3  and  C_4
REMARK    5  A    between atoms: C_15  and  O_16
REMARK    6  A    between atoms: C_15  and  C_17
REMARK    7  A    between atoms: C_17  and  N_18
REMARK    8  A    between atoms: C_20  and  C_21
REMARK    9  A    between atoms: C_31  and  C_32
REMARK   10  A    between atoms: C_31  and  C_33
REMARK                            x       y       z     vdW  Elec       q    Type
REMARK                         _______ _______ _______ _____ _____    ______ ____
ROOT
ATOM      1  C   UNL     1       1.389  11.229  18.908  0.00  0.00    +0.000 C 
ATOM      2  O   UNL     1       1.749  10.482  17.996  0.00  0.00    +0.000 OA
ATOM      3  N   UNL     1       2.067  12.415  19.192  0.00  0.00    +0.000 N 
ATOM      4  C   UNL     1       3.121  12.868  18.269  0.00  0.00    +0.000 C 
ATOM      5  C   UNL     1       2.991  14.351  17.892  0.00  0.00    +0.000 C 
ATOM      6  C   UNL     1       2.746  15.263  19.111  0.00  0.00    +0.000 C 
ATOM      7  C   UNL     1       1.499  14.704  19.919  0.00  0.00    +0.000 C 
ATOM      8  C   UNL     1       0.200  14.666  19.056  0.00  0.00    +0.000 C 
ATOM      9  C   UNL     1       1.136  15.571  21.148  0.00  0.00    +0.000 C 
ATOM     10  C   UNL     1       1.819  13.264  20.358  0.00  0.00    +0.000 C 
ENDROOT
BRANCH   1  12
ATOM     11  C   UNL     1       0.618  10.111  21.024  0.00  0.00    +0.000 C 
ATOM     12  C   UNL     1       0.170  10.869  19.774  0.00  0.00    +0.000 C 
BRANCH  12  13
ATOM     13  C   UNL     1      -0.863  10.079  18.943  0.00  0.00    +0.000 C 
BRANCH  13  14
ATOM     14  C   UNL     1      -1.452  10.837  17.727  0.00  0.00    +0.000 C 
ATOM     15  C   UNL     1      -2.339   9.972  16.814  0.00  0.00    +0.000 C 
ATOM     16  C   UNL     1      -3.663   9.594  17.472  0.00  0.00    +0.000 C 
ATOM     17  C   UNL     1      -4.428  10.834  17.922  0.00  0.00    +0.000 C 
ATOM     18  C   UNL     1      -3.585  11.740  18.816  0.00  0.00    +0.000 C 
ATOM     19  C   UNL     1      -2.238  12.080  18.179  0.00  0.00    +0.000 C 
ENDBRANCH  13  14
ENDBRANCH  12  13
ENDBRANCH   1  12
BRANCH   6  20
ATOM     20  O   UNL     1       2.354  16.555  18.630  0.00  0.00    +0.000 OA
ATOM     21  H   UNL     1       3.061  17.206  18.808  0.00  0.00    +0.000 HD
ENDBRANCH   6  20
BRANCH   6  22
ATOM     22  C   UNL     1       4.047  15.343  20.003  0.00  0.00    +0.000 C 
BRANCH  22  23
ATOM     23  N   UNL     1       5.332  15.665  19.354  0.00  0.00    +0.000 N 
ATOM     24  C   UNL     1       6.291  14.663  19.226  0.00  0.00    +0.000 A 
ATOM     25  C   UNL     1       7.589  14.935  18.977  0.00  0.00    +0.000 A 
ATOM     26  N   UNL     1       8.058  16.221  18.766  0.00  0.00    +0.000 NA
ATOM     27  C   UNL     1       7.192  17.182  18.882  0.00  0.00    +0.000 A 
ATOM     28  C   UNL     1       5.743  16.985  19.241  0.00  0.00    +0.000 A 
ATOM     29  O   UNL     1       5.039  17.967  19.418  0.00  0.00    +0.000 OA
BRANCH  25  30
ATOM     30  C   UNL     1       8.581  13.815  19.034  0.00  0.00    +0.000 A 
ATOM     31  C   UNL     1       9.159  13.425  20.242  0.00  0.00    +0.000 A 
ATOM     32  C   UNL     1      10.007  12.317  20.270  0.00  0.00    +0.000 A 
ATOM     33  C   UNL     1      10.259  11.626  19.092  0.00  0.00    +0.000 A 
ATOM     34  C   UNL     1       9.658  12.078  17.933  0.00  0.00    +0.000 A 
ATOM     35  N   UNL     1       8.833  13.144  17.881  0.00  0.00    +0.000 NA
ENDBRANCH  25  30
ENDBRANCH  22  23
ENDBRANCH   6  22
TORSDOF 7
ENDMDL
MODEL 8
REMARK VINA RESULT:      -6.5      3.111      3.975
REMARK  Name = 
REMARK  10 active torsions:
REMARK  status: ('A' for Active; 'I' for Inactive)
REMARK    1  A    between atoms: C_1  and  C_2
REMARK    2  A    between atoms: C_2  and  C_3
REMARK    3  A    between atoms: C_2  and  C_10
REMARK    4  A    between atoms: C_3  and  C_4
REMARK    5  A    between atoms: C_15  and  O_16
REMARK    6  A    between atoms: C_15  and  C_17
REMARK    7  A    between atoms: C_17  and  N_18
REMARK    8  A    between atoms: C_20  and  C_21
REMARK    9  A    between atoms: C_31  and  C_32
REMARK   10  A    between atoms: C_31  and  C_33
REMARK                            x       y       z     vdW  Elec       q    Type
REMARK                         _______ _______ _______ _____ _____    ______ ____
ROOT
ATOM      1  C   UNL     1       0.605  12.541  19.164  0.00  0.00    +0.000 C 
ATOM      2  O   UNL     1       1.138  11.630  18.528  0.00  0.00    +0.000 OA
ATOM      3  N   UNL     1       1.323  13.666  19.570  0.00  0.00    +0.000 N 
ATOM      4  C   UNL     1       2.697  13.849  19.073  0.00  0.00    +0.000 C 
ATOM      5  C   UNL     1       2.959  15.264  18.539  0.00  0.00    +0.000 C 
ATOM      6  C   UNL     1       2.448  16.369  19.486  0.00  0.00    +0.000 C 
ATOM      7  C   UNL     1       0.921  16.089  19.815  0.00  0.00    +0.000 C 
ATOM      8  C   UNL     1       0.029  16.079  18.535  0.00  0.00    +0.000 C 
ATOM      9  C   UNL     1       0.292  17.165  20.732  0.00  0.00    +0.000 C 
ATOM     10  C   UNL     1       0.820  14.701  20.474  0.00  0.00    +0.000 C 
ENDROOT
BRANCH   1  12
ATOM     11  C   UNL     1      -1.102  11.391  20.609  0.00  0.00    +0.000 C 
ATOM     12  C   UNL     1      -0.885  12.462  19.539  0.00  0.00    +0.000 C 
BRANCH  12  13
ATOM     13  C   UNL     1      -1.742  12.219  18.278  0.00  0.00    +0.000 C 
BRANCH  13  14
ATOM     14  C   UNL     1      -2.593  10.924  18.298  0.00  0.00    +0.000 C 
ATOM     15  C   UNL     1      -4.107  11.162  18.157  0.00  0.00    +0.000 C 
ATOM     16  C   UNL     1      -4.497  11.634  16.759  0.00  0.00    +0.000 C 
ATOM     17  C   UNL     1      -4.020  10.653  15.693  0.00  0.00    +0.000 C 
ATOM     18  C   UNL     1      -2.524  10.364  15.802  0.00  0.00    +0.000 C 
ATOM     19  C   UNL     1      -2.124   9.938  17.213  0.00  0.00    +0.000 C 
ENDBRANCH  13  14
ENDBRANCH  12  13
ENDBRANCH   1  12
BRANCH   6  20
ATOM     20  O   UNL     1       2.475  17.613  18.775  0.00  0.00    +0.000 OA
ATOM     21  H   UNL     1       3.390  17.952  18.729  0.00  0.00    +0.000 HD
ENDBRANCH   6  20
BRANCH   6  22
ATOM     22  C   UNL     1       3.339  16.424  20.789  0.00  0.00    +0.000 C 
BRANCH  22  23
ATOM     23  N   UNL     1       4.754  16.016  20.699  0.00  0.00    +0.000 N 
ATOM     24  C   UNL     1       5.181  14.900  21.416  0.00  0.00    +0.000 A 
ATOM     25  C   UNL     1       6.484  14.664  21.673  0.00  0.00    +0.000 A 
ATOM     26  N   UNL     1       7.500  15.472  21.193  0.00  0.00    +0.000 NA
ATOM     27  C   UNL     1       7.140  16.525  20.523  0.00  0.00    +0.000 A 
ATOM     28  C   UNL     1       5.711  16.918  20.258  0.00  0.00    +0.000 A 
ATOM     29  O   UNL     1       5.484  17.981  19.700  0.00  0.00    +0.000 OA
BRANCH  25  30
ATOM     30  C   UNL     1       6.841  13.545  22.601  0.00  0.00    +0.000 A 
ATOM     31  C   UNL     1       8.168  13.293  22.950  0.00  0.00    +0.000 A 
ATOM     32  C   UNL     1       8.453  12.302  23.890  0.00  0.00    +0.000 A 
ATOM     33  C   UNL     1       7.408  11.585  24.457  0.00  0.00    +0.000 A 
ATOM     34  C   UNL     1       6.121  11.884  24.055  0.00  0.00    +0.000 A 
ATOM     35  N   UNL     1       5.820  12.839  23.150  0.00  0.00    +0.000 NA
ENDBRANCH  25  30
ENDBRANCH  22  23
ENDBRANCH   6  22
TORSDOF 7
ENDMDL
MODEL 9
REMARK VINA RESULT:      -6.4      2.733      8.720
REMARK  Name = 
REMARK  10 active torsions:
REMARK  status: ('A' for Active; 'I' for Inactive)
REMARK    1  A    between atoms: C_1  and  C_2
REMARK    2  A    between atoms: C_2  and  C_3
REMARK    3  A    between atoms: C_2  and  C_10
REMARK    4  A    between atoms: C_3  and  C_4
REMARK    5  A    between atoms: C_15  and  O_16
REMARK    6  A    between atoms: C_15  and  C_17
REMARK    7  A    between atoms: C_17  and  N_18
REMARK    8  A    between atoms: C_20  and  C_21
REMARK    9  A    between atoms: C_31  and  C_32
REMARK   10  A    between atoms: C_31  and  C_33
REMARK                            x       y       z     vdW  Elec       q    Type
REMARK                         _______ _______ _______ _____ _____    ______ ____
ROOT
ATOM      1  C   UNL     1       7.890  14.141  22.473  0.00  0.00    +0.000 C 
ATOM      2  O   UNL     1       7.450  13.978  23.612  0.00  0.00    +0.000 OA
ATOM      3  N   UNL     1       7.066  14.551  21.423  0.00  0.00    +0.000 N 
ATOM      4  C   UNL     1       5.687  14.969  21.725  0.00  0.00    +0.000 C 
ATOM      5  C   UNL     1       5.302  16.296  21.055  0.00  0.00    +0.000 C 
ATOM      6  C   UNL     1       5.698  16.355  19.566  0.00  0.00    +0.000 C 
ATOM      7  C   UNL     1       7.241  16.007  19.438  0.00  0.00    +0.000 C 
ATOM      8  C   UNL     1       8.144  16.999  20.233  0.00  0.00    +0.000 C 
ATOM      9  C   UNL     1       7.758  16.076  17.981  0.00  0.00    +0.000 C 
ATOM     10  C   UNL     1       7.462  14.596  20.015  0.00  0.00    +0.000 C 
ENDROOT
BRANCH   1  12
ATOM     11  C   UNL     1      10.180  15.174  22.375  0.00  0.00    +0.000 C 
ATOM     12  C   UNL     1       9.376  13.889  22.168  0.00  0.00    +0.000 C 
BRANCH  12  13
ATOM     13  C   UNL     1       9.541  13.312  20.746  0.00  0.00    +0.000 C 
BRANCH  13  14
ATOM     14  C   UNL     1      10.244  11.932  20.672  0.00  0.00    +0.000 C 
ATOM     15  C   UNL     1       9.450  10.862  19.902  0.00  0.00    +0.000 C 
ATOM     16  C   UNL     1       9.396  11.138  18.402  0.00  0.00    +0.000 C 
ATOM     17  C   UNL     1      10.798  11.272  17.816  0.00  0.00    +0.000 C 
ATOM     18  C   UNL     1      11.638  12.309  18.559  0.00  0.00    +0.000 C 
ATOM     19  C   UNL     1      11.652  12.062  20.066  0.00  0.00    +0.000 C 
ENDBRANCH  13  14
ENDBRANCH  12  13
ENDBRANCH   1  12
BRANCH   6  20
ATOM     20  O   UNL     1       5.565  17.713  19.123  0.00  0.00    +0.000 OA
ATOM     21  H   UNL     1       4.725  18.090  19.451  0.00  0.00    +0.000 HD
ENDBRANCH   6  20
BRANCH   6  22
ATOM     22  C   UNL     1       4.792  15.376  18.721  0.00  0.00    +0.000 C 
BRANCH  22  23
ATOM     23  N   UNL     1       3.373  15.225  19.093  0.00  0.00    +0.000 N 
ATOM     24  C   UNL     1       2.910  13.972  19.493  0.00  0.00    +0.000 A 
ATOM     25  C   UNL     1       1.597  13.661  19.511  0.00  0.00    +0.000 A 
ATOM     26  N   UNL     1       0.607  14.575  19.198  0.00  0.00    +0.000 NA
ATOM     27  C   UNL     1       1.000  15.753  18.818  0.00  0.00    +0.000 A 
ATOM     28  C   UNL     1       2.442  16.167  18.683  0.00  0.00    +0.000 A 
ATOM     29  O   UNL     1       2.699  17.269  18.223  0.00  0.00    +0.000 OA
BRANCH  25  30
ATOM     30  C   UNL     1       1.201  12.243  19.778  0.00  0.00    +0.000 A 
ATOM     31  C   UNL     1       1.084  11.318  18.739  0.00  0.00    +0.000 A 
ATOM     32  C   UNL     1       0.804   9.984  19.037  0.00  0.00    +0.000 A 
ATOM     33  C   UNL     1       0.645   9.604  20.362  0.00  0.00    +0.000 A 
ATOM     34  C   UNL     1       0.766  10.577  21.336  0.00  0.00    +0.000 A 
ATOM     35  N   UNL     1       1.038  11.872  21.074  0.00  0.00    +0.000 NA
ENDBRANCH  25  30
ENDBRANCH  22  23
ENDBRANCH   6  22
TORSDOF 7
ENDMDL
