MODEL 1
REMARK VINA RESULT:      -8.9      0.000      0.000
REMARK  Name = 
REMARK  3 active torsions:
REMARK  status: ('A' for Active; 'I' for Inactive)
REMARK    1  A    between atoms: C_2  and  C_15
REMARK    2  A    between atoms: N_3  and  C_4
REMARK    3  A    between atoms: C_4  and  C_5
REMARK                            x       y       z     vdW  Elec       q    Type
REMARK                         _______ _______ _______ _____ _____    ______ ____
ROOT
ATOM      1  O   UNL     1       3.661   7.717  16.560  0.00  0.00    +0.000 OA
ATOM      2  C   UNL     1       3.404   7.127  17.603  0.00  0.00    +0.000 C 
ATOM      3  N   UNL     1       2.504   7.619  18.520  0.00  0.00    +0.000 N 
ATOM      4  H   UNL     1       2.370   7.172  19.413  0.00  0.00    +0.000 HD
ENDROOT
BRANCH   2   5
ATOM      5  C   UNL     1       4.066   5.822  17.966  0.00  0.00    +0.000 A 
ATOM      6  C   UNL     1       5.398   5.826  18.165  0.00  0.00    +0.000 A 
ATOM      7  C   UNL     1       6.146   4.621  18.567  0.00  0.00    +0.000 A 
ATOM      8  O   UNL     1       7.367   4.656  18.680  0.00  0.00    +0.000 OA
ATOM      9  N   UNL     1       5.423   3.498  18.809  0.00  0.00    +0.000 N 
ATOM     10  C   UNL     1       4.033   3.426  18.656  0.00  0.00    +0.000 A 
ATOM     11  C   UNL     1       3.397   2.216  18.933  0.00  0.00    +0.000 A 
ATOM     12  C   UNL     1       2.021   2.106  18.771  0.00  0.00    +0.000 A 
ATOM     13  C   UNL     1       1.290   3.205  18.328  0.00  0.00    +0.000 A 
ATOM     14  C   UNL     1       1.933   4.419  18.051  0.00  0.00    +0.000 A 
ATOM     15  C   UNL     1       3.318   4.561  18.220  0.00  0.00    +0.000 A 
ATOM     16  H   UNL     1       5.945   2.685  19.103  0.00  0.00    +0.000 HD
ENDBRANCH   2   5
BRANCH   3  17
ATOM     17  C   UNL     1       1.788   8.859  18.318  0.00  0.00    +0.000 C 
BRANCH  17  18
ATOM     18  C   UNL     1       1.200   9.338  19.618  0.00  0.00    +0.000 A 
ATOM     19  C   UNL     1       1.296   8.538  20.765  0.00  0.00    +0.000 A 
ATOM     20  C   UNL     1       0.757   8.969  21.978  0.00  0.00    +0.000 A 
ATOM     21  C   UNL     1       0.099  10.194  22.049  0.00  0.00    +0.000 A 
ATOM     22  C   UNL     1      -0.008  10.998  20.911  0.00  0.00    +0.000 A 
ATOM     23  C   UNL     1       0.522  10.565  19.695  0.00  0.00    +0.000 A 
ATOM     24  O   UNL     1      -0.626  12.223  20.912  0.00  0.00    +0.000 OA
ATOM     25  C   UNL     1      -0.793  12.719  22.246  0.00  0.00    +0.000 C 
ATOM     26  C   UNL     1      -1.336  11.634  23.162  0.00  0.00    +0.000 C 
ATOM     27  O   UNL     1      -0.409  10.549  23.273  0.00  0.00    +0.000 OA
ENDBRANCH  17  18
ENDBRANCH   3  17
TORSDOF 3
ENDMDL
MODEL 2
REMARK VINA RESULT:      -8.7      2.926      3.846
REMARK  Name = 
REMARK  3 active torsions:
REMARK  status: ('A' for Active; 'I' for Inactive)
REMARK    1  A    between atoms: C_2  and  C_15
REMARK    2  A    between atoms: N_3  and  C_4
REMARK    3  A    between atoms: C_4  and  C_5
REMARK                            x       y       z     vdW  Elec       q    Type
REMARK                         _______ _______ _______ _____ _____    ______ ____
ROOT
ATOM      1  O   UNL     1       1.952   7.243  20.656  0.00  0.00    +0.000 OA
ATOM      2  C   UNL     1       2.096   7.558  19.481  0.00  0.00    +0.000 C 
ATOM      3  N   UNL     1       1.632   8.753  18.980  0.00  0.00    +0.000 N 
ATOM      4  H   UNL     1       1.677   8.960  17.995  0.00  0.00    +0.000 HD
ENDROOT
BRANCH   2   5
ATOM      5  C   UNL     1       2.784   6.653  18.490  0.00  0.00    +0.000 A 
ATOM      6  C   UNL     1       3.783   7.172  17.752  0.00  0.00    +0.000 A 
ATOM      7  C   UNL     1       4.556   6.372  16.785  0.00  0.00    +0.000 A 
ATOM      8  O   UNL     1       5.419   6.899  16.090  0.00  0.00    +0.000 OA
ATOM      9  N   UNL     1       4.273   5.045  16.716  0.00  0.00    +0.000 N 
ATOM     10  C   UNL     1       3.273   4.428  17.475  0.00  0.00    +0.000 A 
ATOM     11  C   UNL     1       3.072   3.057  17.318  0.00  0.00    +0.000 A 
ATOM     12  C   UNL     1       2.072   2.418  18.044  0.00  0.00    +0.000 A 
ATOM     13  C   UNL     1       1.278   3.155  18.917  0.00  0.00    +0.000 A 
ATOM     14  C   UNL     1       1.483   4.533  19.071  0.00  0.00    +0.000 A 
ATOM     15  C   UNL     1       2.494   5.199  18.364  0.00  0.00    +0.000 A 
ATOM     16  H   UNL     1       4.824   4.505  16.064  0.00  0.00    +0.000 HD
ENDBRANCH   2   5
BRANCH   3  17
ATOM     17  C   UNL     1       0.951   9.728  19.803  0.00  0.00    +0.000 C 
BRANCH  17  18
ATOM     18  C   UNL     1      -0.272  10.244  19.094  0.00  0.00    +0.000 A 
ATOM     19  C   UNL     1      -1.057  11.241  19.692  0.00  0.00    +0.000 A 
ATOM     20  C   UNL     1      -2.193  11.731  19.046  0.00  0.00    +0.000 A 
ATOM     21  C   UNL     1      -2.566  11.214  17.808  0.00  0.00    +0.000 A 
ATOM     22  C   UNL     1      -1.794  10.217  17.205  0.00  0.00    +0.000 A 
ATOM     23  C   UNL     1      -0.663   9.718  17.853  0.00  0.00    +0.000 A 
ATOM     24  O   UNL     1      -2.092   9.675  15.981  0.00  0.00    +0.000 OA
ATOM     25  C   UNL     1      -3.021  10.494  15.262  0.00  0.00    +0.000 C 
ATOM     26  C   UNL     1      -4.169  10.925  16.160  0.00  0.00    +0.000 C 
ATOM     27  O   UNL     1      -3.697  11.741  17.237  0.00  0.00    +0.000 OA
ENDBRANCH  17  18
ENDBRANCH   3  17
TORSDOF 3
ENDMDL
MODEL 3
REMARK VINA RESULT:      -8.5      0.873      1.586
REMARK  Name = 
REMARK  3 active torsions:
REMARK  status: ('A' for Active; 'I' for Inactive)
REMARK    1  A    between atoms: C_2  and  C_15
REMARK    2  A    between atoms: N_3  and  C_4
REMARK    3  A    between atoms: C_4  and  C_5
REMARK                            x       y       z     vdW  Elec       q    Type
REMARK                         _______ _______ _______ _____ _____    ______ ____
ROOT
ATOM      1  O   UNL     1       4.061   7.587  16.243  0.00  0.00    +0.000 OA
ATOM      2  C   UNL     1       3.665   7.118  17.304  0.00  0.00    +0.000 C 
ATOM      3  N   UNL     1       2.660   7.706  18.037  0.00  0.00    +0.000 N 
ATOM      4  H   UNL     1       2.407   7.361  18.949  0.00  0.00    +0.000 HD
ENDROOT
BRANCH   2   5
ATOM      5  C   UNL     1       4.260   5.863  17.893  0.00  0.00    +0.000 A 
ATOM      6  C   UNL     1       5.558   5.890  18.250  0.00  0.00    +0.000 A 
ATOM      7  C   UNL     1       6.235   4.740  18.876  0.00  0.00    +0.000 A 
ATOM      8  O   UNL     1       7.434   4.787  19.131  0.00  0.00    +0.000 OA
ATOM      9  N   UNL     1       5.472   3.653  19.156  0.00  0.00    +0.000 N 
ATOM     10  C   UNL     1       4.110   3.564  18.846  0.00  0.00    +0.000 A 
ATOM     11  C   UNL     1       3.428   2.394  19.181  0.00  0.00    +0.000 A 
ATOM     12  C   UNL     1       2.079   2.267  18.867  0.00  0.00    +0.000 A 
ATOM     13  C   UNL     1       1.424   3.307  18.216  0.00  0.00    +0.000 A 
ATOM     14  C   UNL     1       2.112   4.480  17.880  0.00  0.00    +0.000 A 
ATOM     15  C   UNL     1       3.468   4.641  18.199  0.00  0.00    +0.000 A 
ATOM     16  H   UNL     1       5.944   2.880  19.603  0.00  0.00    +0.000 HD
ENDBRANCH   2   5
BRANCH   3  17
ATOM     17  C   UNL     1       1.991   8.913  17.606  0.00  0.00    +0.000 C 
BRANCH  17  18
ATOM     18  C   UNL     1       1.135   9.458  18.718  0.00  0.00    +0.000 A 
ATOM     19  C   UNL     1       0.126  10.389  18.431  0.00  0.00    +0.000 A 
ATOM     20  C   UNL     1      -0.677  10.903  19.451  0.00  0.00    +0.000 A 
ATOM     21  C   UNL     1      -0.464  10.506  20.768  0.00  0.00    +0.000 A 
ATOM     22  C   UNL     1       0.541   9.583  21.068  0.00  0.00    +0.000 A 
ATOM     23  C   UNL     1       1.352   9.075  20.051  0.00  0.00    +0.000 A 
ATOM     24  O   UNL     1       0.795   9.134  22.339  0.00  0.00    +0.000 OA
ATOM     25  C   UNL     1      -0.300   9.419  23.218  0.00  0.00    +0.000 C 
ATOM     26  C   UNL     1      -0.779  10.851  23.038  0.00  0.00    +0.000 C 
ATOM     27  O   UNL     1      -1.289  11.056  21.717  0.00  0.00    +0.000 OA
ENDBRANCH  17  18
ENDBRANCH   3  17
TORSDOF 3
ENDMDL
MODEL 4
REMARK VINA RESULT:      -8.3      2.913      3.611
REMARK  Name = 
REMARK  3 active torsions:
REMARK  status: ('A' for Active; 'I' for Inactive)
REMARK    1  A    between atoms: C_2  and  C_15
REMARK    2  A    between atoms: N_3  and  C_4
REMARK    3  A    between atoms: C_4  and  C_5
REMARK                            x       y       z     vdW  Elec       q    Type
REMARK                         _______ _______ _______ _____ _____    ______ ____
ROOT
ATOM      1  O   UNL     1       1.829   7.692  20.447  0.00  0.00    +0.000 OA
ATOM      2  C   UNL     1       2.010   7.884  19.250  0.00  0.00    +0.000 C 
ATOM      3  N   UNL     1       1.561   9.019  18.614  0.00  0.00    +0.000 N 
ATOM      4  H   UNL     1       1.636   9.122  17.615  0.00  0.00    +0.000 HD
ENDROOT
BRANCH   2   5
ATOM      5  C   UNL     1       2.729   6.884  18.381  0.00  0.00    +0.000 A 
ATOM      6  C   UNL     1       3.744   7.329  17.618  0.00  0.00    +0.000 A 
ATOM      7  C   UNL     1       4.548   6.437  16.763  0.00  0.00    +0.000 A 
ATOM      8  O   UNL     1       5.426   6.894  16.038  0.00  0.00    +0.000 OA
ATOM      9  N   UNL     1       4.274   5.108  16.829  0.00  0.00    +0.000 N 
ATOM     10  C   UNL     1       3.257   4.567  17.624  0.00  0.00    +0.000 A 
ATOM     11  C   UNL     1       3.068   3.185  17.609  0.00  0.00    +0.000 A 
ATOM     12  C   UNL     1       2.053   2.619  18.372  0.00  0.00    +0.000 A 
ATOM     13  C   UNL     1       1.230   3.439  19.140  0.00  0.00    +0.000 A 
ATOM     14  C   UNL     1       1.424   4.827  19.151  0.00  0.00    +0.000 A 
ATOM     15  C   UNL     1       2.450   5.422  18.403  0.00  0.00    +0.000 A 
ATOM     16  H   UNL     1       4.846   4.506  16.254  0.00  0.00    +0.000 HD
ENDBRANCH   2   5
BRANCH   3  17
ATOM     17  C   UNL     1       0.854  10.071  19.310  0.00  0.00    +0.000 C 
BRANCH  17  18
ATOM     18  C   UNL     1      -0.501  10.285  18.690  0.00  0.00    +0.000 A 
ATOM     19  C   UNL     1      -0.838   9.621  17.501  0.00  0.00    +0.000 A 
ATOM     20  C   UNL     1      -2.091   9.809  16.915  0.00  0.00    +0.000 A 
ATOM     21  C   UNL     1      -3.009  10.678  17.500  0.00  0.00    +0.000 A 
ATOM     22  C   UNL     1      -2.682  11.349  18.682  0.00  0.00    +0.000 A 
ATOM     23  C   UNL     1      -1.427  11.170  19.265  0.00  0.00    +0.000 A 
ATOM     24  O   UNL     1      -3.542  12.204  19.322  0.00  0.00    +0.000 OA
ATOM     25  C   UNL     1      -4.888  12.027  18.862  0.00  0.00    +0.000 C 
ATOM     26  C   UNL     1      -4.935  11.956  17.344  0.00  0.00    +0.000 C 
ATOM     27  O   UNL     1      -4.217  10.815  16.864  0.00  0.00    +0.000 OA
ENDBRANCH  17  18
ENDBRANCH   3  17
TORSDOF 3
ENDMDL
MODEL 5
REMARK VINA RESULT:      -8.3      2.165      3.354
REMARK  Name = 
REMARK  3 active torsions:
REMARK  status: ('A' for Active; 'I' for Inactive)
REMARK    1  A    between atoms: C_2  and  C_15
REMARK    2  A    between atoms: N_3  and  C_4
REMARK    3  A    between atoms: C_4  and  C_5
REMARK                            x       y       z     vdW  Elec       q    Type
REMARK                         _______ _______ _______ _____ _____    ______ ____
ROOT
ATOM      1  O   UNL     1       0.941   4.887  20.604  0.00  0.00    +0.000 OA
ATOM      2  C   UNL     1       1.978   5.484  20.340  0.00  0.00    +0.000 C 
ATOM      3  N   UNL     1       2.115   6.839  20.541  0.00  0.00    +0.000 N 
ATOM      4  H   UNL     1       2.939   7.332  20.235  0.00  0.00    +0.000 HD
ENDROOT
BRANCH   2   5
ATOM      5  C   UNL     1       3.180   4.780  19.762  0.00  0.00    +0.000 A 
ATOM      6  C   UNL     1       3.518   3.585  20.282  0.00  0.00    +0.000 A 
ATOM      7  C   UNL     1       4.645   2.785  19.770  0.00  0.00    +0.000 A 
ATOM      8  O   UNL     1       4.956   1.729  20.312  0.00  0.00    +0.000 OA
ATOM      9  N   UNL     1       5.299   3.267  18.681  0.00  0.00    +0.000 N 
ATOM     10  C   UNL     1       4.983   4.483  18.066  0.00  0.00    +0.000 A 
ATOM     11  C   UNL     1       5.727   4.877  16.954  0.00  0.00    +0.000 A 
ATOM     12  C   UNL     1       5.451   6.090  16.332  0.00  0.00    +0.000 A 
ATOM     13  C   UNL     1       4.438   6.903  16.831  0.00  0.00    +0.000 A 
ATOM     14  C   UNL     1       3.693   6.504  17.949  0.00  0.00    +0.000 A 
ATOM     15  C   UNL     1       3.941   5.279  18.585  0.00  0.00    +0.000 A 
ATOM     16  H   UNL     1       6.056   2.699  18.328  0.00  0.00    +0.000 HD
ENDBRANCH   2   5
BRANCH   3  17
ATOM     17  C   UNL     1       1.053   7.654  21.086  0.00  0.00    +0.000 C 
BRANCH  17  18
ATOM     18  C   UNL     1       1.086   9.029  20.476  0.00  0.00    +0.000 A 
ATOM     19  C   UNL     1       1.319   9.178  19.100  0.00  0.00    +0.000 A 
ATOM     20  C   UNL     1       1.352  10.446  18.520  0.00  0.00    +0.000 A 
ATOM     21  C   UNL     1       1.174  11.578  19.311  0.00  0.00    +0.000 A 
ATOM     22  C   UNL     1       0.945  11.443  20.684  0.00  0.00    +0.000 A 
ATOM     23  C   UNL     1       0.922  10.176  21.269  0.00  0.00    +0.000 A 
ATOM     24  O   UNL     1       0.743  12.511  21.520  0.00  0.00    +0.000 OA
ATOM     25  C   UNL     1       0.422  13.696  20.781  0.00  0.00    +0.000 C 
ATOM     26  C   UNL     1       1.365  13.869  19.601  0.00  0.00    +0.000 C 
ATOM     27  O   UNL     1       1.223  12.790  18.671  0.00  0.00    +0.000 OA
ENDBRANCH  17  18
ENDBRANCH   3  17
TORSDOF 3
ENDMDL
MODEL 6
REMARK VINA RESULT:      -8.3      1.358      1.407
REMARK  Name = 
REMARK  3 active torsions:
REMARK  status: ('A' for Active; 'I' for Inactive)
REMARK    1  A    between atoms: C_2  and  C_15
REMARK    2  A    between atoms: N_3  and  C_4
REMARK    3  A    between atoms: C_4  and  C_5
REMARK                            x       y       z     vdW  Elec       q    Type
REMARK                         _______ _______ _______ _____ _____    ______ ____
ROOT
ATOM      1  O   UNL     1       4.256   8.050  17.820  0.00  0.00    +0.000 OA
ATOM      2  C   UNL     1       3.375   7.202  17.900  0.00  0.00    +0.000 C 
ATOM      3  N   UNL     1       2.042   7.535  17.984  0.00  0.00    +0.000 N 
ATOM      4  H   UNL     1       1.337   6.833  18.140  0.00  0.00    +0.000 HD
ENDROOT
BRANCH   2   5
ATOM      5  C   UNL     1       3.687   5.727  17.924  0.00  0.00    +0.000 A 
ATOM      6  C   UNL     1       4.468   5.233  16.944  0.00  0.00    +0.000 A 
ATOM      7  C   UNL     1       4.876   3.818  16.889  0.00  0.00    +0.000 A 
ATOM      8  O   UNL     1       5.540   3.398  15.946  0.00  0.00    +0.000 OA
ATOM      9  N   UNL     1       4.493   3.025  17.923  0.00  0.00    +0.000 N 
ATOM     10  C   UNL     1       3.710   3.474  18.992  0.00  0.00    +0.000 A 
ATOM     11  C   UNL     1       3.377   2.566  19.997  0.00  0.00    +0.000 A 
ATOM     12  C   UNL     1       2.583   2.976  21.063  0.00  0.00    +0.000 A 
ATOM     13  C   UNL     1       2.123   4.288  21.113  0.00  0.00    +0.000 A 
ATOM     14  C   UNL     1       2.460   5.197  20.101  0.00  0.00    +0.000 A 
ATOM     15  C   UNL     1       3.272   4.814  19.023  0.00  0.00    +0.000 A 
ATOM     16  H   UNL     1       4.797   2.062  17.882  0.00  0.00    +0.000 HD
ENDBRANCH   2   5
BRANCH   3  17
ATOM     17  C   UNL     1       1.583   8.906  17.974  0.00  0.00    +0.000 C 
BRANCH  17  18
ATOM     18  C   UNL     1       1.103   9.303  19.345  0.00  0.00    +0.000 A 
ATOM     19  C   UNL     1       1.458   8.530  20.460  0.00  0.00    +0.000 A 
ATOM     20  C   UNL     1       1.022   8.887  21.737  0.00  0.00    +0.000 A 
ATOM     21  C   UNL     1       0.212  10.007  21.908  0.00  0.00    +0.000 A 
ATOM     22  C   UNL     1      -0.151  10.782  20.803  0.00  0.00    +0.000 A 
ATOM     23  C   UNL     1       0.275  10.422  19.524  0.00  0.00    +0.000 A 
ATOM     24  O   UNL     1      -0.930  11.906  20.899  0.00  0.00    +0.000 OA
ATOM     25  C   UNL     1      -0.994  12.381  22.249  0.00  0.00    +0.000 C 
ATOM     26  C   UNL     1      -1.257  11.234  23.213  0.00  0.00    +0.000 C 
ATOM     27  O   UNL     1      -0.181  10.292  23.191  0.00  0.00    +0.000 OA
ENDBRANCH  17  18
ENDBRANCH   3  17
TORSDOF 3
ENDMDL
MODEL 7
REMARK VINA RESULT:      -8.2      2.928      7.825
REMARK  Name = 
REMARK  3 active torsions:
REMARK  status: ('A' for Active; 'I' for Inactive)
REMARK    1  A    between atoms: C_2  and  C_15
REMARK    2  A    between atoms: N_3  and  C_4
REMARK    3  A    between atoms: C_4  and  C_5
REMARK                            x       y       z     vdW  Elec       q    Type
REMARK                         _______ _______ _______ _____ _____    ______ ____
ROOT
ATOM      1  O   UNL     1       2.431  10.735  17.524  0.00  0.00    +0.000 OA
ATOM      2  C   UNL     1       1.706  10.081  18.265  0.00  0.00    +0.000 C 
ATOM      3  N   UNL     1       1.880   8.730  18.455  0.00  0.00    +0.000 N 
ATOM      4  H   UNL     1       1.223   8.189  18.994  0.00  0.00    +0.000 HD
ENDROOT
BRANCH   2   5
ATOM      5  C   UNL     1       0.558  10.709  19.015  0.00  0.00    +0.000 A 
ATOM      6  C   UNL     1       0.840  11.386  20.144  0.00  0.00    +0.000 A 
ATOM      7  C   UNL     1      -0.193  12.078  20.936  0.00  0.00    +0.000 A 
ATOM      8  O   UNL     1       0.100  12.634  21.990  0.00  0.00    +0.000 OA
ATOM      9  N   UNL     1      -1.456  12.076  20.438  0.00  0.00    +0.000 N 
ATOM     10  C   UNL     1      -1.819  11.423  19.255  0.00  0.00    +0.000 A 
ATOM     11  C   UNL     1      -3.150  11.488  18.843  0.00  0.00    +0.000 A 
ATOM     12  C   UNL     1      -3.547  10.833  17.683  0.00  0.00    +0.000 A 
ATOM     13  C   UNL     1      -2.611  10.112  16.945  0.00  0.00    +0.000 A 
ATOM     14  C   UNL     1      -1.275  10.049  17.363  0.00  0.00    +0.000 A 
ATOM     15  C   UNL     1      -0.846  10.714  18.521  0.00  0.00    +0.000 A 
ATOM     16  H   UNL     1      -2.150  12.571  20.980  0.00  0.00    +0.000 HD
ENDBRANCH   2   5
BRANCH   3  17
ATOM     17  C   UNL     1       2.935   7.984  17.806  0.00  0.00    +0.000 C 
BRANCH  17  18
ATOM     18  C   UNL     1       2.947   6.562  18.301  0.00  0.00    +0.000 A 
ATOM     19  C   UNL     1       3.594   5.568  17.552  0.00  0.00    +0.000 A 
ATOM     20  C   UNL     1       3.615   4.245  17.998  0.00  0.00    +0.000 A 
ATOM     21  C   UNL     1       2.972   3.902  19.185  0.00  0.00    +0.000 A 
ATOM     22  C   UNL     1       2.320   4.884  19.937  0.00  0.00    +0.000 A 
ATOM     23  C   UNL     1       2.289   6.205  19.488  0.00  0.00    +0.000 A 
ATOM     24  O   UNL     1       1.683   4.621  21.123  0.00  0.00    +0.000 OA
ATOM     25  C   UNL     1       2.086   3.356  21.660  0.00  0.00    +0.000 C 
ATOM     26  C   UNL     1       2.078   2.284  20.582  0.00  0.00    +0.000 C 
ATOM     27  O   UNL     1       3.032   2.583  19.557  0.00  0.00    +0.000 OA
ENDBRANCH  17  18
ENDBRANCH   3  17
TORSDOF 3
ENDMDL
MODEL 8
REMARK VINA RESULT:      -8.1      2.187      3.449
REMARK  Name = 
REMARK  3 active torsions:
REMARK  status: ('A' for Active; 'I' for Inactive)
REMARK    1  A    between atoms: C_2  and  C_15
REMARK    2  A    between atoms: N_3  and  C_4
REMARK    3  A    between atoms: C_4  and  C_5
REMARK                            x       y       z     vdW  Elec       q    Type
REMARK                         _______ _______ _______ _____ _____    ______ ____
ROOT
ATOM      1  O   UNL     1       0.980   4.823  20.538  0.00  0.00    +0.000 OA
ATOM      2  C   UNL     1       1.996   5.306  20.052  0.00  0.00    +0.000 C 
ATOM      3  N   UNL     1       2.390   6.599  20.312  0.00  0.00    +0.000 N 
ATOM      4  H   UNL     1       3.176   7.011  19.836  0.00  0.00    +0.000 HD
ENDROOT
BRANCH   2   5
ATOM      5  C   UNL     1       2.886   4.521  19.123  0.00  0.00    +0.000 A 
ATOM      6  C   UNL     1       2.875   3.179  19.226  0.00  0.00    +0.000 A 
ATOM      7  C   UNL     1       3.669   2.306  18.342  0.00  0.00    +0.000 A 
ATOM      8  O   UNL     1       3.675   1.091  18.509  0.00  0.00    +0.000 OA
ATOM      9  N   UNL     1       4.370   2.909  17.347  0.00  0.00    +0.000 N 
ATOM     10  C   UNL     1       4.403   4.295  17.156  0.00  0.00    +0.000 A 
ATOM     11  C   UNL     1       5.161   4.802  16.100  0.00  0.00    +0.000 A 
ATOM     12  C   UNL     1       5.231   6.175  15.896  0.00  0.00    +0.000 A 
ATOM     13  C   UNL     1       4.548   7.033  16.753  0.00  0.00    +0.000 A 
ATOM     14  C   UNL     1       3.788   6.521  17.814  0.00  0.00    +0.000 A 
ATOM     15  C   UNL     1       3.688   5.139  18.032  0.00  0.00    +0.000 A 
ATOM     16  H   UNL     1       4.893   2.299  16.736  0.00  0.00    +0.000 HD
ENDBRANCH   2   5
BRANCH   3  17
ATOM     17  C   UNL     1       1.642   7.479  21.182  0.00  0.00    +0.000 C 
BRANCH  17  18
ATOM     18  C   UNL     1       1.102   8.647  20.402  0.00  0.00    +0.000 A 
ATOM     19  C   UNL     1       1.543   8.874  19.090  0.00  0.00    +0.000 A 
ATOM     20  C   UNL     1       1.051   9.952  18.353  0.00  0.00    +0.000 A 
ATOM     21  C   UNL     1       0.130  10.825  18.928  0.00  0.00    +0.000 A 
ATOM     22  C   UNL     1      -0.313  10.611  20.236  0.00  0.00    +0.000 A 
ATOM     23  C   UNL     1       0.185   9.539  20.979  0.00  0.00    +0.000 A 
ATOM     24  O   UNL     1      -1.230  11.418  20.859  0.00  0.00    +0.000 OA
ATOM     25  C   UNL     1      -1.932  12.233  19.913  0.00  0.00    +0.000 C 
ATOM     26  C   UNL     1      -0.967  12.865  18.923  0.00  0.00    +0.000 C 
ATOM     27  O   UNL     1      -0.305  11.864  18.145  0.00  0.00    +0.000 OA
ENDBRANCH  17  18
ENDBRANCH   3  17
TORSDOF 3
ENDMDL
MODEL 9
REMARK VINA RESULT:      -8.1      2.873      8.786
REMARK  Name = 
REMARK  3 active torsions:
REMARK  status: ('A' for Active; 'I' for Inactive)
REMARK    1  A    between atoms: C_2  and  C_15
REMARK    2  A    between atoms: N_3  and  C_4
REMARK    3  A    between atoms: C_4  and  C_5
REMARK                            x       y       z     vdW  Elec       q    Type
REMARK                         _______ _______ _______ _____ _____    ______ ____
ROOT
ATOM      1  O   UNL     1      -0.449   9.456  21.449  0.00  0.00    +0.000 OA
ATOM      2  C   UNL     1       0.111   9.611  20.370  0.00  0.00    +0.000 C 
ATOM      3  N   UNL     1       1.168   8.824  19.974  0.00  0.00    +0.000 N 
ATOM      4  H   UNL     1       1.676   9.020  19.126  0.00  0.00    +0.000 HD
ENDROOT
BRANCH   2   5
ATOM      5  C   UNL     1      -0.311  10.684  19.399  0.00  0.00    +0.000 A 
ATOM      6  C   UNL     1      -1.235  10.367  18.473  0.00  0.00    +0.000 A 
ATOM      7  C   UNL     1      -1.757  11.346  17.501  0.00  0.00    +0.000 A 
ATOM      8  O   UNL     1      -2.555  10.999  16.637  0.00  0.00    +0.000 OA
ATOM      9  N   UNL     1      -1.320  12.626  17.621  0.00  0.00    +0.000 N 
ATOM     10  C   UNL     1      -0.387  13.038  18.579  0.00  0.00    +0.000 A 
ATOM     11  C   UNL     1      -0.012  14.381  18.605  0.00  0.00    +0.000 A 
ATOM     12  C   UNL     1       0.929  14.818  19.531  0.00  0.00    +0.000 A 
ATOM     13  C   UNL     1       1.493  13.908  20.421  0.00  0.00    +0.000 A 
ATOM     14  C   UNL     1       1.114  12.559  20.391  0.00  0.00    +0.000 A 
ATOM     15  C   UNL     1       0.156  12.095  19.477  0.00  0.00    +0.000 A 
ATOM     16  H   UNL     1      -1.701  13.290  16.962  0.00  0.00    +0.000 HD
ENDBRANCH   2   5
BRANCH   3  17
ATOM     17  C   UNL     1       1.689   7.753  20.793  0.00  0.00    +0.000 C 
BRANCH  17  18
ATOM     18  C   UNL     1       2.227   6.647  19.925  0.00  0.00    +0.000 A 
ATOM     19  C   UNL     1       2.654   6.930  18.619  0.00  0.00    +0.000 A 
ATOM     20  C   UNL     1       3.157   5.916  17.802  0.00  0.00    +0.000 A 
ATOM     21  C   UNL     1       3.217   4.608  18.276  0.00  0.00    +0.000 A 
ATOM     22  C   UNL     1       2.790   4.313  19.574  0.00  0.00    +0.000 A 
ATOM     23  C   UNL     1       2.278   5.324  20.389  0.00  0.00    +0.000 A 
ATOM     24  O   UNL     1       2.837   3.053  20.112  0.00  0.00    +0.000 OA
ATOM     25  C   UNL     1       3.699   2.196  19.353  0.00  0.00    +0.000 C 
ATOM     26  C   UNL     1       3.426   2.337  17.864  0.00  0.00    +0.000 C 
ATOM     27  O   UNL     1       3.718   3.664  17.415  0.00  0.00    +0.000 OA
ENDBRANCH  17  18
ENDBRANCH   3  17
TORSDOF 3
ENDMDL
