MODEL 1
REMARK VINA RESULT:      -7.6      0.000      0.000
REMARK  Name = 
REMARK  11 active torsions:
REMARK  status: ('A' for Active; 'I' for Inactive)
REMARK    1  A    between atoms: C_1  and  O_2
REMARK    2  A    between atoms: O_2  and  C_3
REMARK    3  A    between atoms: C_6  and  N_7
REMARK    4  A    between atoms: N_7  and  C_8
REMARK    5  A    between atoms: N_7  and  S_20
REMARK    6  A    between atoms: C_8  and  C_9
REMARK    7  A    between atoms: N_11  and  N_12
REMARK    8  A    between atoms: C_13  and  C_14
REMARK    9  A    between atoms: S_20  and  C_23
REMARK   10  A    between atoms: C_29  and  O_30
REMARK   11  A    between atoms: O_30  and  C_31
REMARK                            x       y       z     vdW  Elec       q    Type
REMARK                         _______ _______ _______ _____ _____    ______ ____
ROOT
ATOM      1  N   UNL     1       4.383   5.773  17.705  0.00  0.00    +0.000 N 
ENDROOT
BRANCH   1   5
ATOM      2  C   UNL     1       6.553   4.568  14.239  0.00  0.00    +0.000 A 
ATOM      3  C   UNL     1       5.315   4.005  14.548  0.00  0.00    +0.000 A 
ATOM      4  C   UNL     1       4.594   4.424  15.663  0.00  0.00    +0.000 A 
ATOM      5  C   UNL     1       5.091   5.437  16.484  0.00  0.00    +0.000 A 
ATOM      6  C   UNL     1       6.334   6.041  16.167  0.00  0.00    +0.000 A 
ATOM      7  C   UNL     1       7.058   5.581  15.049  0.00  0.00    +0.000 A 
BRANCH   2   9
ATOM      8  C   UNL     1       6.338   3.340  12.206  0.00  0.00    +0.000 C 
ATOM      9  O   UNL     1       7.158   4.050  13.128  0.00  0.00    +0.000 OA
ENDBRANCH   2   9
BRANCH   6  10
ATOM     10  O   UNL     1       6.757   7.090  16.956  0.00  0.00    +0.000 OA
ATOM     11  C   UNL     1       7.714   6.786  17.974  0.00  0.00    +0.000 C 
ENDBRANCH   6  10
ENDBRANCH   1   5
BRANCH   1  12
ATOM     12  S   UNL     1       4.685   4.715  19.046  0.00  0.00    +0.000 S 
ATOM     13  O   UNL     1       5.714   3.759  18.693  0.00  0.00    +0.000 OA
ATOM     14  O   UNL     1       4.844   5.558  20.217  0.00  0.00    +0.000 OA
BRANCH  12  15
ATOM     15  C   UNL     1       3.173   3.765  19.320  0.00  0.00    +0.000 A 
ATOM     16  C   UNL     1       2.331   4.088  20.392  0.00  0.00    +0.000 A 
ATOM     17  C   UNL     1       1.093   3.445  20.529  0.00  0.00    +0.000 A 
ATOM     18  C   UNL     1       0.681   2.503  19.589  0.00  0.00    +0.000 A 
ATOM     19  C   UNL     1       1.499   2.207  18.499  0.00  0.00    +0.000 A 
ATOM     20  C   UNL     1       2.738   2.845  18.357  0.00  0.00    +0.000 A 
ENDBRANCH  12  15
ENDBRANCH   1  12
BRANCH   1  21
ATOM     21  C   UNL     1       2.971   6.228  17.635  0.00  0.00    +0.000 C 
BRANCH  21  22
ATOM     22  C   UNL     1       2.547   7.514  18.313  0.00  0.00    +0.000 C 
ATOM     23  O   UNL     1       2.436   8.550  17.650  0.00  0.00    +0.000 OA
ATOM     24  N   UNL     1       2.229   7.422  19.663  0.00  0.00    +0.000 N 
ATOM     25  H   UNL     1       2.390   6.570  20.192  0.00  0.00    +0.000 HD
BRANCH  24  26
ATOM     26  N   UNL     1       1.724   8.539  20.271  0.00  0.00    +0.000 NA
ATOM     27  C   UNL     1       0.513   8.507  20.727  0.00  0.00    +0.000 C 
BRANCH  27  28
ATOM     28  C   UNL     1      -0.064   9.695  21.400  0.00  0.00    +0.000 A 
ATOM     29  C   UNL     1      -0.341  10.869  20.701  0.00  0.00    +0.000 A 
ATOM     30  C   UNL     1      -0.871  11.964  21.383  0.00  0.00    +0.000 A 
ATOM     31  C   UNL     1      -1.104  11.844  22.744  0.00  0.00    +0.000 A 
ATOM     32  N   UNL     1      -0.848  10.719  23.450  0.00  0.00    +0.000 NA
ATOM     33  C   UNL     1      -0.335   9.667  22.762  0.00  0.00    +0.000 A 
ENDBRANCH  27  28
ENDBRANCH  24  26
ENDBRANCH  21  22
ENDBRANCH   1  21
TORSDOF 9
ENDMDL
MODEL 2
REMARK VINA RESULT:      -7.2      2.071      2.447
REMARK  Name = 
REMARK  11 active torsions:
REMARK  status: ('A' for Active; 'I' for Inactive)
REMARK    1  A    between atoms: C_1  and  O_2
REMARK    2  A    between atoms: O_2  and  C_3
REMARK    3  A    between atoms: C_6  and  N_7
REMARK    4  A    between atoms: N_7  and  C_8
REMARK    5  A    between atoms: N_7  and  S_20
REMARK    6  A    between atoms: C_8  and  C_9
REMARK    7  A    between atoms: N_11  and  N_12
REMARK    8  A    between atoms: C_13  and  C_14
REMARK    9  A    between atoms: S_20  and  C_23
REMARK   10  A    between atoms: C_29  and  O_30
REMARK   11  A    between atoms: O_30  and  C_31
REMARK                            x       y       z     vdW  Elec       q    Type
REMARK                         _______ _______ _______ _____ _____    ______ ____
ROOT
ATOM      1  N   UNL     1       4.679   4.246  18.000  0.00  0.00    +0.000 N 
ENDROOT
BRANCH   1   5
ATOM      2  C   UNL     1       7.004   4.959  14.499  0.00  0.00    +0.000 A 
ATOM      3  C   UNL     1       5.615   4.854  14.434  0.00  0.00    +0.000 A 
ATOM      4  C   UNL     1       4.855   4.654  15.585  0.00  0.00    +0.000 A 
ATOM      5  C   UNL     1       5.474   4.576  16.833  0.00  0.00    +0.000 A 
ATOM      6  C   UNL     1       6.883   4.711  16.920  0.00  0.00    +0.000 A 
ATOM      7  C   UNL     1       7.632   4.886  15.738  0.00  0.00    +0.000 A 
BRANCH   2   9
ATOM      8  C   UNL     1       7.190   4.324  12.208  0.00  0.00    +0.000 C 
ATOM      9  O   UNL     1       7.623   5.138  13.293  0.00  0.00    +0.000 OA
ENDBRANCH   2   9
BRANCH   6  10
ATOM     10  O   UNL     1       7.452   4.706  18.176  0.00  0.00    +0.000 OA
ATOM     11  C   UNL     1       7.801   5.976  18.732  0.00  0.00    +0.000 C 
ENDBRANCH   6  10
ENDBRANCH   1   5
BRANCH   1  12
ATOM     12  S   UNL     1       3.387   3.124  17.717  0.00  0.00    +0.000 S 
ATOM     13  O   UNL     1       2.421   3.708  16.811  0.00  0.00    +0.000 OA
ATOM     14  O   UNL     1       4.004   1.847  17.402  0.00  0.00    +0.000 OA
BRANCH  12  15
ATOM     15  C   UNL     1       2.537   2.888  19.294  0.00  0.00    +0.000 A 
ATOM     16  C   UNL     1       3.259   2.476  20.421  0.00  0.00    +0.000 A 
ATOM     17  C   UNL     1       2.633   2.423  21.674  0.00  0.00    +0.000 A 
ATOM     18  C   UNL     1       1.300   2.803  21.811  0.00  0.00    +0.000 A 
ATOM     19  C   UNL     1       0.589   3.251  20.699  0.00  0.00    +0.000 A 
ATOM     20  C   UNL     1       1.208   3.306  19.444  0.00  0.00    +0.000 A 
ENDBRANCH  12  15
ENDBRANCH   1  12
BRANCH   1  21
ATOM     21  C   UNL     1       4.316   5.312  18.968  0.00  0.00    +0.000 C 
BRANCH  21  22
ATOM     22  C   UNL     1       3.630   6.575  18.495  0.00  0.00    +0.000 C 
ATOM     23  O   UNL     1       3.999   7.120  17.450  0.00  0.00    +0.000 OA
ATOM     24  N   UNL     1       2.549   7.009  19.253  0.00  0.00    +0.000 N 
ATOM     25  H   UNL     1       2.311   6.575  20.140  0.00  0.00    +0.000 HD
BRANCH  24  26
ATOM     26  N   UNL     1       1.833   8.076  18.781  0.00  0.00    +0.000 NA
ATOM     27  C   UNL     1       1.387   8.950  19.625  0.00  0.00    +0.000 C 
BRANCH  27  28
ATOM     28  C   UNL     1       0.616  10.123  19.149  0.00  0.00    +0.000 A 
ATOM     29  C   UNL     1      -0.634   9.981  18.547  0.00  0.00    +0.000 A 
ATOM     30  C   UNL     1      -1.314  11.116  18.104  0.00  0.00    +0.000 A 
ATOM     31  C   UNL     1      -0.715  12.353  18.279  0.00  0.00    +0.000 A 
ATOM     32  N   UNL     1       0.494  12.524  18.861  0.00  0.00    +0.000 NA
ATOM     33  C   UNL     1       1.133  11.404  19.285  0.00  0.00    +0.000 A 
ENDBRANCH  27  28
ENDBRANCH  24  26
ENDBRANCH  21  22
ENDBRANCH   1  21
TORSDOF 9
ENDMDL
MODEL 3
REMARK VINA RESULT:      -7.2      0.735      1.280
REMARK  Name = 
REMARK  11 active torsions:
REMARK  status: ('A' for Active; 'I' for Inactive)
REMARK    1  A    between atoms: C_1  and  O_2
REMARK    2  A    between atoms: O_2  and  C_3
REMARK    3  A    between atoms: C_6  and  N_7
REMARK    4  A    between atoms: N_7  and  C_8
REMARK    5  A    between atoms: N_7  and  S_20
REMARK    6  A    between atoms: C_8  and  C_9
REMARK    7  A    between atoms: N_11  and  N_12
REMARK    8  A    between atoms: C_13  and  C_14
REMARK    9  A    between atoms: S_20  and  C_23
REMARK   10  A    between atoms: C_29  and  O_30
REMARK   11  A    between atoms: O_30  and  C_31
REMARK                            x       y       z     vdW  Elec       q    Type
REMARK                         _______ _______ _______ _____ _____    ______ ____
ROOT
ATOM      1  N   UNL     1       4.193   6.024  17.814  0.00  0.00    +0.000 N 
ENDROOT
BRANCH   1   5
ATOM      2  C   UNL     1       6.677   4.648  14.635  0.00  0.00    +0.000 A 
ATOM      3  C   UNL     1       5.380   4.163  14.799  0.00  0.00    +0.000 A 
ATOM      4  C   UNL     1       4.560   4.638  15.820  0.00  0.00    +0.000 A 
ATOM      5  C   UNL     1       5.017   5.631  16.687  0.00  0.00    +0.000 A 
ATOM      6  C   UNL     1       6.323   6.157  16.514  0.00  0.00    +0.000 A 
ATOM      7  C   UNL     1       7.143   5.640  15.492  0.00  0.00    +0.000 A 
BRANCH   2   9
ATOM      8  C   UNL     1       6.634   3.648  12.470  0.00  0.00    +0.000 C 
ATOM      9  O   UNL     1       7.376   4.081  13.605  0.00  0.00    +0.000 OA
ENDBRANCH   2   9
BRANCH   6  10
ATOM     10  O   UNL     1       6.713   7.190  17.341  0.00  0.00    +0.000 OA
ATOM     11  C   UNL     1       7.878   6.971  18.140  0.00  0.00    +0.000 C 
ENDBRANCH   6  10
ENDBRANCH   1   5
BRANCH   1  12
ATOM     12  S   UNL     1       4.264   4.961  19.183  0.00  0.00    +0.000 S 
ATOM     13  O   UNL     1       5.444   4.128  19.095  0.00  0.00    +0.000 OA
ATOM     14  O   UNL     1       4.034   5.779  20.361  0.00  0.00    +0.000 OA
BRANCH  12  15
ATOM     15  C   UNL     1       2.841   3.853  19.065  0.00  0.00    +0.000 A 
ATOM     16  C   UNL     1       2.915   2.706  18.265  0.00  0.00    +0.000 A 
ATOM     17  C   UNL     1       1.867   1.775  18.277  0.00  0.00    +0.000 A 
ATOM     18  C   UNL     1       0.760   1.971  19.101  0.00  0.00    +0.000 A 
ATOM     19  C   UNL     1       0.702   3.092  19.928  0.00  0.00    +0.000 A 
ATOM     20  C   UNL     1       1.745   4.026  19.920  0.00  0.00    +0.000 A 
ENDBRANCH  12  15
ENDBRANCH   1  12
BRANCH   1  21
ATOM     21  C   UNL     1       2.833   6.569  17.576  0.00  0.00    +0.000 C 
BRANCH  21  22
ATOM     22  C   UNL     1       2.418   7.889  18.192  0.00  0.00    +0.000 C 
ATOM     23  O   UNL     1       2.376   8.906  17.492  0.00  0.00    +0.000 OA
ATOM     24  N   UNL     1       2.030   7.850  19.526  0.00  0.00    +0.000 N 
ATOM     25  H   UNL     1       2.137   7.011  20.088  0.00  0.00    +0.000 HD
BRANCH  24  26
ATOM     26  N   UNL     1       1.533   9.002  20.073  0.00  0.00    +0.000 NA
ATOM     27  C   UNL     1       0.565   8.918  20.928  0.00  0.00    +0.000 C 
BRANCH  27  28
ATOM     28  C   UNL     1       0.008  10.144  21.549  0.00  0.00    +0.000 A 
ATOM     29  C   UNL     1      -0.685  10.101  22.758  0.00  0.00    +0.000 A 
ATOM     30  C   UNL     1      -1.202  11.281  23.293  0.00  0.00    +0.000 A 
ATOM     31  C   UNL     1      -1.006  12.463  22.596  0.00  0.00    +0.000 A 
ATOM     32  N   UNL     1      -0.337  12.538  21.423  0.00  0.00    +0.000 NA
ATOM     33  C   UNL     1       0.157  11.375  20.925  0.00  0.00    +0.000 A 
ENDBRANCH  27  28
ENDBRANCH  24  26
ENDBRANCH  21  22
ENDBRANCH   1  21
TORSDOF 9
ENDMDL
MODEL 4
REMARK VINA RESULT:      -7.1      3.604      7.745
REMARK  Name = 
REMARK  11 active torsions:
REMARK  status: ('A' for Active; 'I' for Inactive)
REMARK    1  A    between atoms: C_1  and  O_2
REMARK    2  A    between atoms: O_2  and  C_3
REMARK    3  A    between atoms: C_6  and  N_7
REMARK    4  A    between atoms: N_7  and  C_8
REMARK    5  A    between atoms: N_7  and  S_20
REMARK    6  A    between atoms: C_8  and  C_9
REMARK    7  A    between atoms: N_11  and  N_12
REMARK    8  A    between atoms: C_13  and  C_14
REMARK    9  A    between atoms: S_20  and  C_23
REMARK   10  A    between atoms: C_29  and  O_30
REMARK   11  A    between atoms: O_30  and  C_31
REMARK                            x       y       z     vdW  Elec       q    Type
REMARK                         _______ _______ _______ _____ _____    ______ ____
ROOT
ATOM      1  N   UNL     1       5.292   5.611  16.741  0.00  0.00    +0.000 N 
ENDROOT
BRANCH   1   5
ATOM      2  C   UNL     1       2.939   4.929  20.230  0.00  0.00    +0.000 A 
ATOM      3  C   UNL     1       4.030   4.116  19.925  0.00  0.00    +0.000 A 
ATOM      4  C   UNL     1       4.816   4.361  18.801  0.00  0.00    +0.000 A 
ATOM      5  C   UNL     1       4.537   5.446  17.969  0.00  0.00    +0.000 A 
ATOM      6  C   UNL     1       3.450   6.301  18.282  0.00  0.00    +0.000 A 
ATOM      7  C   UNL     1       2.653   6.015  19.409  0.00  0.00    +0.000 A 
BRANCH   2   9
ATOM      8  C   UNL     1       2.143   3.171  21.632  0.00  0.00    +0.000 C 
ATOM      9  O   UNL     1       2.246   4.563  21.351  0.00  0.00    +0.000 OA
ENDBRANCH   2   9
BRANCH   6  10
ATOM     10  O   UNL     1       3.251   7.405  17.481  0.00  0.00    +0.000 OA
ATOM     11  C   UNL     1       2.416   8.440  18.006  0.00  0.00    +0.000 C 
ENDBRANCH   6  10
ENDBRANCH   1   5
BRANCH   1  12
ATOM     12  S   UNL     1       6.227   4.231  16.261  0.00  0.00    +0.000 S 
ATOM     13  O   UNL     1       7.529   4.278  16.892  0.00  0.00    +0.000 OA
ATOM     14  O   UNL     1       5.375   3.067  16.432  0.00  0.00    +0.000 OA
BRANCH  12  15
ATOM     15  C   UNL     1       6.512   4.380  14.482  0.00  0.00    +0.000 A 
ATOM     16  C   UNL     1       7.565   5.171  14.008  0.00  0.00    +0.000 A 
ATOM     17  C   UNL     1       7.873   5.181  12.641  0.00  0.00    +0.000 A 
ATOM     18  C   UNL     1       7.152   4.387  11.751  0.00  0.00    +0.000 A 
ATOM     19  C   UNL     1       6.129   3.568  12.225  0.00  0.00    +0.000 A 
ATOM     20  C   UNL     1       5.815   3.554  13.590  0.00  0.00    +0.000 A 
ENDBRANCH  12  15
ENDBRANCH   1  12
BRANCH   1  21
ATOM     21  C   UNL     1       5.979   6.898  16.468  0.00  0.00    +0.000 C 
BRANCH  21  22
ATOM     22  C   UNL     1       6.955   7.473  17.471  0.00  0.00    +0.000 C 
ATOM     23  O   UNL     1       7.435   6.746  18.347  0.00  0.00    +0.000 OA
ATOM     24  N   UNL     1       7.313   8.804  17.289  0.00  0.00    +0.000 N 
ATOM     25  H   UNL     1       6.853   9.389  16.598  0.00  0.00    +0.000 HD
BRANCH  24  26
ATOM     26  N   UNL     1       8.287   9.314  18.105  0.00  0.00    +0.000 NA
ATOM     27  C   UNL     1       8.771  10.485  17.839  0.00  0.00    +0.000 C 
BRANCH  27  28
ATOM     28  C   UNL     1       9.820  11.073  18.706  0.00  0.00    +0.000 A 
ATOM     29  C   UNL     1       9.616  11.268  20.071  0.00  0.00    +0.000 A 
ATOM     30  C   UNL     1      10.630  11.839  20.841  0.00  0.00    +0.000 A 
ATOM     31  C   UNL     1      11.813  12.195  20.213  0.00  0.00    +0.000 A 
ATOM     32  N   UNL     1      12.043  12.017  18.892  0.00  0.00    +0.000 NA
ATOM     33  C   UNL     1      11.041  11.458  18.167  0.00  0.00    +0.000 A 
ENDBRANCH  27  28
ENDBRANCH  24  26
ENDBRANCH  21  22
ENDBRANCH   1  21
TORSDOF 9
ENDMDL
MODEL 5
REMARK VINA RESULT:      -7.0      1.658      1.961
REMARK  Name = 
REMARK  11 active torsions:
REMARK  status: ('A' for Active; 'I' for Inactive)
REMARK    1  A    between atoms: C_1  and  O_2
REMARK    2  A    between atoms: O_2  and  C_3
REMARK    3  A    between atoms: C_6  and  N_7
REMARK    4  A    between atoms: N_7  and  C_8
REMARK    5  A    between atoms: N_7  and  S_20
REMARK    6  A    between atoms: C_8  and  C_9
REMARK    7  A    between atoms: N_11  and  N_12
REMARK    8  A    between atoms: C_13  and  C_14
REMARK    9  A    between atoms: S_20  and  C_23
REMARK   10  A    between atoms: C_29  and  O_30
REMARK   11  A    between atoms: O_30  and  C_31
REMARK                            x       y       z     vdW  Elec       q    Type
REMARK                         _______ _______ _______ _____ _____    ______ ____
ROOT
ATOM      1  N   UNL     1       4.426   5.706  17.709  0.00  0.00    +0.000 N 
ENDROOT
BRANCH   1   5
ATOM      2  C   UNL     1       6.569   4.690  14.167  0.00  0.00    +0.000 A 
ATOM      3  C   UNL     1       5.350   4.085  14.472  0.00  0.00    +0.000 A 
ATOM      4  C   UNL     1       4.637   4.442  15.614  0.00  0.00    +0.000 A 
ATOM      5  C   UNL     1       5.122   5.436  16.465  0.00  0.00    +0.000 A 
ATOM      6  C   UNL     1       6.344   6.084  16.153  0.00  0.00    +0.000 A 
ATOM      7  C   UNL     1       7.061   5.685  15.006  0.00  0.00    +0.000 A 
BRANCH   2   9
ATOM      8  C   UNL     1       6.421   3.339  12.207  0.00  0.00    +0.000 C 
ATOM      9  O   UNL     1       7.169   4.231  13.027  0.00  0.00    +0.000 OA
ENDBRANCH   2   9
BRANCH   6  10
ATOM     10  O   UNL     1       6.753   7.113  16.974  0.00  0.00    +0.000 OA
ATOM     11  C   UNL     1       7.743   6.798  17.957  0.00  0.00    +0.000 C 
ENDBRANCH   6  10
ENDBRANCH   1   5
BRANCH   1  12
ATOM     12  S   UNL     1       4.833   4.652  19.025  0.00  0.00    +0.000 S 
ATOM     13  O   UNL     1       5.706   3.598  18.555  0.00  0.00    +0.000 OA
ATOM     14  O   UNL     1       5.243   5.501  20.129  0.00  0.00    +0.000 OA
BRANCH  12  15
ATOM     15  C   UNL     1       3.301   3.854  19.555  0.00  0.00    +0.000 A 
ATOM     16  C   UNL     1       2.807   2.752  18.847  0.00  0.00    +0.000 A 
ATOM     17  C   UNL     1       1.697   2.048  19.333  0.00  0.00    +0.000 A 
ATOM     18  C   UNL     1       1.095   2.423  20.533  0.00  0.00    +0.000 A 
ATOM     19  C   UNL     1       1.608   3.495  21.260  0.00  0.00    +0.000 A 
ATOM     20  C   UNL     1       2.717   4.204  20.780  0.00  0.00    +0.000 A 
ENDBRANCH  12  15
ENDBRANCH   1  12
BRANCH   1  21
ATOM     21  C   UNL     1       2.986   6.068  17.682  0.00  0.00    +0.000 C 
BRANCH  21  22
ATOM     22  C   UNL     1       2.496   7.314  18.388  0.00  0.00    +0.000 C 
ATOM     23  O   UNL     1       2.481   7.355  19.622  0.00  0.00    +0.000 OA
ATOM     24  N   UNL     1       2.155   8.388  17.574  0.00  0.00    +0.000 N 
ATOM     25  H   UNL     1       2.119   8.300  16.563  0.00  0.00    +0.000 HD
BRANCH  24  26
ATOM     26  N   UNL     1       1.828   9.567  18.187  0.00  0.00    +0.000 NA
ATOM     27  C   UNL     1       0.584   9.921  18.233  0.00  0.00    +0.000 C 
BRANCH  27  28
ATOM     28  C   UNL     1       0.191  11.187  18.897  0.00  0.00    +0.000 A 
ATOM     29  C   UNL     1      -1.079  11.362  19.446  0.00  0.00    +0.000 A 
ATOM     30  C   UNL     1      -1.404  12.578  20.048  0.00  0.00    +0.000 A 
ATOM     31  C   UNL     1      -0.443  13.576  20.078  0.00  0.00    +0.000 A 
ATOM     32  N   UNL     1       0.797  13.437  19.558  0.00  0.00    +0.000 NA
ATOM     33  C   UNL     1       1.088  12.243  18.979  0.00  0.00    +0.000 A 
ENDBRANCH  27  28
ENDBRANCH  24  26
ENDBRANCH  21  22
ENDBRANCH   1  21
TORSDOF 9
ENDMDL
MODEL 6
REMARK VINA RESULT:      -6.9      1.592      2.042
REMARK  Name = 
REMARK  11 active torsions:
REMARK  status: ('A' for Active; 'I' for Inactive)
REMARK    1  A    between atoms: C_1  and  O_2
REMARK    2  A    between atoms: O_2  and  C_3
REMARK    3  A    between atoms: C_6  and  N_7
REMARK    4  A    between atoms: N_7  and  C_8
REMARK    5  A    between atoms: N_7  and  S_20
REMARK    6  A    between atoms: C_8  and  C_9
REMARK    7  A    between atoms: N_11  and  N_12
REMARK    8  A    between atoms: C_13  and  C_14
REMARK    9  A    between atoms: S_20  and  C_23
REMARK   10  A    between atoms: C_29  and  O_30
REMARK   11  A    between atoms: O_30  and  C_31
REMARK                            x       y       z     vdW  Elec       q    Type
REMARK                         _______ _______ _______ _____ _____    ______ ____
ROOT
ATOM      1  N   UNL     1       3.755   5.844  17.732  0.00  0.00    +0.000 N 
ENDROOT
BRANCH   1   5
ATOM      2  C   UNL     1       7.154   4.954  15.318  0.00  0.00    +0.000 A 
ATOM      3  C   UNL     1       6.000   5.509  14.765  0.00  0.00    +0.000 A 
ATOM      4  C   UNL     1       4.904   5.828  15.562  0.00  0.00    +0.000 A 
ATOM      5  C   UNL     1       4.949   5.619  16.940  0.00  0.00    +0.000 A 
ATOM      6  C   UNL     1       6.126   5.084  17.523  0.00  0.00    +0.000 A 
ATOM      7  C   UNL     1       7.212   4.743  16.692  0.00  0.00    +0.000 A 
BRANCH   2   9
ATOM      8  C   UNL     1       7.936   5.073  13.068  0.00  0.00    +0.000 C 
ATOM      9  O   UNL     1       8.145   4.674  14.418  0.00  0.00    +0.000 OA
ENDBRANCH   2   9
BRANCH   6  10
ATOM     10  O   UNL     1       6.164   4.962  18.896  0.00  0.00    +0.000 OA
ATOM     11  C   UNL     1       7.291   5.534  19.565  0.00  0.00    +0.000 C 
ENDBRANCH   6  10
ENDBRANCH   1   5
BRANCH   1  12
ATOM     12  S   UNL     1       2.590   4.560  17.690  0.00  0.00    +0.000 S 
ATOM     13  O   UNL     1       1.274   5.101  17.424  0.00  0.00    +0.000 OA
ATOM     14  O   UNL     1       3.140   3.524  16.833  0.00  0.00    +0.000 OA
BRANCH  12  15
ATOM     15  C   UNL     1       2.529   3.848  19.350  0.00  0.00    +0.000 A 
ATOM     16  C   UNL     1       1.342   3.907  20.091  0.00  0.00    +0.000 A 
ATOM     17  C   UNL     1       1.250   3.240  21.320  0.00  0.00    +0.000 A 
ATOM     18  C   UNL     1       2.324   2.494  21.799  0.00  0.00    +0.000 A 
ATOM     19  C   UNL     1       3.494   2.400  21.045  0.00  0.00    +0.000 A 
ATOM     20  C   UNL     1       3.593   3.065  19.817  0.00  0.00    +0.000 A 
ENDBRANCH  12  15
ENDBRANCH   1  12
BRANCH   1  21
ATOM     21  C   UNL     1       3.130   7.191  17.753  0.00  0.00    +0.000 C 
BRANCH  21  22
ATOM     22  C   UNL     1       2.323   7.641  18.952  0.00  0.00    +0.000 C 
ATOM     23  O   UNL     1       2.530   7.133  20.058  0.00  0.00    +0.000 OA
ATOM     24  N   UNL     1       1.427   8.681  18.734  0.00  0.00    +0.000 N 
ATOM     25  H   UNL     1       1.236   9.034  17.801  0.00  0.00    +0.000 HD
BRANCH  24  26
ATOM     26  N   UNL     1       0.774   9.193  19.824  0.00  0.00    +0.000 NA
ATOM     27  C   UNL     1       0.257  10.376  19.742  0.00  0.00    +0.000 C 
BRANCH  27  28
ATOM     28  C   UNL     1      -0.464  10.958  20.898  0.00  0.00    +0.000 A 
ATOM     29  C   UNL     1      -1.475  11.904  20.729  0.00  0.00    +0.000 A 
ATOM     30  C   UNL     1      -2.115  12.432  21.851  0.00  0.00    +0.000 A 
ATOM     31  C   UNL     1      -1.717  11.993  23.104  0.00  0.00    +0.000 A 
ATOM     32  N   UNL     1      -0.742  11.076  23.301  0.00  0.00    +0.000 NA
ATOM     33  C   UNL     1      -0.138  10.577  22.193  0.00  0.00    +0.000 A 
ENDBRANCH  27  28
ENDBRANCH  24  26
ENDBRANCH  21  22
ENDBRANCH   1  21
TORSDOF 9
ENDMDL
MODEL 7
REMARK VINA RESULT:      -6.9      3.422      7.486
REMARK  Name = 
REMARK  11 active torsions:
REMARK  status: ('A' for Active; 'I' for Inactive)
REMARK    1  A    between atoms: C_1  and  O_2
REMARK    2  A    between atoms: O_2  and  C_3
REMARK    3  A    between atoms: C_6  and  N_7
REMARK    4  A    between atoms: N_7  and  C_8
REMARK    5  A    between atoms: N_7  and  S_20
REMARK    6  A    between atoms: C_8  and  C_9
REMARK    7  A    between atoms: N_11  and  N_12
REMARK    8  A    between atoms: C_13  and  C_14
REMARK    9  A    between atoms: S_20  and  C_23
REMARK   10  A    between atoms: C_29  and  O_30
REMARK   11  A    between atoms: O_30  and  C_31
REMARK                            x       y       z     vdW  Elec       q    Type
REMARK                         _______ _______ _______ _____ _____    ______ ____
ROOT
ATOM      1  N   UNL     1       5.617   5.421  16.840  0.00  0.00    +0.000 N 
ENDROOT
BRANCH   1   5
ATOM      2  C   UNL     1       2.644   7.133  19.371  0.00  0.00    +0.000 A 
ATOM      3  C   UNL     1       2.963   7.707  18.141  0.00  0.00    +0.000 A 
ATOM      4  C   UNL     1       3.911   7.127  17.302  0.00  0.00    +0.000 A 
ATOM      5  C   UNL     1       4.547   5.941  17.671  0.00  0.00    +0.000 A 
ATOM      6  C   UNL     1       4.213   5.328  18.905  0.00  0.00    +0.000 A 
ATOM      7  C   UNL     1       3.270   5.949  19.749  0.00  0.00    +0.000 A 
BRANCH   2   9
ATOM      8  C   UNL     1       1.274   9.073  19.591  0.00  0.00    +0.000 C 
ATOM      9  O   UNL     1       1.710   7.817  20.099  0.00  0.00    +0.000 OA
ENDBRANCH   2   9
BRANCH   6  10
ATOM     10  O   UNL     1       4.804   4.118  19.201  0.00  0.00    +0.000 OA
ATOM     11  C   UNL     1       3.937   3.059  19.613  0.00  0.00    +0.000 C 
ENDBRANCH   6  10
ENDBRANCH   1   5
BRANCH   1  12
ATOM     12  S   UNL     1       5.203   4.028  15.894  0.00  0.00    +0.000 S 
ATOM     13  O   UNL     1       5.816   2.848  16.466  0.00  0.00    +0.000 OA
ATOM     14  O   UNL     1       3.766   4.075  15.685  0.00  0.00    +0.000 OA
BRANCH  12  15
ATOM     15  C   UNL     1       5.948   4.257  14.263  0.00  0.00    +0.000 A 
ATOM     16  C   UNL     1       7.106   5.033  14.128  0.00  0.00    +0.000 A 
ATOM     17  C   UNL     1       7.763   5.101  12.892  0.00  0.00    +0.000 A 
ATOM     18  C   UNL     1       7.285   4.380  11.799  0.00  0.00    +0.000 A 
ATOM     19  C   UNL     1       6.155   3.576  11.941  0.00  0.00    +0.000 A 
ATOM     20  C   UNL     1       5.493   3.503  13.173  0.00  0.00    +0.000 A 
ENDBRANCH  12  15
ENDBRANCH   1  12
BRANCH   1  21
ATOM     21  C   UNL     1       7.002   5.368  17.373  0.00  0.00    +0.000 C 
BRANCH  21  22
ATOM     22  C   UNL     1       7.546   6.508  18.206  0.00  0.00    +0.000 C 
ATOM     23  O   UNL     1       7.911   6.301  19.367  0.00  0.00    +0.000 OA
ATOM     24  N   UNL     1       7.673   7.734  17.563  0.00  0.00    +0.000 N 
ATOM     25  H   UNL     1       7.306   7.886  16.628  0.00  0.00    +0.000 HD
BRANCH  24  26
ATOM     26  N   UNL     1       8.277   8.751  18.252  0.00  0.00    +0.000 NA
ATOM     27  C   UNL     1       8.458   9.885  17.657  0.00  0.00    +0.000 C 
BRANCH  27  28
ATOM     28  C   UNL     1       9.101  11.012  18.375  0.00  0.00    +0.000 A 
ATOM     29  C   UNL     1       9.111  12.304  17.850  0.00  0.00    +0.000 A 
ATOM     30  C   UNL     1       9.741  13.326  18.559  0.00  0.00    +0.000 A 
ATOM     31  C   UNL     1      10.341  13.017  19.770  0.00  0.00    +0.000 A 
ATOM     32  N   UNL     1      10.347  11.776  20.306  0.00  0.00    +0.000 NA
ATOM     33  C   UNL     1       9.725  10.799  19.597  0.00  0.00    +0.000 A 
ENDBRANCH  27  28
ENDBRANCH  24  26
ENDBRANCH  21  22
ENDBRANCH   1  21
TORSDOF 9
ENDMDL
MODEL 8
REMARK VINA RESULT:      -6.9      0.804      1.206
REMARK  Name = 
REMARK  11 active torsions:
REMARK  status: ('A' for Active; 'I' for Inactive)
REMARK    1  A    between atoms: C_1  and  O_2
REMARK    2  A    between atoms: O_2  and  C_3
REMARK    3  A    between atoms: C_6  and  N_7
REMARK    4  A    between atoms: N_7  and  C_8
REMARK    5  A    between atoms: N_7  and  S_20
REMARK    6  A    between atoms: C_8  and  C_9
REMARK    7  A    between atoms: N_11  and  N_12
REMARK    8  A    between atoms: C_13  and  C_14
REMARK    9  A    between atoms: S_20  and  C_23
REMARK   10  A    between atoms: C_29  and  O_30
REMARK   11  A    between atoms: O_30  and  C_31
REMARK                            x       y       z     vdW  Elec       q    Type
REMARK                         _______ _______ _______ _____ _____    ______ ____
ROOT
ATOM      1  N   UNL     1       4.354   5.886  17.637  0.00  0.00    +0.000 N 
ENDROOT
BRANCH   1   5
ATOM      2  C   UNL     1       6.625   4.594  14.268  0.00  0.00    +0.000 A 
ATOM      3  C   UNL     1       5.344   4.099  14.508  0.00  0.00    +0.000 A 
ATOM      4  C   UNL     1       4.592   4.547  15.592  0.00  0.00    +0.000 A 
ATOM      5  C   UNL     1       5.102   5.523  16.448  0.00  0.00    +0.000 A 
ATOM      6  C   UNL     1       6.391   6.060  16.200  0.00  0.00    +0.000 A 
ATOM      7  C   UNL     1       7.143   5.570  15.113  0.00  0.00    +0.000 A 
BRANCH   2   9
ATOM      8  C   UNL     1       6.445   3.392  12.216  0.00  0.00    +0.000 C 
ATOM      9  O   UNL     1       7.255   4.055  13.181  0.00  0.00    +0.000 OA
ENDBRANCH   2   9
BRANCH   6  10
ATOM     10  O   UNL     1       6.831   7.077  17.021  0.00  0.00    +0.000 OA
ATOM     11  C   UNL     1       7.695   6.707  18.099  0.00  0.00    +0.000 C 
ENDBRANCH   6  10
ENDBRANCH   1   5
BRANCH   1  12
ATOM     12  S   UNL     1       4.561   4.821  18.990  0.00  0.00    +0.000 S 
ATOM     13  O   UNL     1       5.528   3.795  18.663  0.00  0.00    +0.000 OA
ATOM     14  O   UNL     1       4.758   5.663  20.158  0.00  0.00    +0.000 OA
BRANCH  12  15
ATOM     15  C   UNL     1       2.983   3.980  19.246  0.00  0.00    +0.000 A 
ATOM     16  C   UNL     1       2.576   2.974  18.361  0.00  0.00    +0.000 A 
ATOM     17  C   UNL     1       1.422   2.227  18.632  0.00  0.00    +0.000 A 
ATOM     18  C   UNL     1       0.686   2.462  19.791  0.00  0.00    +0.000 A 
ATOM     19  C   UNL     1       1.110   3.436  20.695  0.00  0.00    +0.000 A 
ATOM     20  C   UNL     1       2.262   4.187  20.431  0.00  0.00    +0.000 A 
ENDBRANCH  12  15
ENDBRANCH   1  12
BRANCH   1  21
ATOM     21  C   UNL     1       2.964   6.390  17.505  0.00  0.00    +0.000 C 
BRANCH  21  22
ATOM     22  C   UNL     1       2.560   7.701  18.145  0.00  0.00    +0.000 C 
ATOM     23  O   UNL     1       2.539   8.734  17.467  0.00  0.00    +0.000 OA
ATOM     24  N   UNL     1       2.158   7.640  19.474  0.00  0.00    +0.000 N 
ATOM     25  H   UNL     1       2.247   6.787  20.018  0.00  0.00    +0.000 HD
BRANCH  24  26
ATOM     26  N   UNL     1       1.670   8.786  20.040  0.00  0.00    +0.000 NA
ATOM     27  C   UNL     1       0.582   9.301  19.567  0.00  0.00    +0.000 C 
BRANCH  27  28
ATOM     28  C   UNL     1       0.019  10.537  20.162  0.00  0.00    +0.000 A 
ATOM     29  C   UNL     1      -1.117  11.151  19.635  0.00  0.00    +0.000 A 
ATOM     30  C   UNL     1      -1.598  12.321  20.223  0.00  0.00    +0.000 A 
ATOM     31  C   UNL     1      -0.923  12.834  21.319  0.00  0.00    +0.000 A 
ATOM     32  N   UNL     1       0.180  12.262  21.855  0.00  0.00    +0.000 NA
ATOM     33  C   UNL     1       0.626  11.124  21.265  0.00  0.00    +0.000 A 
ENDBRANCH  27  28
ENDBRANCH  24  26
ENDBRANCH  21  22
ENDBRANCH   1  21
TORSDOF 9
ENDMDL
MODEL 9
REMARK VINA RESULT:      -6.9      1.891      2.296
REMARK  Name = 
REMARK  11 active torsions:
REMARK  status: ('A' for Active; 'I' for Inactive)
REMARK    1  A    between atoms: C_1  and  O_2
REMARK    2  A    between atoms: O_2  and  C_3
REMARK    3  A    between atoms: C_6  and  N_7
REMARK    4  A    between atoms: N_7  and  C_8
REMARK    5  A    between atoms: N_7  and  S_20
REMARK    6  A    between atoms: C_8  and  C_9
REMARK    7  A    between atoms: N_11  and  N_12
REMARK    8  A    between atoms: C_13  and  C_14
REMARK    9  A    between atoms: S_20  and  C_23
REMARK   10  A    between atoms: C_29  and  O_30
REMARK   11  A    between atoms: O_30  and  C_31
REMARK                            x       y       z     vdW  Elec       q    Type
REMARK                         _______ _______ _______ _____ _____    ______ ____
ROOT
ATOM      1  N   UNL     1       4.368   5.767  17.688  0.00  0.00    +0.000 N 
ENDROOT
BRANCH   1   5
ATOM      2  C   UNL     1       6.582   4.698  14.205  0.00  0.00    +0.000 A 
ATOM      3  C   UNL     1       5.340   4.125  14.476  0.00  0.00    +0.000 A 
ATOM      4  C   UNL     1       4.605   4.500  15.598  0.00  0.00    +0.000 A 
ATOM      5  C   UNL     1       5.091   5.480  16.464  0.00  0.00    +0.000 A 
ATOM      6  C   UNL     1       6.338   6.096  16.187  0.00  0.00    +0.000 A 
ATOM      7  C   UNL     1       7.076   5.679  15.060  0.00  0.00    +0.000 A 
BRANCH   2   9
ATOM      8  C   UNL     1       6.433   3.405  12.207  0.00  0.00    +0.000 C 
ATOM      9  O   UNL     1       7.201   4.225  13.082  0.00  0.00    +0.000 OA
ENDBRANCH   2   9
BRANCH   6  10
ATOM     10  O   UNL     1       6.751   7.113  17.021  0.00  0.00    +0.000 OA
ATOM     11  C   UNL     1       7.714   6.774  18.023  0.00  0.00    +0.000 C 
ENDBRANCH   6  10
ENDBRANCH   1   5
BRANCH   1  12
ATOM     12  S   UNL     1       4.678   4.676  19.000  0.00  0.00    +0.000 S 
ATOM     13  O   UNL     1       5.570   3.623  18.560  0.00  0.00    +0.000 OA
ATOM     14  O   UNL     1       5.024   5.491  20.151  0.00  0.00    +0.000 OA
BRANCH  12  15
ATOM     15  C   UNL     1       3.107   3.883  19.409  0.00  0.00    +0.000 A 
ATOM     16  C   UNL     1       2.566   2.920  18.548  0.00  0.00    +0.000 A 
ATOM     17  C   UNL     1       1.421   2.206  18.927  0.00  0.00    +0.000 A 
ATOM     18  C   UNL     1       0.830   2.430  20.168  0.00  0.00    +0.000 A 
ATOM     19  C   UNL     1       1.388   3.360  21.045  0.00  0.00    +0.000 A 
ATOM     20  C   UNL     1       2.532   4.077  20.672  0.00  0.00    +0.000 A 
ENDBRANCH  12  15
ENDBRANCH   1  12
BRANCH   1  21
ATOM     21  C   UNL     1       2.950   6.200  17.620  0.00  0.00    +0.000 C 
BRANCH  21  22
ATOM     22  C   UNL     1       2.478   7.405  18.406  0.00  0.00    +0.000 C 
ATOM     23  O   UNL     1       2.448   7.359  19.640  0.00  0.00    +0.000 OA
ATOM     24  N   UNL     1       2.172   8.541  17.667  0.00  0.00    +0.000 N 
ATOM     25  H   UNL     1       2.147   8.526  16.652  0.00  0.00    +0.000 HD
BRANCH  24  26
ATOM     26  N   UNL     1       1.863   9.682  18.358  0.00  0.00    +0.000 NA
ATOM     27  C   UNL     1       2.243  10.822  17.880  0.00  0.00    +0.000 C 
BRANCH  27  28
ATOM     28  C   UNL     1       1.918  12.079  18.597  0.00  0.00    +0.000 A 
ATOM     29  C   UNL     1       2.317  13.323  18.109  0.00  0.00    +0.000 A 
ATOM     30  C   UNL     1       1.998  14.475  18.829  0.00  0.00    +0.000 A 
ATOM     31  C   UNL     1       1.291  14.338  20.012  0.00  0.00    +0.000 A 
ATOM     32  N   UNL     1       0.888  13.147  20.510  0.00  0.00    +0.000 NA
ATOM     33  C   UNL     1       1.209  12.042  19.790  0.00  0.00    +0.000 A 
ENDBRANCH  27  28
ENDBRANCH  24  26
ENDBRANCH  21  22
ENDBRANCH   1  21
TORSDOF 9
ENDMDL
