MODEL 1
REMARK VINA RESULT:      -7.5      0.000      0.000
REMARK  Name = 
REMARK  4 active torsions:
REMARK  status: ('A' for Active; 'I' for Inactive)
REMARK    1  A    between atoms: N_1  and  C_2
REMARK    2  A    between atoms: C_6  and  O_7
REMARK    3  A    between atoms: O_7  and  C_8
REMARK    4  A    between atoms: C_8  and  C_9
REMARK                            x       y       z     vdW  Elec       q    Type
REMARK                         _______ _______ _______ _____ _____    ______ ____
ROOT
ATOM      1  C   UNL     1       4.661   4.127  16.335  0.00  0.00    +0.000 C 
ENDROOT
BRANCH   1   2
ATOM      2  C   UNL     1       4.220   3.857  17.784  0.00  0.00    +0.000 C 
ATOM      3  C   UNL     1       3.744   2.401  17.912  0.00  0.00    +0.000 C 
ATOM      4  C   UNL     1       3.317   2.105  19.339  0.00  0.00    +0.000 C 
ATOM      5  C   UNL     1       2.266   3.103  19.813  0.00  0.00    +0.000 C 
ATOM      6  N   UNL     1       2.734   4.493  19.684  0.00  0.00    +0.000 NA
ATOM      7  C   UNL     1       1.705   5.400  20.216  0.00  0.00    +0.000 C 
ATOM      8  C   UNL     1       2.152   6.859  20.169  0.00  0.00    +0.000 C 
ATOM      9  C   UNL     1       2.497   7.257  18.748  0.00  0.00    +0.000 C 
ATOM     10  C   UNL     1       3.530   6.299  18.169  0.00  0.00    +0.000 C 
ATOM     11  C   UNL     1       3.098   4.822  18.281  0.00  0.00    +0.000 C 
ENDBRANCH   1   2
BRANCH   1  12
ATOM     12  O   UNL     1       6.088   4.091  16.255  0.00  0.00    +0.000 OA
BRANCH  12  17
ATOM     13  C   UNL     1       8.016   5.622  19.035  0.00  0.00    +0.000 A 
ATOM     14  C   UNL     1       8.007   6.948  18.582  0.00  0.00    +0.000 A 
ATOM     15  C   UNL     1       7.445   7.267  17.346  0.00  0.00    +0.000 A 
ATOM     16  C   UNL     1       6.835   6.278  16.580  0.00  0.00    +0.000 A 
ATOM     17  C   UNL     1       6.772   4.964  17.054  0.00  0.00    +0.000 A 
ATOM     18  C   UNL     1       7.364   4.648  18.278  0.00  0.00    +0.000 A 
BRANCH  13  19
ATOM     19  N   UNL     1       8.440   5.326  20.335  0.00  0.00    +0.000 N 
ATOM     20  H   UNL     1       8.451   4.335  20.549  0.00  0.00    +0.000 HD
ATOM     21  H   UNL     1       7.975   5.870  21.055  0.00  0.00    +0.000 HD
ENDBRANCH  13  19
ENDBRANCH  12  17
ENDBRANCH   1  12
TORSDOF 4
ENDMDL
MODEL 2
REMARK VINA RESULT:      -7.2      1.314      2.839
REMARK  Name = 
REMARK  4 active torsions:
REMARK  status: ('A' for Active; 'I' for Inactive)
REMARK    1  A    between atoms: N_1  and  C_2
REMARK    2  A    between atoms: C_6  and  O_7
REMARK    3  A    between atoms: O_7  and  C_8
REMARK    4  A    between atoms: C_8  and  C_9
REMARK                            x       y       z     vdW  Elec       q    Type
REMARK                         _______ _______ _______ _____ _____    ______ ____
ROOT
ATOM      1  C   UNL     1       3.564   6.590  17.345  0.00  0.00    +0.000 C 
ENDROOT
BRANCH   1   2
ATOM      2  C   UNL     1       2.487   6.173  18.362  0.00  0.00    +0.000 C 
ATOM      3  C   UNL     1       2.641   7.009  19.643  0.00  0.00    +0.000 C 
ATOM      4  C   UNL     1       1.578   6.627  20.658  0.00  0.00    +0.000 C 
ATOM      5  C   UNL     1       1.603   5.128  20.937  0.00  0.00    +0.000 C 
ATOM      6  N   UNL     1       1.456   4.339  19.701  0.00  0.00    +0.000 NA
ATOM      7  C   UNL     1       1.422   2.908  20.044  0.00  0.00    +0.000 C 
ATOM      8  C   UNL     1       1.209   2.033  18.812  0.00  0.00    +0.000 C 
ATOM      9  C   UNL     1       2.300   2.287  17.791  0.00  0.00    +0.000 C 
ATOM     10  C   UNL     1       2.376   3.773  17.460  0.00  0.00    +0.000 C 
ATOM     11  C   UNL     1       2.525   4.655  18.718  0.00  0.00    +0.000 C 
ENDBRANCH   1   2
BRANCH   1  12
ATOM     12  O   UNL     1       4.598   5.604  17.314  0.00  0.00    +0.000 OA
BRANCH  12  17
ATOM     13  C   UNL     1       7.757   5.851  19.251  0.00  0.00    +0.000 A 
ATOM     14  C   UNL     1       8.264   7.017  18.661  0.00  0.00    +0.000 A 
ATOM     15  C   UNL     1       7.593   7.620  17.597  0.00  0.00    +0.000 A 
ATOM     16  C   UNL     1       6.380   7.102  17.154  0.00  0.00    +0.000 A 
ATOM     17  C   UNL     1       5.824   5.983  17.782  0.00  0.00    +0.000 A 
ATOM     18  C   UNL     1       6.519   5.367  18.825  0.00  0.00    +0.000 A 
BRANCH  13  19
ATOM     19  N   UNL     1       8.345   5.336  20.409  0.00  0.00    +0.000 N 
ATOM     20  H   UNL     1       7.848   5.569  21.263  0.00  0.00    +0.000 HD
ATOM     21  H   UNL     1       9.342   5.517  20.483  0.00  0.00    +0.000 HD
ENDBRANCH  13  19
ENDBRANCH  12  17
ENDBRANCH   1  12
TORSDOF 4
ENDMDL
MODEL 3
REMARK VINA RESULT:      -7.1      3.039      4.457
REMARK  Name = 
REMARK  4 active torsions:
REMARK  status: ('A' for Active; 'I' for Inactive)
REMARK    1  A    between atoms: N_1  and  C_2
REMARK    2  A    between atoms: C_6  and  O_7
REMARK    3  A    between atoms: O_7  and  C_8
REMARK    4  A    between atoms: C_8  and  C_9
REMARK                            x       y       z     vdW  Elec       q    Type
REMARK                         _______ _______ _______ _____ _____    ______ ____
ROOT
ATOM      1  C   UNL     1       5.339   3.979  16.546  0.00  0.00    +0.000 C 
ENDROOT
BRANCH   1   2
ATOM      2  C   UNL     1       4.107   4.756  17.041  0.00  0.00    +0.000 C 
ATOM      3  C   UNL     1       4.534   6.165  17.486  0.00  0.00    +0.000 C 
ATOM      4  C   UNL     1       3.331   6.959  17.965  0.00  0.00    +0.000 C 
ATOM      5  C   UNL     1       2.581   6.206  19.059  0.00  0.00    +0.000 C 
ATOM      6  N   UNL     1       2.179   4.859  18.620  0.00  0.00    +0.000 NA
ATOM      7  C   UNL     1       1.406   4.213  19.692  0.00  0.00    +0.000 C 
ATOM      8  C   UNL     1       0.904   2.833  19.280  0.00  0.00    +0.000 C 
ATOM      9  C   UNL     1       2.069   1.946  18.886  0.00  0.00    +0.000 C 
ATOM     10  C   UNL     1       2.903   2.623  17.806  0.00  0.00    +0.000 C 
ATOM     11  C   UNL     1       3.351   4.045  18.206  0.00  0.00    +0.000 C 
ENDBRANCH   1   2
BRANCH   1  12
ATOM     12  O   UNL     1       6.226   4.871  15.867  0.00  0.00    +0.000 OA
BRANCH  12  17
ATOM     13  C   UNL     1       6.208   3.401  12.458  0.00  0.00    +0.000 A 
ATOM     14  C   UNL     1       7.245   4.164  11.903  0.00  0.00    +0.000 A 
ATOM     15  C   UNL     1       7.844   5.183  12.643  0.00  0.00    +0.000 A 
ATOM     16  C   UNL     1       7.457   5.410  13.960  0.00  0.00    +0.000 A 
ATOM     17  C   UNL     1       6.476   4.607  14.550  0.00  0.00    +0.000 A 
ATOM     18  C   UNL     1       5.860   3.610  13.793  0.00  0.00    +0.000 A 
BRANCH  13  19
ATOM     19  N   UNL     1       5.714   2.285  11.775  0.00  0.00    +0.000 N 
ATOM     20  H   UNL     1       5.975   2.252  10.795  0.00  0.00    +0.000 HD
ATOM     21  H   UNL     1       4.722   2.120  11.914  0.00  0.00    +0.000 HD
ENDBRANCH  13  19
ENDBRANCH  12  17
ENDBRANCH   1  12
TORSDOF 4
ENDMDL
MODEL 4
REMARK VINA RESULT:      -7.0      2.709      4.175
REMARK  Name = 
REMARK  4 active torsions:
REMARK  status: ('A' for Active; 'I' for Inactive)
REMARK    1  A    between atoms: N_1  and  C_2
REMARK    2  A    between atoms: C_6  and  O_7
REMARK    3  A    between atoms: O_7  and  C_8
REMARK    4  A    between atoms: C_8  and  C_9
REMARK                            x       y       z     vdW  Elec       q    Type
REMARK                         _______ _______ _______ _____ _____    ______ ____
ROOT
ATOM      1  C   UNL     1       5.399   4.603  16.823  0.00  0.00    +0.000 C 
ENDROOT
BRANCH   1   2
ATOM      2  C   UNL     1       4.131   5.336  17.294  0.00  0.00    +0.000 C 
ATOM      3  C   UNL     1       4.401   6.849  17.342  0.00  0.00    +0.000 C 
ATOM      4  C   UNL     1       3.157   7.596  17.790  0.00  0.00    +0.000 C 
ATOM      5  C   UNL     1       2.645   7.055  19.121  0.00  0.00    +0.000 C 
ATOM      6  N   UNL     1       2.392   5.606  19.061  0.00  0.00    +0.000 NA
ATOM      7  C   UNL     1       1.839   5.159  20.350  0.00  0.00    +0.000 C 
ATOM      8  C   UNL     1       1.495   3.673  20.338  0.00  0.00    +0.000 C 
ATOM      9  C   UNL     1       2.724   2.852  19.998  0.00  0.00    +0.000 C 
ATOM     10  C   UNL     1       3.332   3.333  18.687  0.00  0.00    +0.000 C 
ATOM     11  C   UNL     1       3.615   4.850  18.685  0.00  0.00    +0.000 C 
ENDBRANCH   1   2
BRANCH   1  12
ATOM     12  O   UNL     1       5.103   3.839  15.652  0.00  0.00    +0.000 OA
BRANCH  12  17
ATOM     13  C   UNL     1       7.766   5.031  13.355  0.00  0.00    +0.000 A 
ATOM     14  C   UNL     1       7.283   4.457  12.171  0.00  0.00    +0.000 A 
ATOM     15  C   UNL     1       6.156   3.635  12.193  0.00  0.00    +0.000 A 
ATOM     16  C   UNL     1       5.467   3.428  13.384  0.00  0.00    +0.000 A 
ATOM     17  C   UNL     1       5.895   4.054  14.560  0.00  0.00    +0.000 A 
ATOM     18  C   UNL     1       7.041   4.849  14.534  0.00  0.00    +0.000 A 
BRANCH  13  19
ATOM     19  N   UNL     1       8.798   5.972  13.309  0.00  0.00    +0.000 N 
ATOM     20  H   UNL     1       9.395   5.891  12.492  0.00  0.00    +0.000 HD
ATOM     21  H   UNL     1       9.333   6.043  14.170  0.00  0.00    +0.000 HD
ENDBRANCH  13  19
ENDBRANCH  12  17
ENDBRANCH   1  12
TORSDOF 4
ENDMDL
MODEL 5
REMARK VINA RESULT:      -7.0      1.741      3.286
REMARK  Name = 
REMARK  4 active torsions:
REMARK  status: ('A' for Active; 'I' for Inactive)
REMARK    1  A    between atoms: N_1  and  C_2
REMARK    2  A    between atoms: C_6  and  O_7
REMARK    3  A    between atoms: O_7  and  C_8
REMARK    4  A    between atoms: C_8  and  C_9
REMARK                            x       y       z     vdW  Elec       q    Type
REMARK                         _______ _______ _______ _____ _____    ______ ____
ROOT
ATOM      1  C   UNL     1       3.050   6.966  17.312  0.00  0.00    +0.000 C 
ENDROOT
BRANCH   1   2
ATOM      2  C   UNL     1       2.204   6.327  18.426  0.00  0.00    +0.000 C 
ATOM      3  C   UNL     1       2.404   7.110  19.735  0.00  0.00    +0.000 C 
ATOM      4  C   UNL     1       1.566   6.506  20.849  0.00  0.00    +0.000 C 
ATOM      5  C   UNL     1       1.863   5.019  21.011  0.00  0.00    +0.000 C 
ATOM      6  N   UNL     1       1.669   4.282  19.751  0.00  0.00    +0.000 NA
ATOM      7  C   UNL     1       1.907   2.849  19.989  0.00  0.00    +0.000 C 
ATOM      8  C   UNL     1       1.663   2.015  18.734  0.00  0.00    +0.000 C 
ATOM      9  C   UNL     1       2.548   2.497  17.602  0.00  0.00    +0.000 C 
ATOM     10  C   UNL     1       2.344   3.990  17.374  0.00  0.00    +0.000 C 
ATOM     11  C   UNL     1       2.528   4.819  18.663  0.00  0.00    +0.000 C 
ENDBRANCH   1   2
BRANCH   1  12
ATOM     12  O   UNL     1       4.408   7.075  17.745  0.00  0.00    +0.000 OA
BRANCH  12  17
ATOM     13  C   UNL     1       7.192   4.678  17.205  0.00  0.00    +0.000 A 
ATOM     14  C   UNL     1       7.111   4.587  15.808  0.00  0.00    +0.000 A 
ATOM     15  C   UNL     1       6.096   5.246  15.115  0.00  0.00    +0.000 A 
ATOM     16  C   UNL     1       5.190   6.049  15.801  0.00  0.00    +0.000 A 
ATOM     17  C   UNL     1       5.304   6.208  17.186  0.00  0.00    +0.000 A 
ATOM     18  C   UNL     1       6.304   5.521  17.875  0.00  0.00    +0.000 A 
BRANCH  13  19
ATOM     19  N   UNL     1       8.293   4.146  17.882  0.00  0.00    +0.000 N 
ATOM     20  H   UNL     1       9.189   4.416  17.488  0.00  0.00    +0.000 HD
ATOM     21  H   UNL     1       8.233   3.147  18.050  0.00  0.00    +0.000 HD
ENDBRANCH  13  19
ENDBRANCH  12  17
ENDBRANCH   1  12
TORSDOF 4
ENDMDL
MODEL 6
REMARK VINA RESULT:      -6.9      0.890      2.503
REMARK  Name = 
REMARK  4 active torsions:
REMARK  status: ('A' for Active; 'I' for Inactive)
REMARK    1  A    between atoms: N_1  and  C_2
REMARK    2  A    between atoms: C_6  and  O_7
REMARK    3  A    between atoms: O_7  and  C_8
REMARK    4  A    between atoms: C_8  and  C_9
REMARK                            x       y       z     vdW  Elec       q    Type
REMARK                         _______ _______ _______ _____ _____    ______ ____
ROOT
ATOM      1  C   UNL     1       4.627   4.244  16.925  0.00  0.00    +0.000 C 
ENDROOT
BRANCH   1   2
ATOM      2  C   UNL     1       3.438   4.879  17.666  0.00  0.00    +0.000 C 
ATOM      3  C   UNL     1       3.505   6.409  17.527  0.00  0.00    +0.000 C 
ATOM      4  C   UNL     1       2.331   7.059  18.240  0.00  0.00    +0.000 C 
ATOM      5  C   UNL     1       2.260   6.610  19.696  0.00  0.00    +0.000 C 
ATOM      6  N   UNL     1       2.198   5.143  19.814  0.00  0.00    +0.000 NA
ATOM      7  C   UNL     1       2.065   4.780  21.234  0.00  0.00    +0.000 C 
ATOM      8  C   UNL     1       1.933   3.272  21.425  0.00  0.00    +0.000 C 
ATOM      9  C   UNL     1       3.130   2.559  20.827  0.00  0.00    +0.000 C 
ATOM     10  C   UNL     1       3.306   2.961  19.367  0.00  0.00    +0.000 C 
ATOM     11  C   UNL     1       3.371   4.491  19.177  0.00  0.00    +0.000 C 
ENDBRANCH   1   2
BRANCH   1  12
ATOM     12  O   UNL     1       5.446   5.273  16.364  0.00  0.00    +0.000 OA
BRANCH  12  17
ATOM     13  C   UNL     1       7.926   5.819  19.073  0.00  0.00    +0.000 A 
ATOM     14  C   UNL     1       8.273   7.142  18.765  0.00  0.00    +0.000 A 
ATOM     15  C   UNL     1       7.744   7.766  17.636  0.00  0.00    +0.000 A 
ATOM     16  C   UNL     1       6.820   7.098  16.838  0.00  0.00    +0.000 A 
ATOM     17  C   UNL     1       6.409   5.805  17.175  0.00  0.00    +0.000 A 
ATOM     18  C   UNL     1       6.967   5.177  18.289  0.00  0.00    +0.000 A 
BRANCH  13  19
ATOM     19  N   UNL     1       8.334   5.248  20.282  0.00  0.00    +0.000 N 
ATOM     20  H   UNL     1       7.776   4.451  20.571  0.00  0.00    +0.000 HD
ATOM     21  H   UNL     1       8.465   5.918  21.033  0.00  0.00    +0.000 HD
ENDBRANCH  13  19
ENDBRANCH  12  17
ENDBRANCH   1  12
TORSDOF 4
ENDMDL
MODEL 7
REMARK VINA RESULT:      -6.8      1.177      1.623
REMARK  Name = 
REMARK  4 active torsions:
REMARK  status: ('A' for Active; 'I' for Inactive)
REMARK    1  A    between atoms: N_1  and  C_2
REMARK    2  A    between atoms: C_6  and  O_7
REMARK    3  A    between atoms: O_7  and  C_8
REMARK    4  A    between atoms: C_8  and  C_9
REMARK                            x       y       z     vdW  Elec       q    Type
REMARK                         _______ _______ _______ _____ _____    ______ ____
ROOT
ATOM      1  C   UNL     1       4.530   4.320  16.495  0.00  0.00    +0.000 C 
ENDROOT
BRANCH   1   2
ATOM      2  C   UNL     1       4.001   3.716  17.808  0.00  0.00    +0.000 C 
ATOM      3  C   UNL     1       3.496   2.288  17.547  0.00  0.00    +0.000 C 
ATOM      4  C   UNL     1       2.982   1.663  18.834  0.00  0.00    +0.000 C 
ATOM      5  C   UNL     1       1.921   2.546  19.483  0.00  0.00    +0.000 C 
ATOM      6  N   UNL     1       2.418   3.911  19.725  0.00  0.00    +0.000 NA
ATOM      7  C   UNL     1       1.373   4.690  20.410  0.00  0.00    +0.000 C 
ATOM      8  C   UNL     1       1.845   6.101  20.747  0.00  0.00    +0.000 C 
ATOM      9  C   UNL     1       2.278   6.826  19.487  0.00  0.00    +0.000 C 
ATOM     10  C   UNL     1       3.328   6.009  18.745  0.00  0.00    +0.000 C 
ATOM     11  C   UNL     1       2.868   4.562  18.467  0.00  0.00    +0.000 C 
ENDBRANCH   1   2
BRANCH   1  12
ATOM     12  O   UNL     1       5.958   4.253  16.479  0.00  0.00    +0.000 OA
BRANCH  12  17
ATOM     13  C   UNL     1       7.502   7.399  17.704  0.00  0.00    +0.000 A 
ATOM     14  C   UNL     1       8.157   6.878  18.829  0.00  0.00    +0.000 A 
ATOM     15  C   UNL     1       7.993   5.539  19.183  0.00  0.00    +0.000 A 
ATOM     16  C   UNL     1       7.226   4.695  18.387  0.00  0.00    +0.000 A 
ATOM     17  C   UNL     1       6.627   5.184  17.221  0.00  0.00    +0.000 A 
ATOM     18  C   UNL     1       6.771   6.532  16.891  0.00  0.00    +0.000 A 
BRANCH  13  19
ATOM     19  N   UNL     1       7.786   8.695  17.263  0.00  0.00    +0.000 N 
ATOM     20  H   UNL     1       7.870   8.779  16.255  0.00  0.00    +0.000 HD
ATOM     21  H   UNL     1       8.558   9.139  17.751  0.00  0.00    +0.000 HD
ENDBRANCH  13  19
ENDBRANCH  12  17
ENDBRANCH   1  12
TORSDOF 4
ENDMDL
MODEL 8
REMARK VINA RESULT:      -6.7      3.049      6.173
REMARK  Name = 
REMARK  4 active torsions:
REMARK  status: ('A' for Active; 'I' for Inactive)
REMARK    1  A    between atoms: N_1  and  C_2
REMARK    2  A    between atoms: C_6  and  O_7
REMARK    3  A    between atoms: O_7  and  C_8
REMARK    4  A    between atoms: C_8  and  C_9
REMARK                            x       y       z     vdW  Elec       q    Type
REMARK                         _______ _______ _______ _____ _____    ______ ____
ROOT
ATOM      1  C   UNL     1       2.454   7.293  18.699  0.00  0.00    +0.000 C 
ENDROOT
BRANCH   1   2
ATOM      2  C   UNL     1       3.352   6.071  18.445  0.00  0.00    +0.000 C 
ATOM      3  C   UNL     1       4.244   6.336  17.220  0.00  0.00    +0.000 C 
ATOM      4  C   UNL     1       5.152   5.147  16.957  0.00  0.00    +0.000 C 
ATOM      5  C   UNL     1       4.343   3.862  16.818  0.00  0.00    +0.000 C 
ATOM      6  N   UNL     1       3.492   3.621  17.996  0.00  0.00    +0.000 NA
ATOM      7  C   UNL     1       2.790   2.338  17.830  0.00  0.00    +0.000 C 
ATOM      8  C   UNL     1       1.935   1.996  19.046  0.00  0.00    +0.000 C 
ATOM      9  C   UNL     1       0.927   3.098  19.308  0.00  0.00    +0.000 C 
ATOM     10  C   UNL     1       1.638   4.440  19.439  0.00  0.00    +0.000 C 
ATOM     11  C   UNL     1       2.552   4.747  18.234  0.00  0.00    +0.000 C 
ENDBRANCH   1   2
BRANCH   1  12
ATOM     12  O   UNL     1       2.301   7.490  20.107  0.00  0.00    +0.000 OA
BRANCH  12  17
ATOM     13  C   UNL     1      -0.015   9.613  22.086  0.00  0.00    +0.000 A 
ATOM     14  C   UNL     1      -0.470  10.437  21.047  0.00  0.00    +0.000 A 
ATOM     15  C   UNL     1       0.065  10.317  19.765  0.00  0.00    +0.000 A 
ATOM     16  C   UNL     1       1.013   9.336  19.494  0.00  0.00    +0.000 A 
ATOM     17  C   UNL     1       1.422   8.458  20.502  0.00  0.00    +0.000 A 
ATOM     18  C   UNL     1       0.904   8.605  21.790  0.00  0.00    +0.000 A 
BRANCH  13  19
ATOM     19  N   UNL     1      -0.656   9.628  23.328  0.00  0.00    +0.000 N 
ATOM     20  H   UNL     1      -1.661   9.761  23.271  0.00  0.00    +0.000 HD
ATOM     21  H   UNL     1      -0.225  10.245  24.009  0.00  0.00    +0.000 HD
ENDBRANCH  13  19
ENDBRANCH  12  17
ENDBRANCH   1  12
TORSDOF 4
ENDMDL
MODEL 9
REMARK VINA RESULT:      -6.7      2.125      3.622
REMARK  Name = 
REMARK  4 active torsions:
REMARK  status: ('A' for Active; 'I' for Inactive)
REMARK    1  A    between atoms: N_1  and  C_2
REMARK    2  A    between atoms: C_6  and  O_7
REMARK    3  A    between atoms: O_7  and  C_8
REMARK    4  A    between atoms: C_8  and  C_9
REMARK                            x       y       z     vdW  Elec       q    Type
REMARK                         _______ _______ _______ _____ _____    ______ ____
ROOT
ATOM      1  C   UNL     1       3.196   6.837  17.337  0.00  0.00    +0.000 C 
ENDROOT
BRANCH   1   2
ATOM      2  C   UNL     1       2.316   6.182  18.416  0.00  0.00    +0.000 C 
ATOM      3  C   UNL     1       2.418   6.989  19.721  0.00  0.00    +0.000 C 
ATOM      4  C   UNL     1       1.545   6.370  20.798  0.00  0.00    +0.000 C 
ATOM      5  C   UNL     1       1.887   4.897  20.998  0.00  0.00    +0.000 C 
ATOM      6  N   UNL     1       1.787   4.136  19.741  0.00  0.00    +0.000 NA
ATOM      7  C   UNL     1       2.064   2.717  20.014  0.00  0.00    +0.000 C 
ATOM      8  C   UNL     1       1.917   1.858  18.761  0.00  0.00    +0.000 C 
ATOM      9  C   UNL     1       2.843   2.357  17.670  0.00  0.00    +0.000 C 
ATOM     10  C   UNL     1       2.597   3.838  17.408  0.00  0.00    +0.000 C 
ATOM     11  C   UNL     1       2.682   4.690  18.692  0.00  0.00    +0.000 C 
ENDBRANCH   1   2
BRANCH   1  12
ATOM     12  O   UNL     1       4.533   6.969  17.826  0.00  0.00    +0.000 OA
BRANCH  12  17
ATOM     13  C   UNL     1       6.521   4.912  15.459  0.00  0.00    +0.000 A 
ATOM     14  C   UNL     1       7.424   4.361  16.379  0.00  0.00    +0.000 A 
ATOM     15  C   UNL     1       7.396   4.753  17.717  0.00  0.00    +0.000 A 
ATOM     16  C   UNL     1       6.430   5.651  18.161  0.00  0.00    +0.000 A 
ATOM     17  C   UNL     1       5.476   6.152  17.269  0.00  0.00    +0.000 A 
ATOM     18  C   UNL     1       5.532   5.778  15.926  0.00  0.00    +0.000 A 
BRANCH  13  19
ATOM     19  N   UNL     1       6.450   4.408  14.157  0.00  0.00    +0.000 N 
ATOM     20  H   UNL     1       5.556   3.985  13.927  0.00  0.00    +0.000 HD
ATOM     21  H   UNL     1       7.233   3.815  13.898  0.00  0.00    +0.000 HD
ENDBRANCH  13  19
ENDBRANCH  12  17
ENDBRANCH   1  12
TORSDOF 4
ENDMDL
