MODEL 1
REMARK VINA RESULT:      -8.6      0.000      0.000
REMARK  Name = 
REMARK  5 active torsions:
REMARK  status: ('A' for Active; 'I' for Inactive)
REMARK    1  A    between atoms: C_1  and  C_2
REMARK    2  A    between atoms: C_2  and  O_4
REMARK    3  A    between atoms: O_4  and  C_5
REMARK    4  A    between atoms: C_14  and  C_15
REMARK    5  A    between atoms: C_16  and  C_17
REMARK                            x       y       z     vdW  Elec       q    Type
REMARK                         _______ _______ _______ _____ _____    ______ ____
ROOT
ATOM      1  C   UNL     1       3.265   5.037  19.849  0.00  0.00    +0.000 A 
ATOM      2  C   UNL     1       4.168   4.209  19.180  0.00  0.00    +0.000 A 
ATOM      3 CL   UNL     1       4.570   2.640  19.774  0.00  0.00    +0.000 Cl
ATOM      4  C   UNL     1       4.738   4.638  17.989  0.00  0.00    +0.000 A 
ATOM      5  C   UNL     1       4.386   5.888  17.474  0.00  0.00    +0.000 A 
ATOM      6 CL   UNL     1       5.127   6.354  15.978  0.00  0.00    +0.000 Cl
ATOM      7  C   UNL     1       3.444   6.723  18.131  0.00  0.00    +0.000 A 
ATOM      8  C   UNL     1       3.007   7.981  17.656  0.00  0.00    +0.000 A 
ATOM      9  C   UNL     1       2.064   8.730  18.362  0.00  0.00    +0.000 A 
ATOM     10  C   UNL     1       1.555   8.208  19.536  0.00  0.00    +0.000 A 
ATOM     11  N   UNL     1       1.934   6.996  19.992  0.00  0.00    +0.000 NA
ATOM     12  C   UNL     1       2.870   6.277  19.336  0.00  0.00    +0.000 A 
ENDROOT
BRANCH  10  13
ATOM     13  C   UNL     1       0.561   8.937  20.343  0.00  0.00    +0.000 C 
ATOM     14  C   UNL     1       0.460  10.277  20.311  0.00  0.00    +0.000 C 
BRANCH  14  15
ATOM     15  C   UNL     1      -0.466  11.092  21.118  0.00  0.00    +0.000 A 
ATOM     16  C   UNL     1      -1.211  12.131  20.530  0.00  0.00    +0.000 A 
ATOM     17 CL   UNL     1      -0.991  12.596  18.875  0.00  0.00    +0.000 Cl
ATOM     18  C   UNL     1      -2.190  12.817  21.260  0.00  0.00    +0.000 A 
ATOM     19  C   UNL     1      -2.450  12.473  22.584  0.00  0.00    +0.000 A 
ATOM     20  C   UNL     1      -1.708  11.464  23.190  0.00  0.00    +0.000 A 
ATOM     21  C   UNL     1      -0.720  10.778  22.464  0.00  0.00    +0.000 A 
ATOM     22 CL   UNL     1       0.138   9.524  23.294  0.00  0.00    +0.000 Cl
ENDBRANCH  14  15
ENDBRANCH  10  13
BRANCH   1  23
ATOM     23  O   UNL     1       2.614   4.539  20.999  0.00  0.00    +0.000 OA
BRANCH  23  25
ATOM     24  C   UNL     1       1.553   2.598  21.770  0.00  0.00    +0.000 C 
ATOM     25  C   UNL     1       1.532   3.699  20.744  0.00  0.00    +0.000 C 
ATOM     26  O   UNL     1       0.700   3.823  19.859  0.00  0.00    +0.000 OA
ENDBRANCH  23  25
ENDBRANCH   1  23
TORSDOF 4
ENDMDL
MODEL 2
REMARK VINA RESULT:      -8.4      0.156      1.800
REMARK  Name = 
REMARK  5 active torsions:
REMARK  status: ('A' for Active; 'I' for Inactive)
REMARK    1  A    between atoms: C_1  and  C_2
REMARK    2  A    between atoms: C_2  and  O_4
REMARK    3  A    between atoms: O_4  and  C_5
REMARK    4  A    between atoms: C_14  and  C_15
REMARK    5  A    between atoms: C_16  and  C_17
REMARK                            x       y       z     vdW  Elec       q    Type
REMARK                         _______ _______ _______ _____ _____    ______ ____
ROOT
ATOM      1  C   UNL     1       3.266   5.029  19.851  0.00  0.00    +0.000 A 
ATOM      2  C   UNL     1       4.150   4.197  19.162  0.00  0.00    +0.000 A 
ATOM      3 CL   UNL     1       4.540   2.618  19.735  0.00  0.00    +0.000 Cl
ATOM      4  C   UNL     1       4.708   4.632  17.968  0.00  0.00    +0.000 A 
ATOM      5  C   UNL     1       4.364   5.890  17.469  0.00  0.00    +0.000 A 
ATOM      6 CL   UNL     1       5.092   6.362  15.968  0.00  0.00    +0.000 Cl
ATOM      7  C   UNL     1       3.441   6.730  18.147  0.00  0.00    +0.000 A 
ATOM      8  C   UNL     1       3.014   7.998  17.691  0.00  0.00    +0.000 A 
ATOM      9  C   UNL     1       2.090   8.751  18.417  0.00  0.00    +0.000 A 
ATOM     10  C   UNL     1       1.590   8.224  19.593  0.00  0.00    +0.000 A 
ATOM     11  N   UNL     1       1.960   7.003  20.031  0.00  0.00    +0.000 NA
ATOM     12  C   UNL     1       2.878   6.279  19.356  0.00  0.00    +0.000 A 
ENDROOT
BRANCH  10  13
ATOM     13  C   UNL     1       0.615   8.956  20.421  0.00  0.00    +0.000 C 
ATOM     14  C   UNL     1       0.314  10.247  20.193  0.00  0.00    +0.000 C 
BRANCH  14  15
ATOM     15  C   UNL     1      -0.607  11.071  20.997  0.00  0.00    +0.000 A 
ATOM     16  C   UNL     1      -0.729  10.870  22.384  0.00  0.00    +0.000 A 
ATOM     17 CL   UNL     1       0.083   9.575  23.200  0.00  0.00    +0.000 Cl
ATOM     18  C   UNL     1      -1.498  11.737  23.171  0.00  0.00    +0.000 A 
ATOM     19  C   UNL     1      -2.149  12.823  22.592  0.00  0.00    +0.000 A 
ATOM     20  C   UNL     1      -2.059  13.025  21.218  0.00  0.00    +0.000 A 
ATOM     21  C   UNL     1      -1.295  12.154  20.423  0.00  0.00    +0.000 A 
ATOM     22 CL   UNL     1      -1.223  12.496  18.728  0.00  0.00    +0.000 Cl
ENDBRANCH  14  15
ENDBRANCH  10  13
BRANCH   1  23
ATOM     23  O   UNL     1       2.624   4.528  21.005  0.00  0.00    +0.000 OA
BRANCH  23  25
ATOM     24  C   UNL     1       1.565   2.591  21.789  0.00  0.00    +0.000 C 
ATOM     25  C   UNL     1       1.542   3.685  20.757  0.00  0.00    +0.000 C 
ATOM     26  O   UNL     1       0.710   3.803  19.871  0.00  0.00    +0.000 OA
ENDBRANCH  23  25
ENDBRANCH   1  23
TORSDOF 4
ENDMDL
MODEL 3
REMARK VINA RESULT:      -8.3      1.541      1.783
REMARK  Name = 
REMARK  5 active torsions:
REMARK  status: ('A' for Active; 'I' for Inactive)
REMARK    1  A    between atoms: C_1  and  C_2
REMARK    2  A    between atoms: C_2  and  O_4
REMARK    3  A    between atoms: O_4  and  C_5
REMARK    4  A    between atoms: C_14  and  C_15
REMARK    5  A    between atoms: C_16  and  C_17
REMARK                            x       y       z     vdW  Elec       q    Type
REMARK                         _______ _______ _______ _____ _____    ______ ____
ROOT
ATOM      1  C   UNL     1       3.440   4.817  19.790  0.00  0.00    +0.000 A 
ATOM      2  C   UNL     1       4.353   3.831  19.413  0.00  0.00    +0.000 A 
ATOM      3 CL   UNL     1       4.471   2.334  20.263  0.00  0.00    +0.000 Cl
ATOM      4  C   UNL     1       5.169   4.039  18.310  0.00  0.00    +0.000 A 
ATOM      5  C   UNL     1       5.051   5.227  17.586  0.00  0.00    +0.000 A 
ATOM      6 CL   UNL     1       6.094   5.414  16.214  0.00  0.00    +0.000 Cl
ATOM      7  C   UNL     1       4.102   6.222  17.943  0.00  0.00    +0.000 A 
ATOM      8  C   UNL     1       3.896   7.432  17.241  0.00  0.00    +0.000 A 
ATOM      9  C   UNL     1       2.928   8.349  17.656  0.00  0.00    +0.000 A 
ATOM     10  C   UNL     1       2.165   8.043  18.766  0.00  0.00    +0.000 A 
ATOM     11  N   UNL     1       2.323   6.880  19.432  0.00  0.00    +0.000 NA
ATOM     12  C   UNL     1       3.278   6.001  19.062  0.00  0.00    +0.000 A 
ENDROOT
BRANCH  10  13
ATOM     13  C   UNL     1       1.126   8.958  19.272  0.00  0.00    +0.000 C 
ATOM     14  C   UNL     1       0.580   9.913  18.499  0.00  0.00    +0.000 C 
BRANCH  14  15
ATOM     15  C   UNL     1      -0.424  10.903  18.931  0.00  0.00    +0.000 A 
ATOM     16  C   UNL     1      -1.726  10.887  18.398  0.00  0.00    +0.000 A 
ATOM     17 CL   UNL     1      -2.185   9.805  17.124  0.00  0.00    +0.000 Cl
ATOM     18  C   UNL     1      -2.720  11.735  18.902  0.00  0.00    +0.000 A 
ATOM     19  C   UNL     1      -2.436  12.605  19.952  0.00  0.00    +0.000 A 
ATOM     20  C   UNL     1      -1.149  12.651  20.477  0.00  0.00    +0.000 A 
ATOM     21  C   UNL     1      -0.147  11.807  19.970  0.00  0.00    +0.000 A 
ATOM     22 CL   UNL     1       1.420  11.919  20.699  0.00  0.00    +0.000 Cl
ENDBRANCH  14  15
ENDBRANCH  10  13
BRANCH   1  23
ATOM     23  O   UNL     1       2.544   4.542  20.847  0.00  0.00    +0.000 OA
BRANCH  23  25
ATOM     24  C   UNL     1       1.335   2.705  21.652  0.00  0.00    +0.000 C 
ATOM     25  C   UNL     1       1.496   3.684  20.521  0.00  0.00    +0.000 C 
ATOM     26  O   UNL     1       0.813   3.712  19.509  0.00  0.00    +0.000 OA
ENDBRANCH  23  25
ENDBRANCH   1  23
TORSDOF 4
ENDMDL
MODEL 4
REMARK VINA RESULT:      -8.3      1.559      1.960
REMARK  Name = 
REMARK  5 active torsions:
REMARK  status: ('A' for Active; 'I' for Inactive)
REMARK    1  A    between atoms: C_1  and  C_2
REMARK    2  A    between atoms: C_2  and  O_4
REMARK    3  A    between atoms: O_4  and  C_5
REMARK    4  A    between atoms: C_14  and  C_15
REMARK    5  A    between atoms: C_16  and  C_17
REMARK                            x       y       z     vdW  Elec       q    Type
REMARK                         _______ _______ _______ _____ _____    ______ ____
ROOT
ATOM      1  C   UNL     1       3.389   4.861  19.767  0.00  0.00    +0.000 A 
ATOM      2  C   UNL     1       4.259   3.872  19.302  0.00  0.00    +0.000 A 
ATOM      3 CL   UNL     1       4.427   2.360  20.116  0.00  0.00    +0.000 Cl
ATOM      4  C   UNL     1       4.987   4.091  18.141  0.00  0.00    +0.000 A 
ATOM      5  C   UNL     1       4.825   5.293  17.448  0.00  0.00    +0.000 A 
ATOM      6 CL   UNL     1       5.757   5.492  16.000  0.00  0.00    +0.000 Cl
ATOM      7  C   UNL     1       3.919   6.290  17.895  0.00  0.00    +0.000 A 
ATOM      8  C   UNL     1       3.670   7.515  17.232  0.00  0.00    +0.000 A 
ATOM      9  C   UNL     1       2.749   8.434  17.737  0.00  0.00    +0.000 A 
ATOM     10  C   UNL     1       2.073   8.116  18.900  0.00  0.00    +0.000 A 
ATOM     11  N   UNL     1       2.271   6.941  19.532  0.00  0.00    +0.000 NA
ATOM     12  C   UNL     1       3.183   6.058  19.073  0.00  0.00    +0.000 A 
ENDROOT
BRANCH  10  13
ATOM     13  C   UNL     1       1.088   9.033  19.501  0.00  0.00    +0.000 C 
ATOM     14  C   UNL     1       0.503  10.014  18.793  0.00  0.00    +0.000 C 
BRANCH  14  15
ATOM     15  C   UNL     1      -0.452  11.006  19.321  0.00  0.00    +0.000 A 
ATOM     16  C   UNL     1      -0.017  12.047  20.162  0.00  0.00    +0.000 A 
ATOM     17 CL   UNL     1       1.618  12.149  20.728  0.00  0.00    +0.000 Cl
ATOM     18  C   UNL     1      -0.893  13.067  20.555  0.00  0.00    +0.000 A 
ATOM     19  C   UNL     1      -2.212  13.073  20.109  0.00  0.00    +0.000 A 
ATOM     20  C   UNL     1      -2.666  12.041  19.295  0.00  0.00    +0.000 A 
ATOM     21  C   UNL     1      -1.793  11.011  18.904  0.00  0.00    +0.000 A 
ATOM     22 CL   UNL     1      -2.441   9.780  17.873  0.00  0.00    +0.000 Cl
ENDBRANCH  14  15
ENDBRANCH  10  13
BRANCH   1  23
ATOM     23  O   UNL     1       2.577   4.577  20.887  0.00  0.00    +0.000 OA
BRANCH  23  25
ATOM     24  C   UNL     1       1.436   2.718  21.740  0.00  0.00    +0.000 C 
ATOM     25  C   UNL     1       1.498   3.733  20.632  0.00  0.00    +0.000 C 
ATOM     26  O   UNL     1       0.724   3.798  19.689  0.00  0.00    +0.000 OA
ENDBRANCH  23  25
ENDBRANCH   1  23
TORSDOF 4
ENDMDL
MODEL 5
REMARK VINA RESULT:      -8.3      0.977      1.849
REMARK  Name = 
REMARK  5 active torsions:
REMARK  status: ('A' for Active; 'I' for Inactive)
REMARK    1  A    between atoms: C_1  and  C_2
REMARK    2  A    between atoms: C_2  and  O_4
REMARK    3  A    between atoms: O_4  and  C_5
REMARK    4  A    between atoms: C_14  and  C_15
REMARK    5  A    between atoms: C_16  and  C_17
REMARK                            x       y       z     vdW  Elec       q    Type
REMARK                         _______ _______ _______ _____ _____    ______ ____
ROOT
ATOM      1  C   UNL     1       3.335   4.950  19.810  0.00  0.00    +0.000 A 
ATOM      2  C   UNL     1       4.203   3.965  19.337  0.00  0.00    +0.000 A 
ATOM      3 CL   UNL     1       4.395   2.458  20.156  0.00  0.00    +0.000 Cl
ATOM      4  C   UNL     1       4.911   4.182  18.163  0.00  0.00    +0.000 A 
ATOM      5  C   UNL     1       4.729   5.378  17.466  0.00  0.00    +0.000 A 
ATOM      6 CL   UNL     1       5.636   5.576  16.002  0.00  0.00    +0.000 Cl
ATOM      7  C   UNL     1       3.824   6.372  17.923  0.00  0.00    +0.000 A 
ATOM      8  C   UNL     1       3.556   7.591  17.257  0.00  0.00    +0.000 A 
ATOM      9  C   UNL     1       2.637   8.507  17.772  0.00  0.00    +0.000 A 
ATOM     10  C   UNL     1       1.982   8.191  18.947  0.00  0.00    +0.000 A 
ATOM     11  N   UNL     1       2.199   7.021  19.583  0.00  0.00    +0.000 NA
ATOM     12  C   UNL     1       3.109   6.142  19.113  0.00  0.00    +0.000 A 
ENDROOT
BRANCH  10  13
ATOM     13  C   UNL     1       1.001   9.105  19.560  0.00  0.00    +0.000 C 
ATOM     14  C   UNL     1       1.308   9.873  20.620  0.00  0.00    +0.000 C 
BRANCH  14  15
ATOM     15  C   UNL     1       0.380  10.775  21.327  0.00  0.00    +0.000 A 
ATOM     16  C   UNL     1      -0.487  10.282  22.319  0.00  0.00    +0.000 A 
ATOM     17 CL   UNL     1      -0.613   8.590  22.673  0.00  0.00    +0.000 Cl
ATOM     18  C   UNL     1      -1.271  11.153  23.086  0.00  0.00    +0.000 A 
ATOM     19  C   UNL     1      -1.196  12.530  22.885  0.00  0.00    +0.000 A 
ATOM     20  C   UNL     1      -0.360  13.034  21.894  0.00  0.00    +0.000 A 
ATOM     21  C   UNL     1       0.422  12.164  21.117  0.00  0.00    +0.000 A 
ATOM     22 CL   UNL     1       1.447  12.883  19.921  0.00  0.00    +0.000 Cl
ENDBRANCH  14  15
ENDBRANCH  10  13
BRANCH   1  23
ATOM     23  O   UNL     1       2.543   4.667  20.945  0.00  0.00    +0.000 OA
BRANCH  23  25
ATOM     24  C   UNL     1       1.428   2.816  21.849  0.00  0.00    +0.000 C 
ATOM     25  C   UNL     1       1.473   3.804  20.716  0.00  0.00    +0.000 C 
ATOM     26  O   UNL     1       0.695   3.836  19.774  0.00  0.00    +0.000 OA
ENDBRANCH  23  25
ENDBRANCH   1  23
TORSDOF 4
ENDMDL
MODEL 6
REMARK VINA RESULT:      -8.0      1.330      2.491
REMARK  Name = 
REMARK  5 active torsions:
REMARK  status: ('A' for Active; 'I' for Inactive)
REMARK    1  A    between atoms: C_1  and  C_2
REMARK    2  A    between atoms: C_2  and  O_4
REMARK    3  A    between atoms: O_4  and  C_5
REMARK    4  A    between atoms: C_14  and  C_15
REMARK    5  A    between atoms: C_16  and  C_17
REMARK                            x       y       z     vdW  Elec       q    Type
REMARK                         _______ _______ _______ _____ _____    ______ ____
ROOT
ATOM      1  C   UNL     1       2.769   4.202  18.517  0.00  0.00    +0.000 A 
ATOM      2  C   UNL     1       3.460   3.066  18.092  0.00  0.00    +0.000 A 
ATOM      3 CL   UNL     1       2.967   1.479  18.558  0.00  0.00    +0.000 Cl
ATOM      4  C   UNL     1       4.553   3.205  17.248  0.00  0.00    +0.000 A 
ATOM      5  C   UNL     1       4.933   4.481  16.826  0.00  0.00    +0.000 A 
ATOM      6 CL   UNL     1       6.300   4.578  15.764  0.00  0.00    +0.000 Cl
ATOM      7  C   UNL     1       4.217   5.639  17.228  0.00  0.00    +0.000 A 
ATOM      8  C   UNL     1       4.515   6.959  16.816  0.00  0.00    +0.000 A 
ATOM      9  C   UNL     1       3.746   8.040  17.250  0.00  0.00    +0.000 A 
ATOM     10  C   UNL     1       2.675   7.791  18.086  0.00  0.00    +0.000 A 
ATOM     11  N   UNL     1       2.353   6.538  18.467  0.00  0.00    +0.000 NA
ATOM     12  C   UNL     1       3.109   5.487  18.082  0.00  0.00    +0.000 A 
ENDROOT
BRANCH  10  13
ATOM     13  C   UNL     1       1.816   8.877  18.593  0.00  0.00    +0.000 C 
ATOM     14  C   UNL     1       1.114   8.757  19.733  0.00  0.00    +0.000 C 
BRANCH  14  15
ATOM     15  C   UNL     1       0.195   9.767  20.289  0.00  0.00    +0.000 A 
ATOM     16  C   UNL     1       0.267  10.138  21.644  0.00  0.00    +0.000 A 
ATOM     17 CL   UNL     1       1.336   9.349  22.758  0.00  0.00    +0.000 Cl
ATOM     18  C   UNL     1      -0.511  11.190  22.145  0.00  0.00    +0.000 A 
ATOM     19  C   UNL     1      -1.365  11.896  21.302  0.00  0.00    +0.000 A 
ATOM     20  C   UNL     1      -1.467  11.529  19.963  0.00  0.00    +0.000 A 
ATOM     21  C   UNL     1      -0.694  10.470  19.459  0.00  0.00    +0.000 A 
ATOM     22 CL   UNL     1      -0.871  10.098  17.777  0.00  0.00    +0.000 Cl
ENDBRANCH  14  15
ENDBRANCH  10  13
BRANCH   1  23
ATOM     23  O   UNL     1       1.596   4.033  19.285  0.00  0.00    +0.000 OA
BRANCH  23  25
ATOM     24  C   UNL     1       1.224   2.746  21.207  0.00  0.00    +0.000 C 
ATOM     25  C   UNL     1       1.793   4.029  20.665  0.00  0.00    +0.000 C 
ATOM     26  O   UNL     1       2.337   4.897  21.330  0.00  0.00    +0.000 OA
ENDBRANCH  23  25
ENDBRANCH   1  23
TORSDOF 4
ENDMDL
MODEL 7
REMARK VINA RESULT:      -8.0      1.740      2.141
REMARK  Name = 
REMARK  5 active torsions:
REMARK  status: ('A' for Active; 'I' for Inactive)
REMARK    1  A    between atoms: C_1  and  C_2
REMARK    2  A    between atoms: C_2  and  O_4
REMARK    3  A    between atoms: O_4  and  C_5
REMARK    4  A    between atoms: C_14  and  C_15
REMARK    5  A    between atoms: C_16  and  C_17
REMARK                            x       y       z     vdW  Elec       q    Type
REMARK                         _______ _______ _______ _____ _____    ______ ____
ROOT
ATOM      1  C   UNL     1       2.790   4.310  18.616  0.00  0.00    +0.000 A 
ATOM      2  C   UNL     1       3.621   3.296  18.134  0.00  0.00    +0.000 A 
ATOM      3 CL   UNL     1       3.339   1.637  18.515  0.00  0.00    +0.000 Cl
ATOM      4  C   UNL     1       4.683   3.620  17.301  0.00  0.00    +0.000 A 
ATOM      5  C   UNL     1       4.894   4.954  16.948  0.00  0.00    +0.000 A 
ATOM      6 CL   UNL     1       6.232   5.283  15.895  0.00  0.00    +0.000 Cl
ATOM      7  C   UNL     1       4.035   5.988  17.407  0.00  0.00    +0.000 A 
ATOM      8  C   UNL     1       4.159   7.355  17.066  0.00  0.00    +0.000 A 
ATOM      9  C   UNL     1       3.258   8.303  17.554  0.00  0.00    +0.000 A 
ATOM     10  C   UNL     1       2.232   7.875  18.373  0.00  0.00    +0.000 A 
ATOM     11  N   UNL     1       2.076   6.572  18.687  0.00  0.00    +0.000 NA
ATOM     12  C   UNL     1       2.960   5.650  18.249  0.00  0.00    +0.000 A 
ENDROOT
BRANCH  10  13
ATOM     13  C   UNL     1       1.242   8.812  18.934  0.00  0.00    +0.000 C 
ATOM     14  C   UNL     1       0.597   9.709  18.168  0.00  0.00    +0.000 C 
BRANCH  14  15
ATOM     15  C   UNL     1      -0.368  10.716  18.648  0.00  0.00    +0.000 A 
ATOM     16  C   UNL     1      -1.662  10.790  18.101  0.00  0.00    +0.000 A 
ATOM     17 CL   UNL     1      -2.152   9.807  16.760  0.00  0.00    +0.000 Cl
ATOM     18  C   UNL     1      -2.624  11.652  18.644  0.00  0.00    +0.000 A 
ATOM     19  C   UNL     1      -2.316  12.446  19.746  0.00  0.00    +0.000 A 
ATOM     20  C   UNL     1      -1.035  12.402  20.287  0.00  0.00    +0.000 A 
ATOM     21  C   UNL     1      -0.065  11.545  19.741  0.00  0.00    +0.000 A 
ATOM     22 CL   UNL     1       1.495  11.543  20.492  0.00  0.00    +0.000 Cl
ENDBRANCH  14  15
ENDBRANCH  10  13
BRANCH   1  23
ATOM     23  O   UNL     1       1.653   3.951  19.371  0.00  0.00    +0.000 OA
BRANCH  23  25
ATOM     24  C   UNL     1       1.332   2.628  21.277  0.00  0.00    +0.000 C 
ATOM     25  C   UNL     1       1.843   3.941  20.752  0.00  0.00    +0.000 C 
ATOM     26  O   UNL     1       2.343   4.826  21.429  0.00  0.00    +0.000 OA
ENDBRANCH  23  25
ENDBRANCH   1  23
TORSDOF 4
ENDMDL
MODEL 8
REMARK VINA RESULT:      -7.9      2.214      3.638
REMARK  Name = 
REMARK  5 active torsions:
REMARK  status: ('A' for Active; 'I' for Inactive)
REMARK    1  A    between atoms: C_1  and  C_2
REMARK    2  A    between atoms: C_2  and  O_4
REMARK    3  A    between atoms: O_4  and  C_5
REMARK    4  A    between atoms: C_14  and  C_15
REMARK    5  A    between atoms: C_16  and  C_17
REMARK                            x       y       z     vdW  Elec       q    Type
REMARK                         _______ _______ _______ _____ _____    ______ ____
ROOT
ATOM      1  C   UNL     1       4.166   5.166  17.698  0.00  0.00    +0.000 A 
ATOM      2  C   UNL     1       4.458   3.909  17.164  0.00  0.00    +0.000 A 
ATOM      3 CL   UNL     1       5.752   3.679  16.046  0.00  0.00    +0.000 Cl
ATOM      4  C   UNL     1       3.714   2.807  17.561  0.00  0.00    +0.000 A 
ATOM      5  C   UNL     1       2.694   2.972  18.501  0.00  0.00    +0.000 A 
ATOM      6 CL   UNL     1       1.815   1.550  18.958  0.00  0.00    +0.000 Cl
ATOM      7  C   UNL     1       2.412   4.241  19.073  0.00  0.00    +0.000 A 
ATOM      8  C   UNL     1       1.423   4.484  20.055  0.00  0.00    +0.000 A 
ATOM      9  C   UNL     1       1.223   5.764  20.573  0.00  0.00    +0.000 A 
ATOM     10  C   UNL     1       2.022   6.793  20.113  0.00  0.00    +0.000 A 
ATOM     11  N   UNL     1       2.991   6.579  19.200  0.00  0.00    +0.000 NA
ATOM     12  C   UNL     1       3.173   5.352  18.666  0.00  0.00    +0.000 A 
ENDROOT
BRANCH  10  13
ATOM     13  C   UNL     1       1.871   8.174  20.605  0.00  0.00    +0.000 C 
ATOM     14  C   UNL     1       0.758   8.893  20.381  0.00  0.00    +0.000 C 
BRANCH  14  15
ATOM     15  C   UNL     1       0.539  10.293  20.790  0.00  0.00    +0.000 A 
ATOM     16  C   UNL     1       0.916  11.356  19.949  0.00  0.00    +0.000 A 
ATOM     17 CL   UNL     1       1.767  11.095  18.462  0.00  0.00    +0.000 Cl
ATOM     18  C   UNL     1       0.588  12.679  20.271  0.00  0.00    +0.000 A 
ATOM     19  C   UNL     1      -0.129  12.964  21.431  0.00  0.00    +0.000 A 
ATOM     20  C   UNL     1      -0.491  11.928  22.287  0.00  0.00    +0.000 A 
ATOM     21  C   UNL     1      -0.158  10.601  21.971  0.00  0.00    +0.000 A 
ATOM     22 CL   UNL     1      -0.667   9.376  23.084  0.00  0.00    +0.000 Cl
ENDBRANCH  14  15
ENDBRANCH  10  13
BRANCH   1  23
ATOM     23  O   UNL     1       5.003   6.254  17.366  0.00  0.00    +0.000 OA
BRANCH  23  25
ATOM     24  C   UNL     1       7.124   7.247  17.316  0.00  0.00    +0.000 C 
ATOM     25  C   UNL     1       6.221   6.286  18.041  0.00  0.00    +0.000 C 
ATOM     26  O   UNL     1       6.518   5.662  19.048  0.00  0.00    +0.000 OA
ENDBRANCH  23  25
ENDBRANCH   1  23
TORSDOF 4
ENDMDL
MODEL 9
REMARK VINA RESULT:      -7.9      1.394      1.954
REMARK  Name = 
REMARK  5 active torsions:
REMARK  status: ('A' for Active; 'I' for Inactive)
REMARK    1  A    between atoms: C_1  and  C_2
REMARK    2  A    between atoms: C_2  and  O_4
REMARK    3  A    between atoms: O_4  and  C_5
REMARK    4  A    between atoms: C_14  and  C_15
REMARK    5  A    between atoms: C_16  and  C_17
REMARK                            x       y       z     vdW  Elec       q    Type
REMARK                         _______ _______ _______ _____ _____    ______ ____
ROOT
ATOM      1  C   UNL     1       2.624   4.092  18.604  0.00  0.00    +0.000 A 
ATOM      2  C   UNL     1       3.175   2.894  18.147  0.00  0.00    +0.000 A 
ATOM      3 CL   UNL     1       2.573   1.364  18.670  0.00  0.00    +0.000 Cl
ATOM      4  C   UNL     1       4.211   2.924  17.225  0.00  0.00    +0.000 A 
ATOM      5  C   UNL     1       4.677   4.155  16.758  0.00  0.00    +0.000 A 
ATOM      6 CL   UNL     1       5.965   4.116  15.599  0.00  0.00    +0.000 Cl
ATOM      7  C   UNL     1       4.101   5.378  17.193  0.00  0.00    +0.000 A 
ATOM      8  C   UNL     1       4.489   6.661  16.742  0.00  0.00    +0.000 A 
ATOM      9  C   UNL     1       3.857   7.813  17.214  0.00  0.00    +0.000 A 
ATOM     10  C   UNL     1       2.832   7.672  18.129  0.00  0.00    +0.000 A 
ATOM     11  N   UNL     1       2.424   6.457  18.550  0.00  0.00    +0.000 NA
ATOM     12  C   UNL     1       3.049   5.337  18.127  0.00  0.00    +0.000 A 
ENDROOT
BRANCH  10  13
ATOM     13  C   UNL     1       2.117   8.837  18.680  0.00  0.00    +0.000 C 
ATOM     14  C   UNL     1       1.127   8.705  19.580  0.00  0.00    +0.000 C 
BRANCH  14  15
ATOM     15  C   UNL     1       0.325   9.805  20.146  0.00  0.00    +0.000 A 
ATOM     16  C   UNL     1      -0.638  10.470  19.365  0.00  0.00    +0.000 A 
ATOM     17 CL   UNL     1      -0.846  10.132  17.678  0.00  0.00    +0.000 Cl
ATOM     18  C   UNL     1      -1.495  11.421  19.935  0.00  0.00    +0.000 A 
ATOM     19  C   UNL     1      -1.413  11.717  21.293  0.00  0.00    +0.000 A 
ATOM     20  C   UNL     1      -0.452  11.086  22.077  0.00  0.00    +0.000 A 
ATOM     21  C   UNL     1       0.414  10.137  21.508  0.00  0.00    +0.000 A 
ATOM     22 CL   UNL     1       1.563   9.388  22.565  0.00  0.00    +0.000 Cl
ENDBRANCH  14  15
ENDBRANCH  10  13
BRANCH   1  23
ATOM     23  O   UNL     1       1.500   4.040  19.457  0.00  0.00    +0.000 OA
BRANCH  23  25
ATOM     24  C   UNL     1       1.230   2.753  21.395  0.00  0.00    +0.000 C 
ATOM     25  C   UNL     1       1.796   4.022  20.819  0.00  0.00    +0.000 C 
ATOM     26  O   UNL     1       2.413   4.869  21.446  0.00  0.00    +0.000 OA
ENDBRANCH  23  25
ENDBRANCH   1  23
TORSDOF 4
ENDMDL
