MODEL 1
REMARK VINA RESULT:      -7.4      0.000      0.000
REMARK  Name = 
REMARK  5 active torsions:
REMARK  status: ('A' for Active; 'I' for Inactive)
REMARK    1  A    between atoms: C_1  and  C_2
REMARK    2  A    between atoms: C_7  and  C_8
REMARK    3  A    between atoms: C_9  and  C_10
REMARK    4  A    between atoms: C_15  and  S_16
REMARK    5  A    between atoms: S_16  and  C_17
REMARK                            x       y       z     vdW  Elec       q    Type
REMARK                         _______ _______ _______ _____ _____    ______ ____
ROOT
ATOM      1  C   UNL     1       5.460   4.316  15.267  0.00  0.00    +0.000 A 
ATOM      2  C   UNL     1       5.340   3.597  14.068  0.00  0.00    +0.000 A 
ATOM      3  C   UNL     1       6.257   3.778  13.026  0.00  0.00    +0.000 A 
ATOM      4  C   UNL     1       7.307   4.680  13.170  0.00  0.00    +0.000 A 
ATOM      5  C   UNL     1       7.437   5.409  14.351  0.00  0.00    +0.000 A 
ATOM      6  C   UNL     1       6.512   5.235  15.393  0.00  0.00    +0.000 A 
ENDROOT
BRANCH   6   7
ATOM      7  S   UNL     1       6.730   6.215  16.860  0.00  0.00    +0.000 S 
ATOM      8  C   UNL     1       7.107   5.046  18.138  0.00  0.00    +0.000 C 
ATOM      9  O   UNL     1       7.871   7.084  16.655  0.00  0.00    +0.000 OA
ATOM     10  O   UNL     1       5.436   6.785  17.200  0.00  0.00    +0.000 OA
ENDBRANCH   6   7
BRANCH   1  12
ATOM     11  C   UNL     1       3.671   3.865  17.149  0.00  0.00    +0.000 C 
ATOM     12  C   UNL     1       4.488   4.064  16.292  0.00  0.00    +0.000 C 
BRANCH  11  19
ATOM     13  C   UNL     1       3.699   5.463  19.664  0.00  0.00    +0.000 C 
ATOM     14  C   UNL     1       2.693   4.393  19.372  0.00  0.00    +0.000 A 
ATOM     15  C   UNL     1       1.680   4.118  20.297  0.00  0.00    +0.000 A 
ATOM     16  C   UNL     1       0.743   3.128  20.026  0.00  0.00    +0.000 A 
ATOM     17  C   UNL     1       0.845   2.443  18.827  0.00  0.00    +0.000 A 
ATOM     18  N   UNL     1       1.800   2.685  17.900  0.00  0.00    +0.000 NA
ATOM     19  C   UNL     1       2.703   3.649  18.190  0.00  0.00    +0.000 A 
ENDBRANCH  11  19
ENDBRANCH   1  12
TORSDOF 3
ENDMDL
MODEL 2
REMARK VINA RESULT:      -7.3      0.839      1.057
REMARK  Name = 
REMARK  5 active torsions:
REMARK  status: ('A' for Active; 'I' for Inactive)
REMARK    1  A    between atoms: C_1  and  C_2
REMARK    2  A    between atoms: C_7  and  C_8
REMARK    3  A    between atoms: C_9  and  C_10
REMARK    4  A    between atoms: C_15  and  S_16
REMARK    5  A    between atoms: S_16  and  C_17
REMARK                            x       y       z     vdW  Elec       q    Type
REMARK                         _______ _______ _______ _____ _____    ______ ____
ROOT
ATOM      1  C   UNL     1       5.470   4.263  15.261  0.00  0.00    +0.000 A 
ATOM      2  C   UNL     1       5.322   3.580  14.044  0.00  0.00    +0.000 A 
ATOM      3  C   UNL     1       6.231   3.770  12.998  0.00  0.00    +0.000 A 
ATOM      4  C   UNL     1       7.302   4.644  13.154  0.00  0.00    +0.000 A 
ATOM      5  C   UNL     1       7.461   5.336  14.353  0.00  0.00    +0.000 A 
ATOM      6  C   UNL     1       6.544   5.154  15.400  0.00  0.00    +0.000 A 
ENDROOT
BRANCH   6   7
ATOM      7  S   UNL     1       6.799   6.088  16.891  0.00  0.00    +0.000 S 
ATOM      8  C   UNL     1       5.326   7.055  17.081  0.00  0.00    +0.000 C 
ATOM      9  O   UNL     1       6.903   5.154  17.994  0.00  0.00    +0.000 OA
ATOM     10  O   UNL     1       7.876   7.031  16.637  0.00  0.00    +0.000 OA
ENDBRANCH   6   7
BRANCH   1  12
ATOM     11  C   UNL     1       3.689   3.797  17.147  0.00  0.00    +0.000 C 
ATOM     12  C   UNL     1       4.504   4.003  16.290  0.00  0.00    +0.000 C 
BRANCH  11  19
ATOM     13  C   UNL     1       3.733   5.354  19.687  0.00  0.00    +0.000 C 
ATOM     14  C   UNL     1       2.714   4.301  19.376  0.00  0.00    +0.000 A 
ATOM     15  C   UNL     1       1.696   4.024  20.295  0.00  0.00    +0.000 A 
ATOM     16  C   UNL     1       0.747   3.050  20.007  0.00  0.00    +0.000 A 
ATOM     17  C   UNL     1       0.843   2.384  18.798  0.00  0.00    +0.000 A 
ATOM     18  N   UNL     1       1.802   2.628  17.876  0.00  0.00    +0.000 NA
ATOM     19  C   UNL     1       2.717   3.576  18.183  0.00  0.00    +0.000 A 
ENDBRANCH  11  19
ENDBRANCH   1  12
TORSDOF 3
ENDMDL
MODEL 3
REMARK VINA RESULT:      -7.3      1.078      1.387
REMARK  Name = 
REMARK  5 active torsions:
REMARK  status: ('A' for Active; 'I' for Inactive)
REMARK    1  A    between atoms: C_1  and  C_2
REMARK    2  A    between atoms: C_7  and  C_8
REMARK    3  A    between atoms: C_9  and  C_10
REMARK    4  A    between atoms: C_15  and  S_16
REMARK    5  A    between atoms: S_16  and  C_17
REMARK                            x       y       z     vdW  Elec       q    Type
REMARK                         _______ _______ _______ _____ _____    ______ ____
ROOT
ATOM      1  C   UNL     1       5.576   4.267  15.679  0.00  0.00    +0.000 A 
ATOM      2  C   UNL     1       5.374   3.509  14.516  0.00  0.00    +0.000 A 
ATOM      3  C   UNL     1       6.162   3.714  13.379  0.00  0.00    +0.000 A 
ATOM      4  C   UNL     1       7.164   4.679  13.389  0.00  0.00    +0.000 A 
ATOM      5  C   UNL     1       7.374   5.446  14.533  0.00  0.00    +0.000 A 
ATOM      6  C   UNL     1       6.577   5.248  15.672  0.00  0.00    +0.000 A 
ENDROOT
BRANCH   6   7
ATOM      7  S   UNL     1       6.889   6.280  17.086  0.00  0.00    +0.000 S 
ATOM      8  C   UNL     1       7.553   5.186  18.311  0.00  0.00    +0.000 C 
ATOM      9  O   UNL     1       7.896   7.254  16.717  0.00  0.00    +0.000 OA
ATOM     10  O   UNL     1       5.601   6.726  17.593  0.00  0.00    +0.000 OA
ENDBRANCH   6   7
BRANCH   1  12
ATOM     11  C   UNL     1       4.021   3.754  17.745  0.00  0.00    +0.000 C 
ATOM     12  C   UNL     1       4.735   3.987  16.808  0.00  0.00    +0.000 C 
BRANCH  11  19
ATOM     13  C   UNL     1       1.115   4.406  17.641  0.00  0.00    +0.000 C 
ATOM     14  C   UNL     1       1.785   3.787  18.829  0.00  0.00    +0.000 A 
ATOM     15  C   UNL     1       1.032   3.459  19.962  0.00  0.00    +0.000 A 
ATOM     16  C   UNL     1       1.650   2.881  21.064  0.00  0.00    +0.000 A 
ATOM     17  C   UNL     1       3.012   2.641  20.996  0.00  0.00    +0.000 A 
ATOM     18  N   UNL     1       3.776   2.930  19.918  0.00  0.00    +0.000 NA
ATOM     19  C   UNL     1       3.151   3.498  18.861  0.00  0.00    +0.000 A 
ENDBRANCH  11  19
ENDBRANCH   1  12
TORSDOF 3
ENDMDL
MODEL 4
REMARK VINA RESULT:      -7.3      4.059      5.190
REMARK  Name = 
REMARK  5 active torsions:
REMARK  status: ('A' for Active; 'I' for Inactive)
REMARK    1  A    between atoms: C_1  and  C_2
REMARK    2  A    between atoms: C_7  and  C_8
REMARK    3  A    between atoms: C_9  and  C_10
REMARK    4  A    between atoms: C_15  and  S_16
REMARK    5  A    between atoms: S_16  and  C_17
REMARK                            x       y       z     vdW  Elec       q    Type
REMARK                         _______ _______ _______ _____ _____    ______ ____
ROOT
ATOM      1  C   UNL     1       3.842   6.077  17.526  0.00  0.00    +0.000 A 
ATOM      2  C   UNL     1       4.904   6.691  16.846  0.00  0.00    +0.000 A 
ATOM      3  C   UNL     1       5.752   5.947  16.017  0.00  0.00    +0.000 A 
ATOM      4  C   UNL     1       5.549   4.580  15.857  0.00  0.00    +0.000 A 
ATOM      5  C   UNL     1       4.503   3.952  16.531  0.00  0.00    +0.000 A 
ATOM      6  C   UNL     1       3.657   4.696  17.371  0.00  0.00    +0.000 A 
ENDROOT
BRANCH   6   7
ATOM      7  S   UNL     1       2.359   3.822  18.215  0.00  0.00    +0.000 S 
ATOM      8  C   UNL     1       2.677   2.109  17.891  0.00  0.00    +0.000 C 
ATOM      9  O   UNL     1       2.498   4.074  19.635  0.00  0.00    +0.000 OA
ATOM     10  O   UNL     1       1.110   4.139  17.542  0.00  0.00    +0.000 OA
ENDBRANCH   6   7
BRANCH   1  12
ATOM     11  C   UNL     1       2.322   7.615  19.033  0.00  0.00    +0.000 C 
ATOM     12  C   UNL     1       3.009   6.910  18.346  0.00  0.00    +0.000 C 
BRANCH  11  19
ATOM     13  C   UNL     1       0.736   9.879  17.918  0.00  0.00    +0.000 C 
ATOM     14  C   UNL     1       0.761   9.520  19.372  0.00  0.00    +0.000 A 
ATOM     15  C   UNL     1      -0.009  10.250  20.283  0.00  0.00    +0.000 A 
ATOM     16  C   UNL     1       0.009   9.916  21.632  0.00  0.00    +0.000 A 
ATOM     17  C   UNL     1       0.800   8.851  22.029  0.00  0.00    +0.000 A 
ATOM     18  N   UNL     1       1.550   8.111  21.182  0.00  0.00    +0.000 NA
ATOM     19  C   UNL     1       1.519   8.460  19.875  0.00  0.00    +0.000 A 
ENDBRANCH  11  19
ENDBRANCH   1  12
TORSDOF 3
ENDMDL
MODEL 5
REMARK VINA RESULT:      -7.3      4.149      5.303
REMARK  Name = 
REMARK  5 active torsions:
REMARK  status: ('A' for Active; 'I' for Inactive)
REMARK    1  A    between atoms: C_1  and  C_2
REMARK    2  A    between atoms: C_7  and  C_8
REMARK    3  A    between atoms: C_9  and  C_10
REMARK    4  A    between atoms: C_15  and  S_16
REMARK    5  A    between atoms: S_16  and  C_17
REMARK                            x       y       z     vdW  Elec       q    Type
REMARK                         _______ _______ _______ _____ _____    ______ ____
ROOT
ATOM      1  C   UNL     1       3.930   6.131  17.373  0.00  0.00    +0.000 A 
ATOM      2  C   UNL     1       5.100   6.591  16.751  0.00  0.00    +0.000 A 
ATOM      3  C   UNL     1       5.989   5.697  16.142  0.00  0.00    +0.000 A 
ATOM      4  C   UNL     1       5.718   4.333  16.147  0.00  0.00    +0.000 A 
ATOM      5  C   UNL     1       4.564   3.858  16.767  0.00  0.00    +0.000 A 
ATOM      6  C   UNL     1       3.676   4.752  17.386  0.00  0.00    +0.000 A 
ENDROOT
BRANCH   6   7
ATOM      7  S   UNL     1       2.237   4.071  18.176  0.00  0.00    +0.000 S 
ATOM      8  C   UNL     1       2.450   2.314  18.075  0.00  0.00    +0.000 C 
ATOM      9  O   UNL     1       2.254   4.475  19.567  0.00  0.00    +0.000 OA
ATOM     10  O   UNL     1       1.089   4.391  17.343  0.00  0.00    +0.000 OA
ENDBRANCH   6   7
BRANCH   1  12
ATOM     11  C   UNL     1       2.341   7.941  18.447  0.00  0.00    +0.000 C 
ATOM     12  C   UNL     1       3.062   7.112  17.962  0.00  0.00    +0.000 C 
BRANCH  11  19
ATOM     13  C   UNL     1       1.294   7.691  21.225  0.00  0.00    +0.000 C 
ATOM     14  C   UNL     1       1.006   8.858  20.331  0.00  0.00    +0.000 A 
ATOM     15  C   UNL     1       0.226   9.920  20.801  0.00  0.00    +0.000 A 
ATOM     16  C   UNL     1      -0.038  11.006  19.975  0.00  0.00    +0.000 A 
ATOM     17  C   UNL     1       0.494  10.997  18.697  0.00  0.00    +0.000 A 
ATOM     18  N   UNL     1       1.262   9.998  18.206  0.00  0.00    +0.000 NA
ATOM     19  C   UNL     1       1.499   8.951  19.028  0.00  0.00    +0.000 A 
ENDBRANCH  11  19
ENDBRANCH   1  12
TORSDOF 3
ENDMDL
MODEL 6
REMARK VINA RESULT:      -7.2      1.345      1.709
REMARK  Name = 
REMARK  5 active torsions:
REMARK  status: ('A' for Active; 'I' for Inactive)
REMARK    1  A    between atoms: C_1  and  C_2
REMARK    2  A    between atoms: C_7  and  C_8
REMARK    3  A    between atoms: C_9  and  C_10
REMARK    4  A    between atoms: C_15  and  S_16
REMARK    5  A    between atoms: S_16  and  C_17
REMARK                            x       y       z     vdW  Elec       q    Type
REMARK                         _______ _______ _______ _____ _____    ______ ____
ROOT
ATOM      1  C   UNL     1       5.592   4.229  15.636  0.00  0.00    +0.000 A 
ATOM      2  C   UNL     1       5.347   3.498  14.464  0.00  0.00    +0.000 A 
ATOM      3  C   UNL     1       6.124   3.700  13.317  0.00  0.00    +0.000 A 
ATOM      4  C   UNL     1       7.155   4.633  13.328  0.00  0.00    +0.000 A 
ATOM      5  C   UNL     1       7.407   5.373  14.481  0.00  0.00    +0.000 A 
ATOM      6  C   UNL     1       6.623   5.179  15.630  0.00  0.00    +0.000 A 
ENDROOT
BRANCH   6   7
ATOM      7  S   UNL     1       6.989   6.175  17.056  0.00  0.00    +0.000 S 
ATOM      8  C   UNL     1       5.466   6.997  17.442  0.00  0.00    +0.000 C 
ATOM      9  O   UNL     1       7.343   5.288  18.145  0.00  0.00    +0.000 OA
ATOM     10  O   UNL     1       7.917   7.213  16.637  0.00  0.00    +0.000 OA
ENDBRANCH   6   7
BRANCH   1  12
ATOM     11  C   UNL     1       4.057   3.720  17.719  0.00  0.00    +0.000 C 
ATOM     12  C   UNL     1       4.761   3.955  16.774  0.00  0.00    +0.000 C 
BRANCH  11  19
ATOM     13  C   UNL     1       1.150   4.369  17.636  0.00  0.00    +0.000 C 
ATOM     14  C   UNL     1       1.826   3.737  18.813  0.00  0.00    +0.000 A 
ATOM     15  C   UNL     1       1.079   3.395  19.946  0.00  0.00    +0.000 A 
ATOM     16  C   UNL     1       1.704   2.804  21.038  0.00  0.00    +0.000 A 
ATOM     17  C   UNL     1       3.066   2.567  20.960  0.00  0.00    +0.000 A 
ATOM     18  N   UNL     1       3.824   2.870  19.882  0.00  0.00    +0.000 NA
ATOM     19  C   UNL     1       3.193   3.449  18.835  0.00  0.00    +0.000 A 
ENDBRANCH  11  19
ENDBRANCH   1  12
TORSDOF 3
ENDMDL
MODEL 7
REMARK VINA RESULT:      -7.1      0.969      1.433
REMARK  Name = 
REMARK  5 active torsions:
REMARK  status: ('A' for Active; 'I' for Inactive)
REMARK    1  A    between atoms: C_1  and  C_2
REMARK    2  A    between atoms: C_7  and  C_8
REMARK    3  A    between atoms: C_9  and  C_10
REMARK    4  A    between atoms: C_15  and  S_16
REMARK    5  A    between atoms: S_16  and  C_17
REMARK                            x       y       z     vdW  Elec       q    Type
REMARK                         _______ _______ _______ _____ _____    ______ ____
ROOT
ATOM      1  C   UNL     1       5.484   4.353  15.383  0.00  0.00    +0.000 A 
ATOM      2  C   UNL     1       5.290   3.636  14.192  0.00  0.00    +0.000 A 
ATOM      3  C   UNL     1       6.162   3.792  13.110  0.00  0.00    +0.000 A 
ATOM      4  C   UNL     1       7.241   4.665  13.203  0.00  0.00    +0.000 A 
ATOM      5  C   UNL     1       7.445   5.391  14.375  0.00  0.00    +0.000 A 
ATOM      6  C   UNL     1       6.565   5.242  15.459  0.00  0.00    +0.000 A 
ENDROOT
BRANCH   6   7
ATOM      7  S   UNL     1       6.876   6.217  16.913  0.00  0.00    +0.000 S 
ATOM      8  C   UNL     1       7.476   5.063  18.116  0.00  0.00    +0.000 C 
ATOM      9  O   UNL     1       7.922   7.169  16.600  0.00  0.00    +0.000 OA
ATOM     10  O   UNL     1       5.592   6.689  17.406  0.00  0.00    +0.000 OA
ENDBRANCH   6   7
BRANCH   1  12
ATOM     11  C   UNL     1       3.785   3.938  17.356  0.00  0.00    +0.000 C 
ATOM     12  C   UNL     1       4.553   4.127  16.453  0.00  0.00    +0.000 C 
BRANCH  11  19
ATOM     13  C   UNL     1       3.521   1.235  18.581  0.00  0.00    +0.000 C 
ATOM     14  C   UNL     1       2.748   2.433  19.040  0.00  0.00    +0.000 A 
ATOM     15  C   UNL     1       1.863   2.321  20.117  0.00  0.00    +0.000 A 
ATOM     16  C   UNL     1       1.148   3.433  20.548  0.00  0.00    +0.000 A 
ATOM     17  C   UNL     1       1.347   4.632  19.885  0.00  0.00    +0.000 A 
ATOM     18  N   UNL     1       2.201   4.789  18.848  0.00  0.00    +0.000 NA
ATOM     19  C   UNL     1       2.880   3.690  18.445  0.00  0.00    +0.000 A 
ENDBRANCH  11  19
ENDBRANCH   1  12
TORSDOF 3
ENDMDL
MODEL 8
REMARK VINA RESULT:      -7.0      1.287      1.766
REMARK  Name = 
REMARK  5 active torsions:
REMARK  status: ('A' for Active; 'I' for Inactive)
REMARK    1  A    between atoms: C_1  and  C_2
REMARK    2  A    between atoms: C_7  and  C_8
REMARK    3  A    between atoms: C_9  and  C_10
REMARK    4  A    between atoms: C_15  and  S_16
REMARK    5  A    between atoms: S_16  and  C_17
REMARK                            x       y       z     vdW  Elec       q    Type
REMARK                         _______ _______ _______ _____ _____    ______ ____
ROOT
ATOM      1  C   UNL     1       5.463   4.302  15.393  0.00  0.00    +0.000 A 
ATOM      2  C   UNL     1       5.238   3.606  14.196  0.00  0.00    +0.000 A 
ATOM      3  C   UNL     1       6.100   3.758  13.104  0.00  0.00    +0.000 A 
ATOM      4  C   UNL     1       7.199   4.606  13.195  0.00  0.00    +0.000 A 
ATOM      5  C   UNL     1       7.433   5.311  14.374  0.00  0.00    +0.000 A 
ATOM      6  C   UNL     1       6.563   5.167  15.468  0.00  0.00    +0.000 A 
ENDROOT
BRANCH   6   7
ATOM      7  S   UNL     1       6.913   6.115  16.930  0.00  0.00    +0.000 S 
ATOM      8  C   UNL     1       5.416   7.003  17.267  0.00  0.00    +0.000 C 
ATOM      9  O   UNL     1       7.174   5.189  18.014  0.00  0.00    +0.000 OA
ATOM     10  O   UNL     1       7.908   7.114  16.575  0.00  0.00    +0.000 OA
ENDBRANCH   6   7
BRANCH   1  12
ATOM     11  C   UNL     1       3.778   3.904  17.381  0.00  0.00    +0.000 C 
ATOM     12  C   UNL     1       4.541   4.081  16.472  0.00  0.00    +0.000 C 
BRANCH  11  19
ATOM     13  C   UNL     1       3.496   1.221  18.648  0.00  0.00    +0.000 C 
ATOM     14  C   UNL     1       2.746   2.436  19.101  0.00  0.00    +0.000 A 
ATOM     15  C   UNL     1       1.874   2.350  20.192  0.00  0.00    +0.000 A 
ATOM     16  C   UNL     1       1.180   3.477  20.616  0.00  0.00    +0.000 A 
ATOM     17  C   UNL     1       1.385   4.664  19.934  0.00  0.00    +0.000 A 
ATOM     18  N   UNL     1       2.226   4.795  18.884  0.00  0.00    +0.000 NA
ATOM     19  C   UNL     1       2.885   3.683  18.487  0.00  0.00    +0.000 A 
ENDBRANCH  11  19
ENDBRANCH   1  12
TORSDOF 3
ENDMDL
MODEL 9
REMARK VINA RESULT:      -7.0      3.838      4.941
REMARK  Name = 
REMARK  5 active torsions:
REMARK  status: ('A' for Active; 'I' for Inactive)
REMARK    1  A    between atoms: C_1  and  C_2
REMARK    2  A    between atoms: C_7  and  C_8
REMARK    3  A    between atoms: C_9  and  C_10
REMARK    4  A    between atoms: C_15  and  S_16
REMARK    5  A    between atoms: S_16  and  C_17
REMARK                            x       y       z     vdW  Elec       q    Type
REMARK                         _______ _______ _______ _____ _____    ______ ____
ROOT
ATOM      1  C   UNL     1       4.129   5.774  17.377  0.00  0.00    +0.000 A 
ATOM      2  C   UNL     1       5.268   6.343  16.787  0.00  0.00    +0.000 A 
ATOM      3  C   UNL     1       6.124   5.576  15.990  0.00  0.00    +0.000 A 
ATOM      4  C   UNL     1       5.853   4.229  15.771  0.00  0.00    +0.000 A 
ATOM      5  C   UNL     1       4.731   3.645  16.355  0.00  0.00    +0.000 A 
ATOM      6  C   UNL     1       3.875   4.412  17.163  0.00  0.00    +0.000 A 
ENDROOT
BRANCH   6   7
ATOM      7  S   UNL     1       2.476   3.592  17.892  0.00  0.00    +0.000 S 
ATOM      8  C   UNL     1       2.713   3.754  19.641  0.00  0.00    +0.000 C 
ATOM      9  O   UNL     1       1.281   4.313  17.502  0.00  0.00    +0.000 OA
ATOM     10  O   UNL     1       2.596   2.175  17.593  0.00  0.00    +0.000 OA
ENDBRANCH   6   7
BRANCH   1  12
ATOM     11  C   UNL     1       2.588   7.337  18.837  0.00  0.00    +0.000 C 
ATOM     12  C   UNL     1       3.293   6.631  18.169  0.00  0.00    +0.000 C 
BRANCH  11  19
ATOM     13  C   UNL     1       1.571   9.945  17.817  0.00  0.00    +0.000 C 
ATOM     14  C   UNL     1       1.226   9.389  19.164  0.00  0.00    +0.000 A 
ATOM     15  C   UNL     1       0.361  10.094  20.008  0.00  0.00    +0.000 A 
ATOM     16  C   UNL     1       0.035   9.578  21.257  0.00  0.00    +0.000 A 
ATOM     17  C   UNL     1       0.586   8.361  21.623  0.00  0.00    +0.000 A 
ATOM     18  N   UNL     1       1.416   7.641  20.835  0.00  0.00    +0.000 NA
ATOM     19  C   UNL     1       1.721   8.168  19.627  0.00  0.00    +0.000 A 
ENDBRANCH  11  19
ENDBRANCH   1  12
TORSDOF 3
ENDMDL
