MODEL 1
REMARK VINA RESULT:      -7.6      0.000      0.000
REMARK  Name = 
REMARK  10 active torsions:
REMARK  status: ('A' for Active; 'I' for Inactive)
REMARK    1  A    between atoms: N_4  and  C_5
REMARK    2  A    between atoms: C_5  and  C_6
REMARK    3  A    between atoms: C_6  and  C_7
REMARK    4  A    between atoms: N_9  and  C_10
REMARK    5  A    between atoms: C_15  and  S_16
REMARK    6  A    between atoms: S_16  and  C_17
REMARK    7  A    between atoms: C_17  and  C_18
REMARK    8  A    between atoms: C_17  and  C_22
REMARK    9  A    between atoms: C_18  and  C_19
REMARK   10  A    between atoms: C_19  and  O_21
REMARK                            x       y       z     vdW  Elec       q    Type
REMARK                         _______ _______ _______ _____ _____    ______ ____
ROOT
ATOM      1  C   UNL     1       2.321   6.847  19.780  0.00  0.00    +0.000 A 
ATOM      2  C   UNL     1       1.732   7.989  20.350  0.00  0.00    +0.000 A 
ATOM      3  C   UNL     1       1.412   9.112  19.591  0.00  0.00    +0.000 A 
ATOM      4  C   UNL     1       1.704   9.133  18.235  0.00  0.00    +0.000 A 
ATOM      5  C   UNL     1       2.316   8.025  17.651  0.00  0.00    +0.000 A 
ATOM      6  C   UNL     1       2.625   6.871  18.401  0.00  0.00    +0.000 A 
ENDROOT
BRANCH   1   9
ATOM      7  C   UNL     1       1.814   4.623  20.777  0.00  0.00    +0.000 C 
ATOM      8  O   UNL     1       0.753   4.441  20.188  0.00  0.00    +0.000 OA
ATOM      9  N   UNL     1       2.644   5.724  20.596  0.00  0.00    +0.000 N 
ATOM     10  H   UNL     1       3.589   5.682  20.959  0.00  0.00    +0.000 HD
BRANCH   7  11
ATOM     11  C   UNL     1       2.293   3.609  21.790  0.00  0.00    +0.000 C 
BRANCH  11  12
ATOM     12  C   UNL     1       2.306   2.232  21.118  0.00  0.00    +0.000 C 
BRANCH  12  16
ATOM     13  N   UNL     1       5.041   1.808  20.325  0.00  0.00    +0.000 NA
ATOM     14  C   UNL     1       4.139   2.154  19.484  0.00  0.00    +0.000 C 
ATOM     15  N   UNL     1       4.400   2.459  18.199  0.00  0.00    +0.000 N 
ATOM     16  N   UNL     1       2.816   2.258  19.749  0.00  0.00    +0.000 N 
ATOM     17  H   UNL     1       5.953   1.836  19.869  0.00  0.00    +0.000 HD
ATOM     18  H   UNL     1       5.305   2.155  17.860  0.00  0.00    +0.000 HD
ATOM     19  H   UNL     1       3.662   2.177  17.564  0.00  0.00    +0.000 HD
ATOM     20  H   UNL     1       2.395   3.015  19.223  0.00  0.00    +0.000 HD
ENDBRANCH  12  16
ENDBRANCH  11  12
ENDBRANCH   7  11
ENDBRANCH   1   9
BRANCH   6  21
ATOM     21  S   UNL     1       3.444   5.578  17.468  0.00  0.00    +0.000 S 
BRANCH  21  22
ATOM     22  C   UNL     1       5.110   6.278  17.102  0.00  0.00    +0.000 C 
BRANCH  22  23
ATOM     23  C   UNL     1       5.750   5.544  15.933  0.00  0.00    +0.000 A 
ATOM     24  C   UNL     1       5.022   4.580  15.228  0.00  0.00    +0.000 A 
ATOM     25  C   UNL     1       5.567   3.981  14.096  0.00  0.00    +0.000 A 
ATOM     26  C   UNL     1       6.836   4.361  13.699  0.00  0.00    +0.000 A 
ATOM     27  N   UNL     1       7.593   5.252  14.371  0.00  0.00    +0.000 NA
ATOM     28  C   UNL     1       7.044   5.808  15.477  0.00  0.00    +0.000 A 
ENDBRANCH  22  23
BRANCH  22  29
ATOM     29  C   UNL     1       6.098   6.532  18.250  0.00  0.00    +0.000 C 
BRANCH  29  30
ATOM     30  C   UNL     1       6.614   5.328  18.988  0.00  0.00    +0.000 C 
ATOM     31  O   UNL     1       7.673   4.753  18.812  0.00  0.00    +0.000 OA
BRANCH  30  32
ATOM     32  O   UNL     1       5.723   4.878  19.896  0.00  0.00    +0.000 OA
ATOM     33  H   UNL     1       4.852   5.201  19.586  0.00  0.00    +0.000 HD
ENDBRANCH  30  32
ENDBRANCH  29  30
ENDBRANCH  22  29
ENDBRANCH  21  22
ENDBRANCH   6  21
TORSDOF 10
ENDMDL
MODEL 2
REMARK VINA RESULT:      -7.6      0.557      1.043
REMARK  Name = 
REMARK  10 active torsions:
REMARK  status: ('A' for Active; 'I' for Inactive)
REMARK    1  A    between atoms: N_4  and  C_5
REMARK    2  A    between atoms: C_5  and  C_6
REMARK    3  A    between atoms: C_6  and  C_7
REMARK    4  A    between atoms: N_9  and  C_10
REMARK    5  A    between atoms: C_15  and  S_16
REMARK    6  A    between atoms: S_16  and  C_17
REMARK    7  A    between atoms: C_17  and  C_18
REMARK    8  A    between atoms: C_17  and  C_22
REMARK    9  A    between atoms: C_18  and  C_19
REMARK   10  A    between atoms: C_19  and  O_21
REMARK                            x       y       z     vdW  Elec       q    Type
REMARK                         _______ _______ _______ _____ _____    ______ ____
ROOT
ATOM      1  C   UNL     1       2.259   6.840  19.748  0.00  0.00    +0.000 A 
ATOM      2  C   UNL     1       1.702   7.990  20.331  0.00  0.00    +0.000 A 
ATOM      3  C   UNL     1       1.366   9.112  19.577  0.00  0.00    +0.000 A 
ATOM      4  C   UNL     1       1.610   9.122  18.212  0.00  0.00    +0.000 A 
ATOM      5  C   UNL     1       2.191   8.005  17.613  0.00  0.00    +0.000 A 
ATOM      6  C   UNL     1       2.514   6.852  18.359  0.00  0.00    +0.000 A 
ENDROOT
BRANCH   1   9
ATOM      7  C   UNL     1       1.775   4.616  20.757  0.00  0.00    +0.000 C 
ATOM      8  O   UNL     1       0.703   4.431  20.189  0.00  0.00    +0.000 OA
ATOM      9  N   UNL     1       2.599   5.718  20.559  0.00  0.00    +0.000 N 
ATOM     10  H   UNL     1       3.551   5.678  20.904  0.00  0.00    +0.000 HD
BRANCH   7  11
ATOM     11  C   UNL     1       2.275   3.604  21.763  0.00  0.00    +0.000 C 
BRANCH  11  12
ATOM     12  C   UNL     1       2.409   2.252  21.053  0.00  0.00    +0.000 C 
BRANCH  12  16
ATOM     13  N   UNL     1       1.818   1.916  18.255  0.00  0.00    +0.000 NA
ATOM     14  C   UNL     1       3.022   1.987  18.688  0.00  0.00    +0.000 C 
ATOM     15  N   UNL     1       4.104   1.799  17.909  0.00  0.00    +0.000 N 
ATOM     16  N   UNL     1       3.382   2.261  19.964  0.00  0.00    +0.000 N 
ATOM     17  H   UNL     1       1.833   1.672  17.265  0.00  0.00    +0.000 HD
ATOM     18  H   UNL     1       3.931   1.853  16.913  0.00  0.00    +0.000 HD
ATOM     19  H   UNL     1       4.890   2.382  18.173  0.00  0.00    +0.000 HD
ATOM     20  H   UNL     1       4.219   1.752  20.225  0.00  0.00    +0.000 HD
ENDBRANCH  12  16
ENDBRANCH  11  12
ENDBRANCH   7  11
ENDBRANCH   1   9
BRANCH   6  21
ATOM     21  S   UNL     1       3.287   5.546  17.406  0.00  0.00    +0.000 S 
BRANCH  21  22
ATOM     22  C   UNL     1       5.043   6.086  17.248  0.00  0.00    +0.000 C 
BRANCH  22  23
ATOM     23  C   UNL     1       5.683   5.463  16.016  0.00  0.00    +0.000 A 
ATOM     24  C   UNL     1       4.983   4.508  15.271  0.00  0.00    +0.000 A 
ATOM     25  C   UNL     1       5.522   4.012  14.088  0.00  0.00    +0.000 A 
ATOM     26  C   UNL     1       6.758   4.481  13.682  0.00  0.00    +0.000 A 
ATOM     27  N   UNL     1       7.489   5.366  14.389  0.00  0.00    +0.000 NA
ATOM     28  C   UNL     1       6.947   5.822  15.543  0.00  0.00    +0.000 A 
ENDBRANCH  22  23
BRANCH  22  29
ATOM     29  C   UNL     1       5.965   6.047  18.474  0.00  0.00    +0.000 C 
BRANCH  29  30
ATOM     30  C   UNL     1       6.396   4.692  18.964  0.00  0.00    +0.000 C 
ATOM     31  O   UNL     1       5.756   3.920  19.654  0.00  0.00    +0.000 OA
BRANCH  30  32
ATOM     32  O   UNL     1       7.659   4.401  18.586  0.00  0.00    +0.000 OA
ATOM     33  H   UNL     1       8.226   4.703  19.326  0.00  0.00    +0.000 HD
ENDBRANCH  30  32
ENDBRANCH  29  30
ENDBRANCH  22  29
ENDBRANCH  21  22
ENDBRANCH   6  21
TORSDOF 10
ENDMDL
MODEL 3
REMARK VINA RESULT:      -7.0      3.615      7.650
REMARK  Name = 
REMARK  10 active torsions:
REMARK  status: ('A' for Active; 'I' for Inactive)
REMARK    1  A    between atoms: N_4  and  C_5
REMARK    2  A    between atoms: C_5  and  C_6
REMARK    3  A    between atoms: C_6  and  C_7
REMARK    4  A    between atoms: N_9  and  C_10
REMARK    5  A    between atoms: C_15  and  S_16
REMARK    6  A    between atoms: S_16  and  C_17
REMARK    7  A    between atoms: C_17  and  C_18
REMARK    8  A    between atoms: C_17  and  C_22
REMARK    9  A    between atoms: C_18  and  C_19
REMARK   10  A    between atoms: C_19  and  O_21
REMARK                            x       y       z     vdW  Elec       q    Type
REMARK                         _______ _______ _______ _____ _____    ______ ____
ROOT
ATOM      1  C   UNL     1       6.915   5.661  17.111  0.00  0.00    +0.000 A 
ATOM      2  C   UNL     1       7.308   5.333  15.803  0.00  0.00    +0.000 A 
ATOM      3  C   UNL     1       6.574   4.455  15.008  0.00  0.00    +0.000 A 
ATOM      4  C   UNL     1       5.433   3.855  15.520  0.00  0.00    +0.000 A 
ATOM      5  C   UNL     1       5.038   4.139  16.826  0.00  0.00    +0.000 A 
ATOM      6  C   UNL     1       5.757   5.045  17.635  0.00  0.00    +0.000 A 
ENDROOT
BRANCH   1   9
ATOM      7  C   UNL     1       7.696   7.937  17.749  0.00  0.00    +0.000 C 
ATOM      8  O   UNL     1       6.946   8.560  17.003  0.00  0.00    +0.000 OA
ATOM      9  N   UNL     1       7.703   6.554  17.894  0.00  0.00    +0.000 N 
ATOM     10  H   UNL     1       8.199   6.153  18.681  0.00  0.00    +0.000 HD
BRANCH   7  11
ATOM     11  C   UNL     1       8.708   8.683  18.588  0.00  0.00    +0.000 C 
BRANCH  11  12
ATOM     12  C   UNL     1       8.626  10.170  18.225  0.00  0.00    +0.000 C 
BRANCH  12  16
ATOM     13  N   UNL     1       9.104  12.886  17.396  0.00  0.00    +0.000 NA
ATOM     14  C   UNL     1      10.064  12.060  17.593  0.00  0.00    +0.000 C 
ATOM     15  N   UNL     1      11.353  12.341  17.324  0.00  0.00    +0.000 N 
ATOM     16  N   UNL     1       9.933  10.809  18.094  0.00  0.00    +0.000 N 
ATOM     17  H   UNL     1       9.479  13.743  16.990  0.00  0.00    +0.000 HD
ATOM     18  H   UNL     1      11.562  13.325  17.201  0.00  0.00    +0.000 HD
ATOM     19  H   UNL     1      11.999  11.912  17.977  0.00  0.00    +0.000 HD
ATOM     20  H   UNL     1      10.603  10.174  17.674  0.00  0.00    +0.000 HD
ENDBRANCH  12  16
ENDBRANCH  11  12
ENDBRANCH   7  11
ENDBRANCH   1   9
BRANCH   6  21
ATOM     21  S   UNL     1       5.104   5.238  19.292  0.00  0.00    +0.000 S 
BRANCH  21  22
ATOM     22  C   UNL     1       3.276   5.211  19.059  0.00  0.00    +0.000 C 
BRANCH  22  23
ATOM     23  C   UNL     1       2.723   6.629  19.020  0.00  0.00    +0.000 A 
ATOM     24  C   UNL     1       2.828   7.389  17.851  0.00  0.00    +0.000 A 
ATOM     25  C   UNL     1       2.235   8.646  17.779  0.00  0.00    +0.000 A 
ATOM     26  C   UNL     1       1.552   9.115  18.886  0.00  0.00    +0.000 A 
ATOM     27  N   UNL     1       1.463   8.438  20.049  0.00  0.00    +0.000 NA
ATOM     28  C   UNL     1       2.062   7.224  20.097  0.00  0.00    +0.000 A 
ENDBRANCH  22  23
BRANCH  22  29
ATOM     29  C   UNL     1       2.412   4.266  19.907  0.00  0.00    +0.000 C 
BRANCH  29  30
ATOM     30  C   UNL     1       1.283   3.560  19.209  0.00  0.00    +0.000 C 
ATOM     31  O   UNL     1       1.156   3.375  18.012  0.00  0.00    +0.000 OA
BRANCH  30  32
ATOM     32  O   UNL     1       0.331   3.157  20.078  0.00  0.00    +0.000 OA
ATOM     33  H   UNL     1       0.481   3.688  20.889  0.00  0.00    +0.000 HD
ENDBRANCH  30  32
ENDBRANCH  29  30
ENDBRANCH  22  29
ENDBRANCH  21  22
ENDBRANCH   6  21
TORSDOF 10
ENDMDL
MODEL 4
REMARK VINA RESULT:      -7.0      0.801      1.265
REMARK  Name = 
REMARK  10 active torsions:
REMARK  status: ('A' for Active; 'I' for Inactive)
REMARK    1  A    between atoms: N_4  and  C_5
REMARK    2  A    between atoms: C_5  and  C_6
REMARK    3  A    between atoms: C_6  and  C_7
REMARK    4  A    between atoms: N_9  and  C_10
REMARK    5  A    between atoms: C_15  and  S_16
REMARK    6  A    between atoms: S_16  and  C_17
REMARK    7  A    between atoms: C_17  and  C_18
REMARK    8  A    between atoms: C_17  and  C_22
REMARK    9  A    between atoms: C_18  and  C_19
REMARK   10  A    between atoms: C_19  and  O_21
REMARK                            x       y       z     vdW  Elec       q    Type
REMARK                         _______ _______ _______ _____ _____    ______ ____
ROOT
ATOM      1  C   UNL     1       2.306   6.788  19.815  0.00  0.00    +0.000 A 
ATOM      2  C   UNL     1       1.743   7.957  20.356  0.00  0.00    +0.000 A 
ATOM      3  C   UNL     1       1.472   9.077  19.573  0.00  0.00    +0.000 A 
ATOM      4  C   UNL     1       1.788   9.066  18.222  0.00  0.00    +0.000 A 
ATOM      5  C   UNL     1       2.376   7.929  17.668  0.00  0.00    +0.000 A 
ATOM      6  C   UNL     1       2.634   6.779  18.442  0.00  0.00    +0.000 A 
ENDROOT
BRANCH   1   9
ATOM      7  C   UNL     1       1.715   4.592  20.830  0.00  0.00    +0.000 C 
ATOM      8  O   UNL     1       0.666   4.428  20.215  0.00  0.00    +0.000 OA
ATOM      9  N   UNL     1       2.578   5.669  20.655  0.00  0.00    +0.000 N 
ATOM     10  H   UNL     1       3.511   5.609  21.044  0.00  0.00    +0.000 HD
BRANCH   7  11
ATOM     11  C   UNL     1       2.141   3.582  21.870  0.00  0.00    +0.000 C 
BRANCH  11  12
ATOM     12  C   UNL     1       2.884   2.446  21.156  0.00  0.00    +0.000 C 
BRANCH  12  16
ATOM     13  N   UNL     1       4.386   1.544  18.871  0.00  0.00    +0.000 NA
ATOM     14  C   UNL     1       3.136   1.817  18.794  0.00  0.00    +0.000 C 
ATOM     15  N   UNL     1       2.447   1.819  17.638  0.00  0.00    +0.000 N 
ATOM     16  N   UNL     1       2.335   2.131  19.839  0.00  0.00    +0.000 N 
ATOM     17  H   UNL     1       4.748   1.369  17.934  0.00  0.00    +0.000 HD
ATOM     18  H   UNL     1       2.900   1.346  16.866  0.00  0.00    +0.000 HD
ATOM     19  H   UNL     1       1.489   1.503  17.745  0.00  0.00    +0.000 HD
ATOM     20  H   UNL     1       1.632   2.810  19.571  0.00  0.00    +0.000 HD
ENDBRANCH  12  16
ENDBRANCH  11  12
ENDBRANCH   7  11
ENDBRANCH   1   9
BRANCH   6  21
ATOM     21  S   UNL     1       3.429   5.446  17.546  0.00  0.00    +0.000 S 
BRANCH  21  22
ATOM     22  C   UNL     1       5.048   6.158  17.027  0.00  0.00    +0.000 C 
BRANCH  22  23
ATOM     23  C   UNL     1       5.562   5.458  15.777  0.00  0.00    +0.000 A 
ATOM     24  C   UNL     1       6.849   5.731  15.301  0.00  0.00    +0.000 A 
ATOM     25  C   UNL     1       7.360   5.019  14.220  0.00  0.00    +0.000 A 
ATOM     26  C   UNL     1       6.564   4.051  13.636  0.00  0.00    +0.000 A 
ATOM     27  N   UNL     1       5.303   3.785  14.031  0.00  0.00    +0.000 NA
ATOM     28  C   UNL     1       4.825   4.502  15.075  0.00  0.00    +0.000 A 
ENDBRANCH  22  23
BRANCH  22  29
ATOM     29  C   UNL     1       6.151   6.384  18.071  0.00  0.00    +0.000 C 
BRANCH  29  30
ATOM     30  C   UNL     1       6.550   5.202  18.911  0.00  0.00    +0.000 C 
ATOM     31  O   UNL     1       5.932   4.717  19.841  0.00  0.00    +0.000 OA
BRANCH  30  32
ATOM     32  O   UNL     1       7.758   4.718  18.552  0.00  0.00    +0.000 OA
ATOM     33  H   UNL     1       8.174   5.428  18.022  0.00  0.00    +0.000 HD
ENDBRANCH  30  32
ENDBRANCH  29  30
ENDBRANCH  22  29
ENDBRANCH  21  22
ENDBRANCH   6  21
TORSDOF 10
ENDMDL
MODEL 5
REMARK VINA RESULT:      -7.0      1.528      1.862
REMARK  Name = 
REMARK  10 active torsions:
REMARK  status: ('A' for Active; 'I' for Inactive)
REMARK    1  A    between atoms: N_4  and  C_5
REMARK    2  A    between atoms: C_5  and  C_6
REMARK    3  A    between atoms: C_6  and  C_7
REMARK    4  A    between atoms: N_9  and  C_10
REMARK    5  A    between atoms: C_15  and  S_16
REMARK    6  A    between atoms: S_16  and  C_17
REMARK    7  A    between atoms: C_17  and  C_18
REMARK    8  A    between atoms: C_17  and  C_22
REMARK    9  A    between atoms: C_18  and  C_19
REMARK   10  A    between atoms: C_19  and  O_21
REMARK                            x       y       z     vdW  Elec       q    Type
REMARK                         _______ _______ _______ _____ _____    ______ ____
ROOT
ATOM      1  C   UNL     1       2.564   6.130  18.543  0.00  0.00    +0.000 A 
ATOM      2  C   UNL     1       1.951   7.390  18.646  0.00  0.00    +0.000 A 
ATOM      3  C   UNL     1       2.477   8.521  18.024  0.00  0.00    +0.000 A 
ATOM      4  C   UNL     1       3.656   8.422  17.301  0.00  0.00    +0.000 A 
ATOM      5  C   UNL     1       4.301   7.189  17.209  0.00  0.00    +0.000 A 
ATOM      6  C   UNL     1       3.768   6.031  17.813  0.00  0.00    +0.000 A 
ENDROOT
BRANCH   1   9
ATOM      7  C   UNL     1       1.286   3.993  18.566  0.00  0.00    +0.000 C 
ATOM      8  O   UNL     1       1.140   3.900  17.351  0.00  0.00    +0.000 OA
ATOM      9  N   UNL     1       1.998   5.002  19.206  0.00  0.00    +0.000 N 
ATOM     10  H   UNL     1       2.244   4.877  20.181  0.00  0.00    +0.000 HD
BRANCH   7  11
ATOM     11  C   UNL     1       0.659   2.964  19.478  0.00  0.00    +0.000 C 
BRANCH  11  12
ATOM     12  C   UNL     1       1.598   1.754  19.550  0.00  0.00    +0.000 C 
BRANCH  12  16
ATOM     13  N   UNL     1       4.043   0.890  18.300  0.00  0.00    +0.000 NA
ATOM     14  C   UNL     1       4.042   1.551  19.398  0.00  0.00    +0.000 C 
ATOM     15  N   UNL     1       5.152   1.798  20.117  0.00  0.00    +0.000 N 
ATOM     16  N   UNL     1       2.950   2.093  19.986  0.00  0.00    +0.000 N 
ATOM     17  H   UNL     1       4.993   0.577  18.100  0.00  0.00    +0.000 HD
ATOM     18  H   UNL     1       6.025   1.661  19.622  0.00  0.00    +0.000 HD
ATOM     19  H   UNL     1       5.136   2.701  20.578  0.00  0.00    +0.000 HD
ATOM     20  H   UNL     1       3.022   2.055  20.997  0.00  0.00    +0.000 HD
ENDBRANCH  12  16
ENDBRANCH  11  12
ENDBRANCH   7  11
ENDBRANCH   1   9
BRANCH   6  21
ATOM     21  S   UNL     1       4.772   4.560  17.607  0.00  0.00    +0.000 S 
BRANCH  21  22
ATOM     22  C   UNL     1       6.377   5.200  16.965  0.00  0.00    +0.000 C 
BRANCH  22  23
ATOM     23  C   UNL     1       6.547   4.834  15.498  0.00  0.00    +0.000 A 
ATOM     24  C   UNL     1       5.624   3.986  14.876  0.00  0.00    +0.000 A 
ATOM     25  C   UNL     1       5.718   3.731  13.511  0.00  0.00    +0.000 A 
ATOM     26  C   UNL     1       6.743   4.329  12.800  0.00  0.00    +0.000 A 
ATOM     27  N   UNL     1       7.681   5.116  13.364  0.00  0.00    +0.000 NA
ATOM     28  C   UNL     1       7.574   5.336  14.696  0.00  0.00    +0.000 A 
ENDBRANCH  22  23
BRANCH  22  29
ATOM     29  C   UNL     1       7.662   4.987  17.778  0.00  0.00    +0.000 C 
BRANCH  29  30
ATOM     30  C   UNL     1       7.783   5.736  19.076  0.00  0.00    +0.000 C 
ATOM     31  O   UNL     1       7.411   5.370  20.176  0.00  0.00    +0.000 OA
BRANCH  30  32
ATOM     32  O   UNL     1       8.337   6.955  18.901  0.00  0.00    +0.000 OA
ATOM     33  H   UNL     1       9.248   6.782  18.586  0.00  0.00    +0.000 HD
ENDBRANCH  30  32
ENDBRANCH  29  30
ENDBRANCH  22  29
ENDBRANCH  21  22
ENDBRANCH   6  21
TORSDOF 10
ENDMDL
MODEL 6
REMARK VINA RESULT:      -6.9      2.612      6.649
REMARK  Name = 
REMARK  10 active torsions:
REMARK  status: ('A' for Active; 'I' for Inactive)
REMARK    1  A    between atoms: N_4  and  C_5
REMARK    2  A    between atoms: C_5  and  C_6
REMARK    3  A    between atoms: C_6  and  C_7
REMARK    4  A    between atoms: N_9  and  C_10
REMARK    5  A    between atoms: C_15  and  S_16
REMARK    6  A    between atoms: S_16  and  C_17
REMARK    7  A    between atoms: C_17  and  C_18
REMARK    8  A    between atoms: C_17  and  C_22
REMARK    9  A    between atoms: C_18  and  C_19
REMARK   10  A    between atoms: C_19  and  O_21
REMARK                            x       y       z     vdW  Elec       q    Type
REMARK                         _______ _______ _______ _____ _____    ______ ____
ROOT
ATOM      1  C   UNL     1       2.922   4.491  18.859  0.00  0.00    +0.000 A 
ATOM      2  C   UNL     1       2.625   3.391  18.037  0.00  0.00    +0.000 A 
ATOM      3  C   UNL     1       1.455   2.650  18.188  0.00  0.00    +0.000 A 
ATOM      4  C   UNL     1       0.559   2.976  19.195  0.00  0.00    +0.000 A 
ATOM      5  C   UNL     1       0.845   4.044  20.045  0.00  0.00    +0.000 A 
ATOM      6  C   UNL     1       2.013   4.819  19.889  0.00  0.00    +0.000 A 
ENDROOT
BRANCH   1   9
ATOM      7  C   UNL     1       5.391   4.745  19.049  0.00  0.00    +0.000 C 
ATOM      8  O   UNL     1       5.617   3.621  19.487  0.00  0.00    +0.000 OA
ATOM      9  N   UNL     1       4.136   5.215  18.678  0.00  0.00    +0.000 N 
ATOM     10  H   UNL     1       4.081   6.067  18.132  0.00  0.00    +0.000 HD
BRANCH   7  11
ATOM     11  C   UNL     1       6.526   5.731  18.890  0.00  0.00    +0.000 C 
BRANCH  11  12
ATOM     12  C   UNL     1       7.599   5.085  18.006  0.00  0.00    +0.000 C 
BRANCH  12  16
ATOM     13  N   UNL     1       7.531   5.512  15.160  0.00  0.00    +0.000 NA
ATOM     14  C   UNL     1       6.970   4.496  15.705  0.00  0.00    +0.000 C 
ATOM     15  N   UNL     1       6.213   3.614  15.028  0.00  0.00    +0.000 N 
ATOM     16  N   UNL     1       7.056   4.161  17.014  0.00  0.00    +0.000 N 
ATOM     17  H   UNL     1       7.282   5.540  14.171  0.00  0.00    +0.000 HD
ATOM     18  H   UNL     1       6.316   3.642  14.021  0.00  0.00    +0.000 HD
ATOM     19  H   UNL     1       6.301   2.665  15.374  0.00  0.00    +0.000 HD
ATOM     20  H   UNL     1       6.191   3.747  17.343  0.00  0.00    +0.000 HD
ENDBRANCH  12  16
ENDBRANCH  11  12
ENDBRANCH   7  11
ENDBRANCH   1   9
BRANCH   6  21
ATOM     21  S   UNL     1       2.208   6.117  21.109  0.00  0.00    +0.000 S 
BRANCH  21  22
ATOM     22  C   UNL     1       2.028   7.674  20.139  0.00  0.00    +0.000 C 
BRANCH  22  23
ATOM     23  C   UNL     1       1.234   8.705  20.929  0.00  0.00    +0.000 A 
ATOM     24  C   UNL     1       0.234   9.453  20.297  0.00  0.00    +0.000 A 
ATOM     25  C   UNL     1      -0.562  10.321  21.038  0.00  0.00    +0.000 A 
ATOM     26  C   UNL     1      -0.333  10.425  22.397  0.00  0.00    +0.000 A 
ATOM     27  N   UNL     1       0.647   9.759  23.041  0.00  0.00    +0.000 NA
ATOM     28  C   UNL     1       1.416   8.931  22.295  0.00  0.00    +0.000 A 
ENDBRANCH  22  23
BRANCH  22  29
ATOM     29  C   UNL     1       1.604   7.609  18.665  0.00  0.00    +0.000 C 
BRANCH  29  30
ATOM     30  C   UNL     1       2.518   8.256  17.661  0.00  0.00    +0.000 C 
ATOM     31  O   UNL     1       3.592   7.840  17.266  0.00  0.00    +0.000 OA
BRANCH  30  32
ATOM     32  O   UNL     1       2.036   9.443  17.237  0.00  0.00    +0.000 OA
ATOM     33  H   UNL     1       1.068   9.395  17.382  0.00  0.00    +0.000 HD
ENDBRANCH  30  32
ENDBRANCH  29  30
ENDBRANCH  22  29
ENDBRANCH  21  22
ENDBRANCH   6  21
TORSDOF 10
ENDMDL
MODEL 7
REMARK VINA RESULT:      -6.9      2.611      5.023
REMARK  Name = 
REMARK  10 active torsions:
REMARK  status: ('A' for Active; 'I' for Inactive)
REMARK    1  A    between atoms: N_4  and  C_5
REMARK    2  A    between atoms: C_5  and  C_6
REMARK    3  A    between atoms: C_6  and  C_7
REMARK    4  A    between atoms: N_9  and  C_10
REMARK    5  A    between atoms: C_15  and  S_16
REMARK    6  A    between atoms: S_16  and  C_17
REMARK    7  A    between atoms: C_17  and  C_18
REMARK    8  A    between atoms: C_17  and  C_22
REMARK    9  A    between atoms: C_18  and  C_19
REMARK   10  A    between atoms: C_19  and  O_21
REMARK                            x       y       z     vdW  Elec       q    Type
REMARK                         _______ _______ _______ _____ _____    ______ ____
ROOT
ATOM      1  C   UNL     1       1.971   4.687  18.871  0.00  0.00    +0.000 A 
ATOM      2  C   UNL     1       1.205   4.621  20.048  0.00  0.00    +0.000 A 
ATOM      3  C   UNL     1       1.077   3.444  20.781  0.00  0.00    +0.000 A 
ATOM      4  C   UNL     1       1.695   2.285  20.334  0.00  0.00    +0.000 A 
ATOM      5  C   UNL     1       2.435   2.316  19.153  0.00  0.00    +0.000 A 
ATOM      6  C   UNL     1       2.594   3.506  18.413  0.00  0.00    +0.000 A 
ENDROOT
BRANCH   1   9
ATOM      7  C   UNL     1       2.258   7.157  18.731  0.00  0.00    +0.000 C 
ATOM      8  O   UNL     1       2.466   7.344  19.925  0.00  0.00    +0.000 OA
ATOM      9  N   UNL     1       2.065   5.910  18.145  0.00  0.00    +0.000 N 
ATOM     10  H   UNL     1       2.117   5.837  17.136  0.00  0.00    +0.000 HD
BRANCH   7  11
ATOM     11  C   UNL     1       2.191   8.335  17.786  0.00  0.00    +0.000 C 
BRANCH  11  12
ATOM     12  C   UNL     1       1.522   9.500  18.524  0.00  0.00    +0.000 C 
BRANCH  12  16
ATOM     13  N   UNL     1      -1.079  10.299  19.466  0.00  0.00    +0.000 NA
ATOM     14  C   UNL     1      -0.741  10.413  18.235  0.00  0.00    +0.000 C 
ATOM     15  N   UNL     1      -1.590  10.800  17.265  0.00  0.00    +0.000 N 
ATOM     16  N   UNL     1       0.494  10.173  17.734  0.00  0.00    +0.000 N 
ATOM     17  H   UNL     1      -2.071  10.516  19.562  0.00  0.00    +0.000 HD
ATOM     18  H   UNL     1      -2.440  11.245  17.589  0.00  0.00    +0.000 HD
ATOM     19  H   UNL     1      -1.144  11.355  16.543  0.00  0.00    +0.000 HD
ATOM     20  H   UNL     1       0.440   9.779  16.802  0.00  0.00    +0.000 HD
ENDBRANCH  12  16
ENDBRANCH  11  12
ENDBRANCH   7  11
ENDBRANCH   1   9
BRANCH   6  21
ATOM     21  S   UNL     1       3.549   3.319  16.907  0.00  0.00    +0.000 S 
BRANCH  21  22
ATOM     22  C   UNL     1       5.066   4.321  17.213  0.00  0.00    +0.000 C 
BRANCH  22  23
ATOM     23  C   UNL     1       5.889   4.442  15.939  0.00  0.00    +0.000 A 
ATOM     24  C   UNL     1       5.509   3.739  14.790  0.00  0.00    +0.000 A 
ATOM     25  C   UNL     1       6.198   3.927  13.596  0.00  0.00    +0.000 A 
ATOM     26  C   UNL     1       7.260   4.813  13.582  0.00  0.00    +0.000 A 
ATOM     27  N   UNL     1       7.690   5.478  14.673  0.00  0.00    +0.000 NA
ATOM     28  C   UNL     1       7.011   5.266  15.826  0.00  0.00    +0.000 A 
ENDBRANCH  22  23
BRANCH  22  29
ATOM     29  C   UNL     1       5.932   4.035  18.448  0.00  0.00    +0.000 C 
BRANCH  29  30
ATOM     30  C   UNL     1       6.121   5.160  19.427  0.00  0.00    +0.000 C 
ATOM     31  O   UNL     1       7.172   5.568  19.888  0.00  0.00    +0.000 OA
BRANCH  30  32
ATOM     32  O   UNL     1       4.941   5.690  19.814  0.00  0.00    +0.000 OA
ATOM     33  H   UNL     1       4.861   6.531  19.318  0.00  0.00    +0.000 HD
ENDBRANCH  30  32
ENDBRANCH  29  30
ENDBRANCH  22  29
ENDBRANCH  21  22
ENDBRANCH   6  21
TORSDOF 10
ENDMDL
MODEL 8
REMARK VINA RESULT:      -6.8      3.513      7.368
REMARK  Name = 
REMARK  10 active torsions:
REMARK  status: ('A' for Active; 'I' for Inactive)
REMARK    1  A    between atoms: N_4  and  C_5
REMARK    2  A    between atoms: C_5  and  C_6
REMARK    3  A    between atoms: C_6  and  C_7
REMARK    4  A    between atoms: N_9  and  C_10
REMARK    5  A    between atoms: C_15  and  S_16
REMARK    6  A    between atoms: S_16  and  C_17
REMARK    7  A    between atoms: C_17  and  C_18
REMARK    8  A    between atoms: C_17  and  C_22
REMARK    9  A    between atoms: C_18  and  C_19
REMARK   10  A    between atoms: C_19  and  O_21
REMARK                            x       y       z     vdW  Elec       q    Type
REMARK                         _______ _______ _______ _____ _____    ______ ____
ROOT
ATOM      1  C   UNL     1       6.867   5.197  16.123  0.00  0.00    +0.000 A 
ATOM      2  C   UNL     1       7.370   5.119  14.813  0.00  0.00    +0.000 A 
ATOM      3  C   UNL     1       6.691   4.448  13.799  0.00  0.00    +0.000 A 
ATOM      4  C   UNL     1       5.493   3.807  14.080  0.00  0.00    +0.000 A 
ATOM      5  C   UNL     1       4.987   3.843  15.379  0.00  0.00    +0.000 A 
ATOM      6  C   UNL     1       5.651   4.539  16.411  0.00  0.00    +0.000 A 
ENDROOT
BRANCH   1   9
ATOM      7  C   UNL     1       7.399   7.215  17.481  0.00  0.00    +0.000 C 
ATOM      8  O   UNL     1       6.508   7.929  17.032  0.00  0.00    +0.000 OA
ATOM      9  N   UNL     1       7.601   5.884  17.134  0.00  0.00    +0.000 N 
ATOM     10  H   UNL     1       8.217   5.322  17.709  0.00  0.00    +0.000 HD
BRANCH   7  11
ATOM     11  C   UNL     1       8.379   7.780  18.483  0.00  0.00    +0.000 C 
BRANCH  11  12
ATOM     12  C   UNL     1       8.492   9.289  18.242  0.00  0.00    +0.000 C 
BRANCH  12  16
ATOM     13  N   UNL     1       9.224  12.074  18.212  0.00  0.00    +0.000 NA
ATOM     14  C   UNL     1       9.635  11.276  19.127  0.00  0.00    +0.000 C 
ATOM     15  N   UNL     1      10.523  11.629  20.074  0.00  0.00    +0.000 N 
ATOM     16  N   UNL     1       9.245   9.989  19.279  0.00  0.00    +0.000 N 
ATOM     17  H   UNL     1       9.696  12.972  18.314  0.00  0.00    +0.000 HD
ATOM     18  H   UNL     1      10.658  12.626  20.189  0.00  0.00    +0.000 HD
ATOM     19  H   UNL     1      10.351  11.182  20.968  0.00  0.00    +0.000 HD
ATOM     20  H   UNL     1      10.007   9.414  19.621  0.00  0.00    +0.000 HD
ENDBRANCH  12  16
ENDBRANCH  11  12
ENDBRANCH   7  11
ENDBRANCH   1   9
BRANCH   6  21
ATOM     21  S   UNL     1       4.853   4.426  18.012  0.00  0.00    +0.000 S 
BRANCH  21  22
ATOM     22  C   UNL     1       3.091   4.840  17.664  0.00  0.00    +0.000 C 
BRANCH  22  23
ATOM     23  C   UNL     1       2.686   6.107  18.402  0.00  0.00    +0.000 A 
ATOM     24  C   UNL     1       2.601   7.322  17.713  0.00  0.00    +0.000 A 
ATOM     25  C   UNL     1       2.133   8.461  18.360  0.00  0.00    +0.000 A 
ATOM     26  C   UNL     1       1.765   8.358  19.689  0.00  0.00    +0.000 A 
ATOM     27  N   UNL     1       1.871   7.221  20.406  0.00  0.00    +0.000 NA
ATOM     28  C   UNL     1       2.343   6.130  19.756  0.00  0.00    +0.000 A 
ENDBRANCH  22  23
BRANCH  22  29
ATOM     29  C   UNL     1       2.020   3.743  17.746  0.00  0.00    +0.000 C 
BRANCH  29  30
ATOM     30  C   UNL     1       2.337   2.538  18.588  0.00  0.00    +0.000 C 
ATOM     31  O   UNL     1       2.285   2.452  19.802  0.00  0.00    +0.000 OA
BRANCH  30  32
ATOM     32  O   UNL     1       2.759   1.499  17.837  0.00  0.00    +0.000 OA
ATOM     33  H   UNL     1       2.035   1.331  17.199  0.00  0.00    +0.000 HD
ENDBRANCH  30  32
ENDBRANCH  29  30
ENDBRANCH  22  29
ENDBRANCH  21  22
ENDBRANCH   6  21
TORSDOF 10
ENDMDL
MODEL 9
REMARK VINA RESULT:      -6.8      3.924      7.567
REMARK  Name = 
REMARK  10 active torsions:
REMARK  status: ('A' for Active; 'I' for Inactive)
REMARK    1  A    between atoms: N_4  and  C_5
REMARK    2  A    between atoms: C_5  and  C_6
REMARK    3  A    between atoms: C_6  and  C_7
REMARK    4  A    between atoms: N_9  and  C_10
REMARK    5  A    between atoms: C_15  and  S_16
REMARK    6  A    between atoms: S_16  and  C_17
REMARK    7  A    between atoms: C_17  and  C_18
REMARK    8  A    between atoms: C_17  and  C_22
REMARK    9  A    between atoms: C_18  and  C_19
REMARK   10  A    between atoms: C_19  and  O_21
REMARK                            x       y       z     vdW  Elec       q    Type
REMARK                         _______ _______ _______ _____ _____    ______ ____
ROOT
ATOM      1  C   UNL     1       7.019   5.511  16.891  0.00  0.00    +0.000 A 
ATOM      2  C   UNL     1       7.359   5.230  15.556  0.00  0.00    +0.000 A 
ATOM      3  C   UNL     1       6.642   4.314  14.789  0.00  0.00    +0.000 A 
ATOM      4  C   UNL     1       5.575   3.629  15.354  0.00  0.00    +0.000 A 
ATOM      5  C   UNL     1       5.237   3.868  16.685  0.00  0.00    +0.000 A 
ATOM      6  C   UNL     1       5.938   4.810  17.468  0.00  0.00    +0.000 A 
ENDROOT
BRANCH   1   9
ATOM      7  C   UNL     1       7.559   7.819  17.656  0.00  0.00    +0.000 C 
ATOM      8  O   UNL     1       6.617   8.377  17.102  0.00  0.00    +0.000 OA
ATOM      9  N   UNL     1       7.788   6.447  17.643  0.00  0.00    +0.000 N 
ATOM     10  H   UNL     1       8.458   6.062  18.299  0.00  0.00    +0.000 HD
BRANCH   7  11
ATOM     11  C   UNL     1       8.577   8.639  18.415  0.00  0.00    +0.000 C 
BRANCH  11  12
ATOM     12  C   UNL     1       8.600  10.048  17.811  0.00  0.00    +0.000 C 
BRANCH  12  16
ATOM     13  N   UNL     1       8.619  12.894  17.373  0.00  0.00    +0.000 NA
ATOM     14  C   UNL     1       9.256  12.355  18.345  0.00  0.00    +0.000 C 
ATOM     15  N   UNL     1      10.071  13.040  19.169  0.00  0.00    +0.000 N 
ATOM     16  N   UNL     1       9.203  11.047  18.690  0.00  0.00    +0.000 N 
ATOM     17  H   UNL     1       8.858  13.884  17.324  0.00  0.00    +0.000 HD
ATOM     18  H   UNL     1       9.960  14.046  19.145  0.00  0.00    +0.000 HD
ATOM     19  H   UNL     1      10.055  12.696  20.122  0.00  0.00    +0.000 HD
ATOM     20  H   UNL     1      10.099  10.724  19.040  0.00  0.00    +0.000 HD
ENDBRANCH  12  16
ENDBRANCH  11  12
ENDBRANCH   7  11
ENDBRANCH   1   9
BRANCH   6  21
ATOM     21  S   UNL     1       5.370   4.934  19.163  0.00  0.00    +0.000 S 
BRANCH  21  22
ATOM     22  C   UNL     1       3.743   5.792  19.027  0.00  0.00    +0.000 C 
BRANCH  22  23
ATOM     23  C   UNL     1       2.603   4.812  19.263  0.00  0.00    +0.000 A 
ATOM     24  C   UNL     1       2.078   4.078  18.194  0.00  0.00    +0.000 A 
ATOM     25  C   UNL     1       1.107   3.108  18.422  0.00  0.00    +0.000 A 
ATOM     26  C   UNL     1       0.679   2.899  19.720  0.00  0.00    +0.000 A 
ATOM     27  N   UNL     1       1.123   3.611  20.775  0.00  0.00    +0.000 NA
ATOM     28  C   UNL     1       2.058   4.559  20.523  0.00  0.00    +0.000 A 
ENDBRANCH  22  23
BRANCH  22  29
ATOM     29  C   UNL     1       3.474   6.734  17.845  0.00  0.00    +0.000 C 
BRANCH  29  30
ATOM     30  C   UNL     1       2.607   7.933  18.109  0.00  0.00    +0.000 C 
ATOM     31  O   UNL     1       2.333   8.831  17.333  0.00  0.00    +0.000 OA
BRANCH  30  32
ATOM     32  O   UNL     1       2.161   7.958  19.383  0.00  0.00    +0.000 OA
ATOM     33  H   UNL     1       1.191   7.831  19.320  0.00  0.00    +0.000 HD
ENDBRANCH  30  32
ENDBRANCH  29  30
ENDBRANCH  22  29
ENDBRANCH  21  22
ENDBRANCH   6  21
TORSDOF 10
ENDMDL
