MODEL 1
REMARK VINA RESULT:      -7.8      0.000      0.000
REMARK  Name = 
REMARK  6 active torsions:
REMARK  status: ('A' for Active; 'I' for Inactive)
REMARK    1  A    between atoms: O_1  and  C_2
REMARK    2  A    between atoms: C_5  and  C_6
REMARK    3  A    between atoms: N_8  and  C_9
REMARK    4  A    between atoms: C_9  and  N_11
REMARK    5  A    between atoms: N_11  and  C_12
REMARK    6  A    between atoms: C_18  and  C_19
REMARK                            x       y       z     vdW  Elec       q    Type
REMARK                         _______ _______ _______ _____ _____    ______ ____
ROOT
ATOM      1  C   UNL     1       2.963   6.914  18.175  0.00  0.00    +0.000 C 
ATOM      2  N   UNL     1       4.230   6.992  17.884  0.00  0.00    +0.000 NA
ATOM      3  N   UNL     1       4.592   5.759  17.373  0.00  0.00    +0.000 N 
ATOM      4  C   UNL     1       3.471   4.800  17.344  0.00  0.00    +0.000 C 
ATOM      5  C   UNL     1       2.309   5.579  17.942  0.00  0.00    +0.000 C 
ENDROOT
BRANCH   1   9
ATOM      6  C   UNL     1       0.665  10.178  19.666  0.00  0.00    +0.000 A 
ATOM      7  C   UNL     1       0.986   9.118  20.508  0.00  0.00    +0.000 A 
ATOM      8  C   UNL     1       1.738   8.049  20.010  0.00  0.00    +0.000 A 
ATOM      9  C   UNL     1       2.173   8.057  18.680  0.00  0.00    +0.000 A 
ATOM     10  C   UNL     1       1.861   9.137  17.848  0.00  0.00    +0.000 A 
ATOM     11  C   UNL     1       1.097  10.197  18.345  0.00  0.00    +0.000 A 
BRANCH   6  12
ATOM     12  O   UNL     1      -0.080  11.233  20.102  0.00  0.00    +0.000 OA
ATOM     13  H   UNL     1      -0.394  11.736  19.332  0.00  0.00    +0.000 HD
ENDBRANCH   6  12
ENDBRANCH   1   9
BRANCH   4  14
ATOM     14  C   UNL     1       3.739   3.532  18.142  0.00  0.00    +0.000 A 
ATOM     15  C   UNL     1       4.109   3.575  19.497  0.00  0.00    +0.000 A 
ATOM     16  C   UNL     1       4.390   2.402  20.200  0.00  0.00    +0.000 A 
ATOM     17  C   UNL     1       4.283   1.169  19.565  0.00  0.00    +0.000 A 
ATOM     18  C   UNL     1       3.886   1.104  18.231  0.00  0.00    +0.000 A 
ATOM     19  C   UNL     1       3.612   2.276  17.522  0.00  0.00    +0.000 A 
ENDBRANCH   4  14
BRANCH   3  20
ATOM     20  C   UNL     1       5.886   5.527  16.892  0.00  0.00    +0.000 C 
ATOM     21  S   UNL     1       7.099   4.833  17.834  0.00  0.00    +0.000 S 
BRANCH  20  22
ATOM     22  N   UNL     1       6.028   5.914  15.563  0.00  0.00    +0.000 N 
ATOM     23  H   UNL     1       5.998   6.922  15.437  0.00  0.00    +0.000 HD
BRANCH  22  24
ATOM     24  C   UNL     1       6.263   5.107  14.428  0.00  0.00    +0.000 A 
ATOM     25  C   UNL     1       5.306   4.160  14.056  0.00  0.00    +0.000 A 
ATOM     26  C   UNL     1       5.503   3.362  12.923  0.00  0.00    +0.000 A 
ATOM     27  C   UNL     1       6.637   3.531  12.127  0.00  0.00    +0.000 A 
ATOM     28  C   UNL     1       7.576   4.502  12.468  0.00  0.00    +0.000 A 
ATOM     29  C   UNL     1       7.387   5.282  13.611  0.00  0.00    +0.000 A 
ENDBRANCH  22  24
ENDBRANCH  20  22
ENDBRANCH   3  20
TORSDOF 6
ENDMDL
MODEL 2
REMARK VINA RESULT:      -7.7      0.571      1.055
REMARK  Name = 
REMARK  6 active torsions:
REMARK  status: ('A' for Active; 'I' for Inactive)
REMARK    1  A    between atoms: O_1  and  C_2
REMARK    2  A    between atoms: C_5  and  C_6
REMARK    3  A    between atoms: N_8  and  C_9
REMARK    4  A    between atoms: C_9  and  N_11
REMARK    5  A    between atoms: N_11  and  C_12
REMARK    6  A    between atoms: C_18  and  C_19
REMARK                            x       y       z     vdW  Elec       q    Type
REMARK                         _______ _______ _______ _____ _____    ______ ____
ROOT
ATOM      1  C   UNL     1       2.932   6.951  18.162  0.00  0.00    +0.000 C 
ATOM      2  N   UNL     1       4.200   7.040  17.877  0.00  0.00    +0.000 NA
ATOM      3  N   UNL     1       4.578   5.806  17.380  0.00  0.00    +0.000 N 
ATOM      4  C   UNL     1       3.468   4.835  17.354  0.00  0.00    +0.000 C 
ATOM      5  C   UNL     1       2.294   5.606  17.939  0.00  0.00    +0.000 C 
ENDROOT
BRANCH   1   9
ATOM      6  C   UNL     1       0.591  10.204  19.609  0.00  0.00    +0.000 A 
ATOM      7  C   UNL     1       0.940   9.168  20.470  0.00  0.00    +0.000 A 
ATOM      8  C   UNL     1       1.706   8.103  19.987  0.00  0.00    +0.000 A 
ATOM      9  C   UNL     1       2.127   8.090  18.651  0.00  0.00    +0.000 A 
ATOM     10  C   UNL     1       1.787   9.147  17.801  0.00  0.00    +0.000 A 
ATOM     11  C   UNL     1       1.008  10.202  18.283  0.00  0.00    +0.000 A 
BRANCH   6  12
ATOM     12  O   UNL     1      -0.168  11.255  20.031  0.00  0.00    +0.000 OA
ATOM     13  H   UNL     1      -0.200  11.922  19.326  0.00  0.00    +0.000 HD
ENDBRANCH   6  12
ENDBRANCH   1   9
BRANCH   4  14
ATOM     14  C   UNL     1       3.746   3.577  18.167  0.00  0.00    +0.000 A 
ATOM     15  C   UNL     1       4.287   3.638  19.462  0.00  0.00    +0.000 A 
ATOM     16  C   UNL     1       4.572   2.471  20.174  0.00  0.00    +0.000 A 
ATOM     17  C   UNL     1       4.299   1.229  19.610  0.00  0.00    +0.000 A 
ATOM     18  C   UNL     1       3.732   1.150  18.341  0.00  0.00    +0.000 A 
ATOM     19  C   UNL     1       3.453   2.315  17.622  0.00  0.00    +0.000 A 
ENDBRANCH   4  14
BRANCH   3  20
ATOM     20  C   UNL     1       5.877   5.584  16.908  0.00  0.00    +0.000 C 
ATOM     21  S   UNL     1       7.182   6.560  17.337  0.00  0.00    +0.000 S 
BRANCH  20  22
ATOM     22  N   UNL     1       5.951   4.468  16.080  0.00  0.00    +0.000 N 
ATOM     23  H   UNL     1       5.688   3.606  16.550  0.00  0.00    +0.000 HD
BRANCH  22  24
ATOM     24  C   UNL     1       6.272   4.408  14.706  0.00  0.00    +0.000 A 
ATOM     25  C   UNL     1       7.380   5.116  14.234  0.00  0.00    +0.000 A 
ATOM     26  C   UNL     1       7.734   5.057  12.881  0.00  0.00    +0.000 A 
ATOM     27  C   UNL     1       7.012   4.255  11.996  0.00  0.00    +0.000 A 
ATOM     28  C   UNL     1       5.932   3.512  12.467  0.00  0.00    +0.000 A 
ATOM     29  C   UNL     1       5.568   3.591  13.813  0.00  0.00    +0.000 A 
ENDBRANCH  22  24
ENDBRANCH  20  22
ENDBRANCH   3  20
TORSDOF 6
ENDMDL
MODEL 3
REMARK VINA RESULT:      -7.6      0.556      1.681
REMARK  Name = 
REMARK  6 active torsions:
REMARK  status: ('A' for Active; 'I' for Inactive)
REMARK    1  A    between atoms: O_1  and  C_2
REMARK    2  A    between atoms: C_5  and  C_6
REMARK    3  A    between atoms: N_8  and  C_9
REMARK    4  A    between atoms: C_9  and  N_11
REMARK    5  A    between atoms: N_11  and  C_12
REMARK    6  A    between atoms: C_18  and  C_19
REMARK                            x       y       z     vdW  Elec       q    Type
REMARK                         _______ _______ _______ _____ _____    ______ ____
ROOT
ATOM      1  C   UNL     1       2.915   6.921  18.176  0.00  0.00    +0.000 C 
ATOM      2  N   UNL     1       4.161   6.994  17.804  0.00  0.00    +0.000 NA
ATOM      3  N   UNL     1       4.494   5.750  17.300  0.00  0.00    +0.000 N 
ATOM      4  C   UNL     1       3.377   4.789  17.365  0.00  0.00    +0.000 C 
ATOM      5  C   UNL     1       2.252   5.580  18.016  0.00  0.00    +0.000 C 
ENDROOT
BRANCH   1   9
ATOM      6  C   UNL     1       0.743  10.276  19.654  0.00  0.00    +0.000 A 
ATOM      7  C   UNL     1       1.178  10.263  18.333  0.00  0.00    +0.000 A 
ATOM      8  C   UNL     1       1.893   9.160  17.857  0.00  0.00    +0.000 A 
ATOM      9  C   UNL     1       2.154   8.075  18.701  0.00  0.00    +0.000 A 
ATOM     10  C   UNL     1       1.694   8.090  20.022  0.00  0.00    +0.000 A 
ATOM     11  C   UNL     1       0.993   9.201  20.499  0.00  0.00    +0.000 A 
BRANCH   6  12
ATOM     12  O   UNL     1       0.057  11.336  20.169  0.00  0.00    +0.000 OA
ATOM     13  H   UNL     1      -0.376  11.813  19.442  0.00  0.00    +0.000 HD
ENDBRANCH   6  12
ENDBRANCH   1   9
BRANCH   4  14
ATOM     14  C   UNL     1       3.698   3.541  18.175  0.00  0.00    +0.000 A 
ATOM     15  C   UNL     1       3.484   2.250  17.662  0.00  0.00    +0.000 A 
ATOM     16  C   UNL     1       3.747   1.119  18.437  0.00  0.00    +0.000 A 
ATOM     17  C   UNL     1       4.249   1.262  19.726  0.00  0.00    +0.000 A 
ATOM     18  C   UNL     1       4.499   2.532  20.240  0.00  0.00    +0.000 A 
ATOM     19  C   UNL     1       4.229   3.667  19.470  0.00  0.00    +0.000 A 
ENDBRANCH   4  14
BRANCH   3  20
ATOM     20  C   UNL     1       5.756   5.509  16.745  0.00  0.00    +0.000 C 
ATOM     21  S   UNL     1       7.122   6.406  17.159  0.00  0.00    +0.000 S 
BRANCH  20  22
ATOM     22  N   UNL     1       5.740   4.446  15.847  0.00  0.00    +0.000 N 
ATOM     23  H   UNL     1       5.293   3.615  16.224  0.00  0.00    +0.000 HD
BRANCH  22  24
ATOM     24  C   UNL     1       6.195   4.412  14.511  0.00  0.00    +0.000 A 
ATOM     25  C   UNL     1       7.323   5.154  14.156  0.00  0.00    +0.000 A 
ATOM     26  C   UNL     1       7.808   5.121  12.843  0.00  0.00    +0.000 A 
ATOM     27  C   UNL     1       7.198   4.311  11.884  0.00  0.00    +0.000 A 
ATOM     28  C   UNL     1       6.098   3.535  12.240  0.00  0.00    +0.000 A 
ATOM     29  C   UNL     1       5.603   3.588  13.546  0.00  0.00    +0.000 A 
ENDBRANCH  22  24
ENDBRANCH  20  22
ENDBRANCH   3  20
TORSDOF 6
ENDMDL
MODEL 4
REMARK VINA RESULT:      -7.3      7.730     10.465
REMARK  Name = 
REMARK  6 active torsions:
REMARK  status: ('A' for Active; 'I' for Inactive)
REMARK    1  A    between atoms: O_1  and  C_2
REMARK    2  A    between atoms: C_5  and  C_6
REMARK    3  A    between atoms: N_8  and  C_9
REMARK    4  A    between atoms: C_9  and  N_11
REMARK    5  A    between atoms: N_11  and  C_12
REMARK    6  A    between atoms: C_18  and  C_19
REMARK                            x       y       z     vdW  Elec       q    Type
REMARK                         _______ _______ _______ _____ _____    ______ ____
ROOT
ATOM      1  C   UNL     1       8.857   9.880  18.553  0.00  0.00    +0.000 C 
ATOM      2  N   UNL     1       8.842  10.850  17.684  0.00  0.00    +0.000 NA
ATOM      3  N   UNL     1       9.626  11.860  18.211  0.00  0.00    +0.000 N 
ATOM      4  C   UNL     1      10.181  11.523  19.535  0.00  0.00    +0.000 C 
ATOM      5  C   UNL     1       9.623  10.137  19.822  0.00  0.00    +0.000 C 
ENDROOT
BRANCH   1   9
ATOM      6  C   UNL     1       6.911   6.148  17.884  0.00  0.00    +0.000 A 
ATOM      7  C   UNL     1       6.568   7.254  17.113  0.00  0.00    +0.000 A 
ATOM      8  C   UNL     1       7.209   8.475  17.340  0.00  0.00    +0.000 A 
ATOM      9  C   UNL     1       8.196   8.577  18.328  0.00  0.00    +0.000 A 
ATOM     10  C   UNL     1       8.547   7.453  19.084  0.00  0.00    +0.000 A 
ATOM     11  C   UNL     1       7.894   6.238  18.864  0.00  0.00    +0.000 A 
BRANCH   6  12
ATOM     12  O   UNL     1       6.302   4.941  17.710  0.00  0.00    +0.000 OA
ATOM     13  H   UNL     1       6.470   4.631  16.806  0.00  0.00    +0.000 HD
ENDBRANCH   6  12
ENDBRANCH   1   9
BRANCH   4  14
ATOM     14  C   UNL     1       9.779  12.504  20.627  0.00  0.00    +0.000 A 
ATOM     15  C   UNL     1       8.685  12.260  21.475  0.00  0.00    +0.000 A 
ATOM     16  C   UNL     1       8.309  13.193  22.443  0.00  0.00    +0.000 A 
ATOM     17  C   UNL     1       9.034  14.370  22.593  0.00  0.00    +0.000 A 
ATOM     18  C   UNL     1      10.141  14.614  21.785  0.00  0.00    +0.000 A 
ATOM     19  C   UNL     1      10.516  13.687  20.809  0.00  0.00    +0.000 A 
ENDBRANCH   4  14
BRANCH   3  20
ATOM     20  C   UNL     1       9.879  13.032  17.486  0.00  0.00    +0.000 C 
ATOM     21  S   UNL     1      11.386  13.385  16.821  0.00  0.00    +0.000 S 
BRANCH  20  22
ATOM     22  N   UNL     1       8.747  13.832  17.373  0.00  0.00    +0.000 N 
ATOM     23  H   UNL     1       8.170  13.592  16.571  0.00  0.00    +0.000 HD
BRANCH  22  24
ATOM     24  C   UNL     1       8.295  14.852  18.239  0.00  0.00    +0.000 A 
ATOM     25  C   UNL     1       7.171  14.621  19.035  0.00  0.00    +0.000 A 
ATOM     26  C   UNL     1       6.715  15.606  19.918  0.00  0.00    +0.000 A 
ATOM     27  C   UNL     1       7.403  16.814  20.047  0.00  0.00    +0.000 A 
ATOM     28  C   UNL     1       8.550  17.035  19.288  0.00  0.00    +0.000 A 
ATOM     29  C   UNL     1       8.989  16.058  18.391  0.00  0.00    +0.000 A 
ENDBRANCH  22  24
ENDBRANCH  20  22
ENDBRANCH   3  20
TORSDOF 6
ENDMDL
MODEL 5
REMARK VINA RESULT:      -7.1      7.747     10.500
REMARK  Name = 
REMARK  6 active torsions:
REMARK  status: ('A' for Active; 'I' for Inactive)
REMARK    1  A    between atoms: O_1  and  C_2
REMARK    2  A    between atoms: C_5  and  C_6
REMARK    3  A    between atoms: N_8  and  C_9
REMARK    4  A    between atoms: C_9  and  N_11
REMARK    5  A    between atoms: N_11  and  C_12
REMARK    6  A    between atoms: C_18  and  C_19
REMARK                            x       y       z     vdW  Elec       q    Type
REMARK                         _______ _______ _______ _____ _____    ______ ____
ROOT
ATOM      1  C   UNL     1       8.877   9.902  18.565  0.00  0.00    +0.000 C 
ATOM      2  N   UNL     1       8.891  10.865  17.687  0.00  0.00    +0.000 NA
ATOM      3  N   UNL     1       9.672  11.873  18.223  0.00  0.00    +0.000 N 
ATOM      4  C   UNL     1      10.193  11.543  19.562  0.00  0.00    +0.000 C 
ATOM      5  C   UNL     1       9.616  10.165  19.849  0.00  0.00    +0.000 C 
ENDROOT
BRANCH   1   9
ATOM      6  C   UNL     1       6.913   6.182  17.888  0.00  0.00    +0.000 A 
ATOM      7  C   UNL     1       6.560   7.297  17.134  0.00  0.00    +0.000 A 
ATOM      8  C   UNL     1       7.207   8.514  17.364  0.00  0.00    +0.000 A 
ATOM      9  C   UNL     1       8.210   8.603  18.337  0.00  0.00    +0.000 A 
ATOM     10  C   UNL     1       8.570   7.471  19.075  0.00  0.00    +0.000 A 
ATOM     11  C   UNL     1       7.910   6.259  18.853  0.00  0.00    +0.000 A 
BRANCH   6  12
ATOM     12  O   UNL     1       6.298   4.978  17.711  0.00  0.00    +0.000 OA
ATOM     13  H   UNL     1       5.555   5.091  17.096  0.00  0.00    +0.000 HD
ENDBRANCH   6  12
ENDBRANCH   1   9
BRANCH   4  14
ATOM     14  C   UNL     1       9.775  12.538  20.636  0.00  0.00    +0.000 A 
ATOM     15  C   UNL     1      10.461  13.748  20.830  0.00  0.00    +0.000 A 
ATOM     16  C   UNL     1      10.087  14.628  21.848  0.00  0.00    +0.000 A 
ATOM     17  C   UNL     1       9.008  14.320  22.670  0.00  0.00    +0.000 A 
ATOM     18  C   UNL     1       8.295  13.140  22.472  0.00  0.00    +0.000 A 
ATOM     19  C   UNL     1       8.672  12.254  21.460  0.00  0.00    +0.000 A 
ENDBRANCH   4  14
BRANCH   3  20
ATOM     20  C   UNL     1       9.952  13.035  17.494  0.00  0.00    +0.000 C 
ATOM     21  S   UNL     1      11.469  13.355  16.834  0.00  0.00    +0.000 S 
BRANCH  20  22
ATOM     22  N   UNL     1       8.836  13.857  17.369  0.00  0.00    +0.000 N 
ATOM     23  H   UNL     1       8.293  13.665  16.532  0.00  0.00    +0.000 HD
BRANCH  22  24
ATOM     24  C   UNL     1       8.360  14.840  18.264  0.00  0.00    +0.000 A 
ATOM     25  C   UNL     1       9.007  16.076  18.326  0.00  0.00    +0.000 A 
ATOM     26  C   UNL     1       8.543  17.075  19.189  0.00  0.00    +0.000 A 
ATOM     27  C   UNL     1       7.401  16.867  19.964  0.00  0.00    +0.000 A 
ATOM     28  C   UNL     1       6.724  15.653  19.876  0.00  0.00    +0.000 A 
ATOM     29  C   UNL     1       7.204  14.649  19.031  0.00  0.00    +0.000 A 
ENDBRANCH  22  24
ENDBRANCH  20  22
ENDBRANCH   3  20
TORSDOF 6
ENDMDL
MODEL 6
REMARK VINA RESULT:      -7.0      1.387      4.576
REMARK  Name = 
REMARK  6 active torsions:
REMARK  status: ('A' for Active; 'I' for Inactive)
REMARK    1  A    between atoms: O_1  and  C_2
REMARK    2  A    between atoms: C_5  and  C_6
REMARK    3  A    between atoms: N_8  and  C_9
REMARK    4  A    between atoms: C_9  and  N_11
REMARK    5  A    between atoms: N_11  and  C_12
REMARK    6  A    between atoms: C_18  and  C_19
REMARK                            x       y       z     vdW  Elec       q    Type
REMARK                         _______ _______ _______ _____ _____    ______ ____
ROOT
ATOM      1  C   UNL     1       3.770   7.166  18.252  0.00  0.00    +0.000 C 
ATOM      2  N   UNL     1       4.261   6.217  18.997  0.00  0.00    +0.000 NA
ATOM      3  N   UNL     1       5.428   5.801  18.384  0.00  0.00    +0.000 N 
ATOM      4  C   UNL     1       5.709   6.529  17.132  0.00  0.00    +0.000 C 
ATOM      5  C   UNL     1       4.530   7.480  16.991  0.00  0.00    +0.000 C 
ENDROOT
BRANCH   1   9
ATOM      6  C   UNL     1       0.283   9.410  19.232  0.00  0.00    +0.000 A 
ATOM      7  C   UNL     1       0.832   9.509  17.958  0.00  0.00    +0.000 A 
ATOM      8  C   UNL     1       1.978   8.772  17.645  0.00  0.00    +0.000 A 
ATOM      9  C   UNL     1       2.557   7.933  18.605  0.00  0.00    +0.000 A 
ATOM     10  C   UNL     1       1.984   7.826  19.876  0.00  0.00    +0.000 A 
ATOM     11  C   UNL     1       0.847   8.575  20.190  0.00  0.00    +0.000 A 
BRANCH   6  12
ATOM     12  O   UNL     1      -0.824  10.122  19.588  0.00  0.00    +0.000 OA
ATOM     13  H   UNL     1      -0.671  11.061  19.392  0.00  0.00    +0.000 HD
ENDBRANCH   6  12
ENDBRANCH   1   9
BRANCH   4  14
ATOM     14  C   UNL     1       5.818   5.620  15.915  0.00  0.00    +0.000 A 
ATOM     15  C   UNL     1       4.737   4.836  15.478  0.00  0.00    +0.000 A 
ATOM     16  C   UNL     1       4.871   3.979  14.384  0.00  0.00    +0.000 A 
ATOM     17  C   UNL     1       6.080   3.910  13.699  0.00  0.00    +0.000 A 
ATOM     18  C   UNL     1       7.152   4.704  14.098  0.00  0.00    +0.000 A 
ATOM     19  C   UNL     1       7.025   5.557  15.197  0.00  0.00    +0.000 A 
ENDBRANCH   4  14
BRANCH   3  20
ATOM     20  C   UNL     1       6.247   4.829  18.972  0.00  0.00    +0.000 C 
ATOM     21  S   UNL     1       7.692   5.205  19.754  0.00  0.00    +0.000 S 
BRANCH  20  22
ATOM     22  N   UNL     1       5.713   3.550  18.849  0.00  0.00    +0.000 N 
ATOM     23  H   UNL     1       6.424   2.834  18.725  0.00  0.00    +0.000 HD
BRANCH  22  24
ATOM     24  C   UNL     1       4.364   3.144  18.936  0.00  0.00    +0.000 A 
ATOM     25  C   UNL     1       3.703   2.723  17.780  0.00  0.00    +0.000 A 
ATOM     26  C   UNL     1       2.372   2.295  17.841  0.00  0.00    +0.000 A 
ATOM     27  C   UNL     1       1.702   2.240  19.065  0.00  0.00    +0.000 A 
ATOM     28  C   UNL     1       2.368   2.617  20.229  0.00  0.00    +0.000 A 
ATOM     29  C   UNL     1       3.690   3.065  20.160  0.00  0.00    +0.000 A 
ENDBRANCH  22  24
ENDBRANCH  20  22
ENDBRANCH   3  20
TORSDOF 6
ENDMDL
MODEL 7
REMARK VINA RESULT:      -6.9      5.325     10.297
REMARK  Name = 
REMARK  6 active torsions:
REMARK  status: ('A' for Active; 'I' for Inactive)
REMARK    1  A    between atoms: O_1  and  C_2
REMARK    2  A    between atoms: C_5  and  C_6
REMARK    3  A    between atoms: N_8  and  C_9
REMARK    4  A    between atoms: C_9  and  N_11
REMARK    5  A    between atoms: N_11  and  C_12
REMARK    6  A    between atoms: C_18  and  C_19
REMARK                            x       y       z     vdW  Elec       q    Type
REMARK                         _______ _______ _______ _____ _____    ______ ____
ROOT
ATOM      1  C   UNL     1       0.967   9.988  19.818  0.00  0.00    +0.000 C 
ATOM      2  N   UNL     1       0.302  10.642  18.908  0.00  0.00    +0.000 NA
ATOM      3  N   UNL     1       0.038  11.892  19.439  0.00  0.00    +0.000 N 
ATOM      4  C   UNL     1       0.560  12.054  20.809  0.00  0.00    +0.000 C 
ATOM      5  C   UNL     1       1.193  10.706  21.121  0.00  0.00    +0.000 C 
ENDROOT
BRANCH   1   9
ATOM      6  C   UNL     1       2.531   6.063  19.266  0.00  0.00    +0.000 A 
ATOM      7  C   UNL     1       1.927   6.402  20.473  0.00  0.00    +0.000 A 
ATOM      8  C   UNL     1       1.419   7.693  20.647  0.00  0.00    +0.000 A 
ATOM      9  C   UNL     1       1.508   8.628  19.609  0.00  0.00    +0.000 A 
ATOM     10  C   UNL     1       2.098   8.269  18.393  0.00  0.00    +0.000 A 
ATOM     11  C   UNL     1       2.619   6.982  18.228  0.00  0.00    +0.000 A 
BRANCH   6  12
ATOM     12  O   UNL     1       3.055   4.822  19.057  0.00  0.00    +0.000 OA
ATOM     13  H   UNL     1       3.527   4.540  19.858  0.00  0.00    +0.000 HD
ENDBRANCH   6  12
ENDBRANCH   1   9
BRANCH   4  14
ATOM     14  C   UNL     1      -0.516  12.395  21.830  0.00  0.00    +0.000 A 
ATOM     15  C   UNL     1      -1.407  11.423  22.317  0.00  0.00    +0.000 A 
ATOM     16  C   UNL     1      -2.413  11.765  23.223  0.00  0.00    +0.000 A 
ATOM     17  C   UNL     1      -2.528  13.077  23.672  0.00  0.00    +0.000 A 
ATOM     18  C   UNL     1      -1.633  14.047  23.226  0.00  0.00    +0.000 A 
ATOM     19  C   UNL     1      -0.630  13.710  22.313  0.00  0.00    +0.000 A 
ENDBRANCH   4  14
BRANCH   3  20
ATOM     20  C   UNL     1      -0.608  12.877  18.682  0.00  0.00    +0.000 C 
ATOM     21  S   UNL     1      -0.127  14.492  18.687  0.00  0.00    +0.000 S 
BRANCH  20  22
ATOM     22  N   UNL     1      -1.655  12.357  17.929  0.00  0.00    +0.000 N 
ATOM     23  H   UNL     1      -1.383  12.125  16.977  0.00  0.00    +0.000 HD
BRANCH  22  24
ATOM     24  C   UNL     1      -2.976  12.068  18.334  0.00  0.00    +0.000 A 
ATOM     25  C   UNL     1      -3.434  12.554  19.561  0.00  0.00    +0.000 A 
ATOM     26  C   UNL     1      -4.746  12.300  19.977  0.00  0.00    +0.000 A 
ATOM     27  C   UNL     1      -5.627  11.598  19.153  0.00  0.00    +0.000 A 
ATOM     28  C   UNL     1      -5.191  11.146  17.910  0.00  0.00    +0.000 A 
ATOM     29  C   UNL     1      -3.874  11.382  17.507  0.00  0.00    +0.000 A 
ENDBRANCH  22  24
ENDBRANCH  20  22
ENDBRANCH   3  20
TORSDOF 6
ENDMDL
MODEL 8
REMARK VINA RESULT:      -6.9      5.268     10.394
REMARK  Name = 
REMARK  6 active torsions:
REMARK  status: ('A' for Active; 'I' for Inactive)
REMARK    1  A    between atoms: O_1  and  C_2
REMARK    2  A    between atoms: C_5  and  C_6
REMARK    3  A    between atoms: N_8  and  C_9
REMARK    4  A    between atoms: C_9  and  N_11
REMARK    5  A    between atoms: N_11  and  C_12
REMARK    6  A    between atoms: C_18  and  C_19
REMARK                            x       y       z     vdW  Elec       q    Type
REMARK                         _______ _______ _______ _____ _____    ______ ____
ROOT
ATOM      1  C   UNL     1       0.935   9.782  19.888  0.00  0.00    +0.000 C 
ATOM      2  N   UNL     1       0.227  10.393  18.981  0.00  0.00    +0.000 NA
ATOM      3  N   UNL     1      -0.027  11.661  19.471  0.00  0.00    +0.000 N 
ATOM      4  C   UNL     1       0.549  11.884  20.809  0.00  0.00    +0.000 C 
ATOM      5  C   UNL     1       1.208  10.555  21.150  0.00  0.00    +0.000 C 
ENDROOT
BRANCH   1   9
ATOM      6  C   UNL     1       2.505   5.859  19.332  0.00  0.00    +0.000 A 
ATOM      7  C   UNL     1       2.659   6.814  18.332  0.00  0.00    +0.000 A 
ATOM      8  C   UNL     1       2.139   8.097  18.521  0.00  0.00    +0.000 A 
ATOM      9  C   UNL     1       1.480   8.419  19.713  0.00  0.00    +0.000 A 
ATOM     10  C   UNL     1       1.348   7.457  20.720  0.00  0.00    +0.000 A 
ATOM     11  C   UNL     1       1.856   6.171  20.522  0.00  0.00    +0.000 A 
BRANCH   6  12
ATOM     12  O   UNL     1       2.980   4.590  19.187  0.00  0.00    +0.000 OA
ATOM     13  H   UNL     1       2.243   3.965  19.284  0.00  0.00    +0.000 HD
ENDBRANCH   6  12
ENDBRANCH   1   9
BRANCH   4  14
ATOM     14  C   UNL     1      -0.487  12.258  21.860  0.00  0.00    +0.000 A 
ATOM     15  C   UNL     1      -1.355  11.303  22.415  0.00  0.00    +0.000 A 
ATOM     16  C   UNL     1      -2.326  11.674  23.347  0.00  0.00    +0.000 A 
ATOM     17  C   UNL     1      -2.427  13.001  23.754  0.00  0.00    +0.000 A 
ATOM     18  C   UNL     1      -1.554  13.956  23.239  0.00  0.00    +0.000 A 
ATOM     19  C   UNL     1      -0.587  13.590  22.300  0.00  0.00    +0.000 A 
ENDBRANCH   4  14
BRANCH   3  20
ATOM     20  C   UNL     1      -0.713  12.608  18.701  0.00  0.00    +0.000 C 
ATOM     21  S   UNL     1      -0.170  14.192  18.508  0.00  0.00    +0.000 S 
BRANCH  20  22
ATOM     22  N   UNL     1      -1.857  12.079  18.115  0.00  0.00    +0.000 N 
ATOM     23  H   UNL     1      -1.673  11.623  17.224  0.00  0.00    +0.000 HD
BRANCH  22  24
ATOM     24  C   UNL     1      -3.175  12.047  18.620  0.00  0.00    +0.000 A 
ATOM     25  C   UNL     1      -4.161  11.358  17.911  0.00  0.00    +0.000 A 
ATOM     26  C   UNL     1      -5.471  11.293  18.400  0.00  0.00    +0.000 A 
ATOM     27  C   UNL     1      -5.798  11.876  19.625  0.00  0.00    +0.000 A 
ATOM     28  C   UNL     1      -4.811  12.529  20.359  0.00  0.00    +0.000 A 
ATOM     29  C   UNL     1      -3.510  12.612  19.857  0.00  0.00    +0.000 A 
ENDBRANCH  22  24
ENDBRANCH  20  22
ENDBRANCH   3  20
TORSDOF 6
ENDMDL
MODEL 9
REMARK VINA RESULT:      -6.8      4.454     10.354
REMARK  Name = 
REMARK  6 active torsions:
REMARK  status: ('A' for Active; 'I' for Inactive)
REMARK    1  A    between atoms: O_1  and  C_2
REMARK    2  A    between atoms: C_5  and  C_6
REMARK    3  A    between atoms: N_8  and  C_9
REMARK    4  A    between atoms: C_9  and  N_11
REMARK    5  A    between atoms: N_11  and  C_12
REMARK    6  A    between atoms: C_18  and  C_19
REMARK                            x       y       z     vdW  Elec       q    Type
REMARK                         _______ _______ _______ _____ _____    ______ ____
ROOT
ATOM      1  C   UNL     1       1.654   8.542  19.042  0.00  0.00    +0.000 C 
ATOM      2  N   UNL     1       1.307   8.675  20.291  0.00  0.00    +0.000 NA
ATOM      3  N   UNL     1       0.418   9.733  20.341  0.00  0.00    +0.000 N 
ATOM      4  C   UNL     1       0.182  10.345  19.020  0.00  0.00    +0.000 C 
ATOM      5  C   UNL     1       1.073   9.545  18.082  0.00  0.00    +0.000 C 
ENDROOT
BRANCH   1   9
ATOM      6  C   UNL     1       4.201   5.409  17.680  0.00  0.00    +0.000 A 
ATOM      7  C   UNL     1       3.244   5.147  18.656  0.00  0.00    +0.000 A 
ATOM      8  C   UNL     1       2.415   6.181  19.099  0.00  0.00    +0.000 A 
ATOM      9  C   UNL     1       2.540   7.464  18.554  0.00  0.00    +0.000 A 
ATOM     10  C   UNL     1       3.491   7.712  17.559  0.00  0.00    +0.000 A 
ATOM     11  C   UNL     1       4.329   6.679  17.129  0.00  0.00    +0.000 A 
BRANCH   6  12
ATOM     12  O   UNL     1       5.043   4.438  17.228  0.00  0.00    +0.000 OA
ATOM     13  H   UNL     1       4.899   4.314  16.276  0.00  0.00    +0.000 HD
ENDBRANCH   6  12
ENDBRANCH   1   9
BRANCH   4  14
ATOM     14  C   UNL     1       0.533  11.826  18.967  0.00  0.00    +0.000 A 
ATOM     15  C   UNL     1       1.808  12.296  19.325  0.00  0.00    +0.000 A 
ATOM     16  C   UNL     1       2.096  13.662  19.309  0.00  0.00    +0.000 A 
ATOM     17  C   UNL     1       1.123  14.574  18.912  0.00  0.00    +0.000 A 
ATOM     18  C   UNL     1      -0.136  14.123  18.522  0.00  0.00    +0.000 A 
ATOM     19  C   UNL     1      -0.431  12.757  18.545  0.00  0.00    +0.000 A 
ENDBRANCH   4  14
BRANCH   3  20
ATOM     20  C   UNL     1      -0.205  10.097  21.540  0.00  0.00    +0.000 C 
ATOM     21  S   UNL     1       0.174   9.384  23.019  0.00  0.00    +0.000 S 
BRANCH  20  22
ATOM     22  N   UNL     1      -1.138  11.114  21.359  0.00  0.00    +0.000 N 
ATOM     23  H   UNL     1      -1.675  11.012  20.502  0.00  0.00    +0.000 HD
BRANCH  22  24
ATOM     24  C   UNL     1      -1.453  12.188  22.220  0.00  0.00    +0.000 A 
ATOM     25  C   UNL     1      -0.586  13.280  22.292  0.00  0.00    +0.000 A 
ATOM     26  C   UNL     1      -0.884  14.367  23.121  0.00  0.00    +0.000 A 
ATOM     27  C   UNL     1      -2.073  14.394  23.852  0.00  0.00    +0.000 A 
ATOM     28  C   UNL     1      -2.964  13.328  23.753  0.00  0.00    +0.000 A 
ATOM     29  C   UNL     1      -2.652  12.234  22.941  0.00  0.00    +0.000 A 
ENDBRANCH  22  24
ENDBRANCH  20  22
ENDBRANCH   3  20
TORSDOF 6
ENDMDL
