MODEL 1
REMARK VINA RESULT:      -7.2      0.000      0.000
REMARK  Name = 
REMARK  6 active torsions:
REMARK  status: ('A' for Active; 'I' for Inactive)
REMARK    1  A    between atoms: C_1  and  O_2
REMARK    2  A    between atoms: O_2  and  C_3
REMARK    3  A    between atoms: C_6  and  C_7
REMARK    4  A    between atoms: C_12  and  O_13
REMARK    5  A    between atoms: C_14  and  O_15
REMARK    6  A    between atoms: O_15  and  C_16
REMARK                            x       y       z     vdW  Elec       q    Type
REMARK                         _______ _______ _______ _____ _____    ______ ____
ROOT
ATOM      1  C   UNL     1       6.742   4.895  15.936  0.00  0.00    +0.000 A 
ATOM      2  C   UNL     1       5.468   4.390  15.702  0.00  0.00    +0.000 A 
ATOM      3  C   UNL     1       4.620   4.076  16.773  0.00  0.00    +0.000 A 
ATOM      4  C   UNL     1       4.997   4.301  18.114  0.00  0.00    +0.000 A 
ATOM      5  C   UNL     1       6.277   4.870  18.334  0.00  0.00    +0.000 A 
ATOM      6  C   UNL     1       7.144   5.126  17.253  0.00  0.00    +0.000 A 
ENDROOT
BRANCH   4   7
ATOM      7  C   UNL     1       4.019   4.005  19.206  0.00  0.00    +0.000 A 
ATOM      8  C   UNL     1       3.010   4.948  19.512  0.00  0.00    +0.000 A 
ATOM      9  C   UNL     1       2.084   4.745  20.541  0.00  0.00    +0.000 A 
ATOM     10  C   UNL     1       2.165   3.604  21.326  0.00  0.00    +0.000 A 
ATOM     11  C   UNL     1       3.134   2.644  21.051  0.00  0.00    +0.000 A 
ATOM     12  C   UNL     1       4.022   2.826  19.982  0.00  0.00    +0.000 A 
BRANCH  12  13
ATOM     13  O   UNL     1       4.867   1.792  19.680  0.00  0.00    +0.000 OA
ATOM     14  H   UNL     1       5.753   2.153  19.543  0.00  0.00    +0.000 HD
ENDBRANCH  12  13
ENDBRANCH   4   7
BRANCH   1  16
ATOM     15  C   UNL     1       6.972   4.628  13.584  0.00  0.00    +0.000 C 
ATOM     16  O   UNL     1       7.476   5.139  14.810  0.00  0.00    +0.000 OA
ENDBRANCH   1  16
BRANCH   5  17
ATOM     17  O   UNL     1       6.607   5.174  19.634  0.00  0.00    +0.000 OA
ATOM     18  C   UNL     1       7.919   5.623  19.919  0.00  0.00    +0.000 C 
ENDBRANCH   5  17
TORSDOF 4
ENDMDL
MODEL 2
REMARK VINA RESULT:      -7.1      2.279      2.711
REMARK  Name = 
REMARK  6 active torsions:
REMARK  status: ('A' for Active; 'I' for Inactive)
REMARK    1  A    between atoms: C_1  and  O_2
REMARK    2  A    between atoms: O_2  and  C_3
REMARK    3  A    between atoms: C_6  and  C_7
REMARK    4  A    between atoms: C_12  and  O_13
REMARK    5  A    between atoms: C_14  and  O_15
REMARK    6  A    between atoms: O_15  and  C_16
REMARK                            x       y       z     vdW  Elec       q    Type
REMARK                         _______ _______ _______ _____ _____    ______ ____
ROOT
ATOM      1  C   UNL     1       5.496   5.570  15.793  0.00  0.00    +0.000 A 
ATOM      2  C   UNL     1       5.259   4.210  15.951  0.00  0.00    +0.000 A 
ATOM      3  C   UNL     1       4.417   3.749  16.972  0.00  0.00    +0.000 A 
ATOM      4  C   UNL     1       3.743   4.633  17.839  0.00  0.00    +0.000 A 
ATOM      5  C   UNL     1       3.950   6.021  17.629  0.00  0.00    +0.000 A 
ATOM      6  C   UNL     1       4.845   6.471  16.638  0.00  0.00    +0.000 A 
ENDROOT
BRANCH   4   7
ATOM      7  C   UNL     1       2.806   4.078  18.865  0.00  0.00    +0.000 A 
ATOM      8  C   UNL     1       3.252   3.908  20.196  0.00  0.00    +0.000 A 
ATOM      9  C   UNL     1       2.436   3.367  21.195  0.00  0.00    +0.000 A 
ATOM     10  C   UNL     1       1.155   2.939  20.881  0.00  0.00    +0.000 A 
ATOM     11  C   UNL     1       0.671   3.099  19.586  0.00  0.00    +0.000 A 
ATOM     12  C   UNL     1       1.473   3.696  18.604  0.00  0.00    +0.000 A 
BRANCH  12  13
ATOM     13  O   UNL     1       0.900   3.943  17.385  0.00  0.00    +0.000 OA
ATOM     14  H   UNL     1       1.605   4.064  16.736  0.00  0.00    +0.000 HD
ENDBRANCH  12  13
ENDBRANCH   4   7
BRANCH   1  16
ATOM     15  C   UNL     1       7.036   4.813  14.146  0.00  0.00    +0.000 C 
ATOM     16  O   UNL     1       6.352   5.887  14.776  0.00  0.00    +0.000 OA
ENDBRANCH   1  16
BRANCH   5  17
ATOM     17  O   UNL     1       3.222   6.884  18.414  0.00  0.00    +0.000 OA
ATOM     18  C   UNL     1       2.696   8.061  17.830  0.00  0.00    +0.000 C 
ENDBRANCH   5  17
TORSDOF 4
ENDMDL
MODEL 3
REMARK VINA RESULT:      -7.0      1.553      1.604
REMARK  Name = 
REMARK  6 active torsions:
REMARK  status: ('A' for Active; 'I' for Inactive)
REMARK    1  A    between atoms: C_1  and  O_2
REMARK    2  A    between atoms: O_2  and  C_3
REMARK    3  A    between atoms: C_6  and  C_7
REMARK    4  A    between atoms: C_12  and  O_13
REMARK    5  A    between atoms: C_14  and  O_15
REMARK    6  A    between atoms: O_15  and  C_16
REMARK                            x       y       z     vdW  Elec       q    Type
REMARK                         _______ _______ _______ _____ _____    ______ ____
ROOT
ATOM      1  C   UNL     1       7.043   4.919  15.240  0.00  0.00    +0.000 A 
ATOM      2  C   UNL     1       5.831   4.615  14.633  0.00  0.00    +0.000 A 
ATOM      3  C   UNL     1       4.746   4.167  15.397  0.00  0.00    +0.000 A 
ATOM      4  C   UNL     1       4.818   4.055  16.802  0.00  0.00    +0.000 A 
ATOM      5  C   UNL     1       6.044   4.424  17.413  0.00  0.00    +0.000 A 
ATOM      6  C   UNL     1       7.147   4.815  16.629  0.00  0.00    +0.000 A 
ENDROOT
BRANCH   4   7
ATOM      7  C   UNL     1       3.602   3.634  17.564  0.00  0.00    +0.000 A 
ATOM      8  C   UNL     1       2.579   4.576  17.821  0.00  0.00    +0.000 A 
ATOM      9  C   UNL     1       1.431   4.255  18.553  0.00  0.00    +0.000 A 
ATOM     10  C   UNL     1       1.290   2.983  19.088  0.00  0.00    +0.000 A 
ATOM     11  C   UNL     1       2.266   2.021  18.849  0.00  0.00    +0.000 A 
ATOM     12  C   UNL     1       3.385   2.332  18.066  0.00  0.00    +0.000 A 
BRANCH  12  13
ATOM     13  O   UNL     1       4.246   1.312  17.759  0.00  0.00    +0.000 OA
ATOM     14  H   UNL     1       5.122   1.689  17.601  0.00  0.00    +0.000 HD
ENDBRANCH  12  13
ENDBRANCH   4   7
BRANCH   1  16
ATOM     15  C   UNL     1       7.782   5.163  12.992  0.00  0.00    +0.000 C 
ATOM     16  O   UNL     1       8.028   5.323  14.382  0.00  0.00    +0.000 OA
ENDBRANCH   1  16
BRANCH   5  17
ATOM     17  O   UNL     1       6.084   4.402  18.787  0.00  0.00    +0.000 OA
ATOM     18  C   UNL     1       6.773   5.436  19.467  0.00  0.00    +0.000 C 
ENDBRANCH   5  17
TORSDOF 4
ENDMDL
MODEL 4
REMARK VINA RESULT:      -6.9      1.814      2.155
REMARK  Name = 
REMARK  6 active torsions:
REMARK  status: ('A' for Active; 'I' for Inactive)
REMARK    1  A    between atoms: C_1  and  O_2
REMARK    2  A    between atoms: O_2  and  C_3
REMARK    3  A    between atoms: C_6  and  C_7
REMARK    4  A    between atoms: C_12  and  O_13
REMARK    5  A    between atoms: C_14  and  O_15
REMARK    6  A    between atoms: O_15  and  C_16
REMARK                            x       y       z     vdW  Elec       q    Type
REMARK                         _______ _______ _______ _____ _____    ______ ____
ROOT
ATOM      1  C   UNL     1       5.358   5.455  15.820  0.00  0.00    +0.000 A 
ATOM      2  C   UNL     1       5.096   4.094  15.927  0.00  0.00    +0.000 A 
ATOM      3  C   UNL     1       4.358   3.596  17.009  0.00  0.00    +0.000 A 
ATOM      4  C   UNL     1       3.814   4.446  17.995  0.00  0.00    +0.000 A 
ATOM      5  C   UNL     1       4.042   5.837  17.841  0.00  0.00    +0.000 A 
ATOM      6  C   UNL     1       4.836   6.321  16.782  0.00  0.00    +0.000 A 
ENDROOT
BRANCH   4   7
ATOM      7  C   UNL     1       2.980   3.855  19.088  0.00  0.00    +0.000 A 
ATOM      8  C   UNL     1       1.587   4.099  19.110  0.00  0.00    +0.000 A 
ATOM      9  C   UNL     1       0.756   3.602  20.120  0.00  0.00    +0.000 A 
ATOM     10  C   UNL     1       1.304   2.874  21.166  0.00  0.00    +0.000 A 
ATOM     11  C   UNL     1       2.668   2.599  21.176  0.00  0.00    +0.000 A 
ATOM     12  C   UNL     1       3.486   3.051  20.131  0.00  0.00    +0.000 A 
BRANCH  12  13
ATOM     13  O   UNL     1       4.792   2.642  20.129  0.00  0.00    +0.000 OA
ATOM     14  H   UNL     1       5.007   2.313  19.246  0.00  0.00    +0.000 HD
ENDBRANCH  12  13
ENDBRANCH   4   7
BRANCH   1  16
ATOM     15  C   UNL     1       6.981   4.825  14.198  0.00  0.00    +0.000 C 
ATOM     16  O   UNL     1       6.106   5.809  14.732  0.00  0.00    +0.000 OA
ENDBRANCH   1  16
BRANCH   5  17
ATOM     17  O   UNL     1       3.435   6.671  18.750  0.00  0.00    +0.000 OA
ATOM     18  C   UNL     1       2.572   7.689  18.275  0.00  0.00    +0.000 C 
ENDBRANCH   5  17
TORSDOF 4
ENDMDL
MODEL 5
REMARK VINA RESULT:      -6.9      0.932      1.692
REMARK  Name = 
REMARK  6 active torsions:
REMARK  status: ('A' for Active; 'I' for Inactive)
REMARK    1  A    between atoms: C_1  and  O_2
REMARK    2  A    between atoms: O_2  and  C_3
REMARK    3  A    between atoms: C_6  and  C_7
REMARK    4  A    between atoms: C_12  and  O_13
REMARK    5  A    between atoms: C_14  and  O_15
REMARK    6  A    between atoms: O_15  and  C_16
REMARK                            x       y       z     vdW  Elec       q    Type
REMARK                         _______ _______ _______ _____ _____    ______ ____
ROOT
ATOM      1  C   UNL     1       6.599   4.630  15.893  0.00  0.00    +0.000 A 
ATOM      2  C   UNL     1       5.264   4.299  15.694  0.00  0.00    +0.000 A 
ATOM      3  C   UNL     1       4.408   4.111  16.787  0.00  0.00    +0.000 A 
ATOM      4  C   UNL     1       4.843   4.296  18.117  0.00  0.00    +0.000 A 
ATOM      5  C   UNL     1       6.193   4.691  18.301  0.00  0.00    +0.000 A 
ATOM      6  C   UNL     1       7.061   4.818  17.197  0.00  0.00    +0.000 A 
ENDROOT
BRANCH   4   7
ATOM      7  C   UNL     1       3.861   4.145  19.234  0.00  0.00    +0.000 A 
ATOM      8  C   UNL     1       3.718   2.890  19.871  0.00  0.00    +0.000 A 
ATOM      9  C   UNL     1       2.797   2.675  20.902  0.00  0.00    +0.000 A 
ATOM     10  C   UNL     1       1.958   3.704  21.302  0.00  0.00    +0.000 A 
ATOM     11  C   UNL     1       2.074   4.959  20.711  0.00  0.00    +0.000 A 
ATOM     12  C   UNL     1       3.038   5.184  19.720  0.00  0.00    +0.000 A 
BRANCH  12  13
ATOM     13  O   UNL     1       3.192   6.467  19.267  0.00  0.00    +0.000 OA
ATOM     14  H   UNL     1       2.395   6.966  19.490  0.00  0.00    +0.000 HD
ENDBRANCH  12  13
ENDBRANCH   4   7
BRANCH   1  16
ATOM     15  C   UNL     1       6.764   4.247  13.551  0.00  0.00    +0.000 C 
ATOM     16  O   UNL     1       7.332   4.763  14.747  0.00  0.00    +0.000 OA
ENDBRANCH   1  16
BRANCH   5  17
ATOM     17  O   UNL     1       6.592   4.960  19.589  0.00  0.00    +0.000 OA
ATOM     18  C   UNL     1       7.841   5.594  19.800  0.00  0.00    +0.000 C 
ENDBRANCH   5  17
TORSDOF 4
ENDMDL
MODEL 6
REMARK VINA RESULT:      -6.7      1.708      2.003
REMARK  Name = 
REMARK  6 active torsions:
REMARK  status: ('A' for Active; 'I' for Inactive)
REMARK    1  A    between atoms: C_1  and  O_2
REMARK    2  A    between atoms: O_2  and  C_3
REMARK    3  A    between atoms: C_6  and  C_7
REMARK    4  A    between atoms: C_12  and  O_13
REMARK    5  A    between atoms: C_14  and  O_15
REMARK    6  A    between atoms: O_15  and  C_16
REMARK                            x       y       z     vdW  Elec       q    Type
REMARK                         _______ _______ _______ _____ _____    ______ ____
ROOT
ATOM      1  C   UNL     1       6.638   5.242  15.325  0.00  0.00    +0.000 A 
ATOM      2  C   UNL     1       6.165   3.941  15.199  0.00  0.00    +0.000 A 
ATOM      3  C   UNL     1       5.209   3.443  16.094  0.00  0.00    +0.000 A 
ATOM      4  C   UNL     1       4.653   4.243  17.114  0.00  0.00    +0.000 A 
ATOM      5  C   UNL     1       5.103   5.586  17.194  0.00  0.00    +0.000 A 
ATOM      6  C   UNL     1       6.109   6.058  16.327  0.00  0.00    +0.000 A 
ENDROOT
BRANCH   4   7
ATOM      7  C   UNL     1       3.587   3.669  17.993  0.00  0.00    +0.000 A 
ATOM      8  C   UNL     1       2.233   3.758  17.595  0.00  0.00    +0.000 A 
ATOM      9  C   UNL     1       1.187   3.269  18.384  0.00  0.00    +0.000 A 
ATOM     10  C   UNL     1       1.464   2.708  19.623  0.00  0.00    +0.000 A 
ATOM     11  C   UNL     1       2.783   2.588  20.048  0.00  0.00    +0.000 A 
ATOM     12  C   UNL     1       3.830   3.027  19.226  0.00  0.00    +0.000 A 
BRANCH  12  13
ATOM     13  O   UNL     1       5.109   2.768  19.640  0.00  0.00    +0.000 OA
ATOM     14  H   UNL     1       5.720   3.098  18.968  0.00  0.00    +0.000 HD
ENDBRANCH  12  13
ENDBRANCH   4   7
BRANCH   1  16
ATOM     15  C   UNL     1       7.549   4.936  13.149  0.00  0.00    +0.000 C 
ATOM     16  O   UNL     1       7.584   5.599  14.406  0.00  0.00    +0.000 OA
ENDBRANCH   1  16
BRANCH   5  17
ATOM     17  O   UNL     1       4.495   6.391  18.128  0.00  0.00    +0.000 OA
ATOM     18  C   UNL     1       3.533   7.335  17.696  0.00  0.00    +0.000 C 
ENDBRANCH   5  17
TORSDOF 4
ENDMDL
MODEL 7
REMARK VINA RESULT:      -6.7      2.230      2.736
REMARK  Name = 
REMARK  6 active torsions:
REMARK  status: ('A' for Active; 'I' for Inactive)
REMARK    1  A    between atoms: C_1  and  O_2
REMARK    2  A    between atoms: O_2  and  C_3
REMARK    3  A    between atoms: C_6  and  C_7
REMARK    4  A    between atoms: C_12  and  O_13
REMARK    5  A    between atoms: C_14  and  O_15
REMARK    6  A    between atoms: O_15  and  C_16
REMARK                            x       y       z     vdW  Elec       q    Type
REMARK                         _______ _______ _______ _____ _____    ______ ____
ROOT
ATOM      1  C   UNL     1       5.676   5.533  15.874  0.00  0.00    +0.000 A 
ATOM      2  C   UNL     1       5.526   4.175  16.128  0.00  0.00    +0.000 A 
ATOM      3  C   UNL     1       4.563   3.724  17.040  0.00  0.00    +0.000 A 
ATOM      4  C   UNL     1       3.681   4.611  17.694  0.00  0.00    +0.000 A 
ATOM      5  C   UNL     1       3.808   5.989  17.381  0.00  0.00    +0.000 A 
ATOM      6  C   UNL     1       4.820   6.436  16.508  0.00  0.00    +0.000 A 
ENDROOT
BRANCH   4   7
ATOM      7  C   UNL     1       2.632   4.058  18.605  0.00  0.00    +0.000 A 
ATOM      8  C   UNL     1       1.807   3.000  18.158  0.00  0.00    +0.000 A 
ATOM      9  C   UNL     1       0.789   2.459  18.950  0.00  0.00    +0.000 A 
ATOM     10  C   UNL     1       0.537   2.990  20.206  0.00  0.00    +0.000 A 
ATOM     11  C   UNL     1       1.333   4.023  20.691  0.00  0.00    +0.000 A 
ATOM     12  C   UNL     1       2.390   4.522  19.916  0.00  0.00    +0.000 A 
BRANCH  12  13
ATOM     13  O   UNL     1       3.216   5.447  20.495  0.00  0.00    +0.000 OA
ATOM     14  H   UNL     1       2.751   5.847  21.242  0.00  0.00    +0.000 HD
ENDBRANCH  12  13
ENDBRANCH   4   7
BRANCH   1  16
ATOM     15  C   UNL     1       7.058   4.826  14.072  0.00  0.00    +0.000 C 
ATOM     16  O   UNL     1       6.664   5.843  14.983  0.00  0.00    +0.000 OA
ENDBRANCH   1  16
BRANCH   5  17
ATOM     17  O   UNL     1       2.890   6.842  17.947  0.00  0.00    +0.000 OA
ATOM     18  C   UNL     1       3.007   8.232  17.704  0.00  0.00    +0.000 C 
ENDBRANCH   5  17
TORSDOF 4
ENDMDL
MODEL 8
REMARK VINA RESULT:      -6.7      2.524      3.229
REMARK  Name = 
REMARK  6 active torsions:
REMARK  status: ('A' for Active; 'I' for Inactive)
REMARK    1  A    between atoms: C_1  and  O_2
REMARK    2  A    between atoms: O_2  and  C_3
REMARK    3  A    between atoms: C_6  and  C_7
REMARK    4  A    between atoms: C_12  and  O_13
REMARK    5  A    between atoms: C_14  and  O_15
REMARK    6  A    between atoms: O_15  and  C_16
REMARK                            x       y       z     vdW  Elec       q    Type
REMARK                         _______ _______ _______ _____ _____    ______ ____
ROOT
ATOM      1  C   UNL     1       6.255   6.455  17.413  0.00  0.00    +0.000 A 
ATOM      2  C   UNL     1       6.379   5.184  17.962  0.00  0.00    +0.000 A 
ATOM      3  C   UNL     1       5.262   4.530  18.498  0.00  0.00    +0.000 A 
ATOM      4  C   UNL     1       3.972   5.101  18.458  0.00  0.00    +0.000 A 
ATOM      5  C   UNL     1       3.853   6.373  17.843  0.00  0.00    +0.000 A 
ATOM      6  C   UNL     1       4.992   7.048  17.362  0.00  0.00    +0.000 A 
ENDROOT
BRANCH   4   7
ATOM      7  C   UNL     1       2.812   4.320  18.988  0.00  0.00    +0.000 A 
ATOM      8  C   UNL     1       2.414   4.489  20.334  0.00  0.00    +0.000 A 
ATOM      9  C   UNL     1       1.356   3.768  20.899  0.00  0.00    +0.000 A 
ATOM     10  C   UNL     1       0.687   2.820  20.139  0.00  0.00    +0.000 A 
ATOM     11  C   UNL     1       1.036   2.631  18.806  0.00  0.00    +0.000 A 
ATOM     12  C   UNL     1       2.058   3.398  18.230  0.00  0.00    +0.000 A 
BRANCH  12  13
ATOM     13  O   UNL     1       2.272   3.259  16.885  0.00  0.00    +0.000 OA
ATOM     14  H   UNL     1       2.179   2.324  16.657  0.00  0.00    +0.000 HD
ENDBRANCH  12  13
ENDBRANCH   4   7
BRANCH   1  16
ATOM     15  C   UNL     1       7.908   8.155  17.601  0.00  0.00    +0.000 C 
ATOM     16  O   UNL     1       7.422   6.992  16.946  0.00  0.00    +0.000 OA
ENDBRANCH   1  16
BRANCH   5  17
ATOM     17  O   UNL     1       2.583   6.888  17.723  0.00  0.00    +0.000 OA
ATOM     18  C   UNL     1       2.376   8.264  17.986  0.00  0.00    +0.000 C 
ENDBRANCH   5  17
TORSDOF 4
ENDMDL
MODEL 9
REMARK VINA RESULT:      -6.6      3.039      4.191
REMARK  Name = 
REMARK  6 active torsions:
REMARK  status: ('A' for Active; 'I' for Inactive)
REMARK    1  A    between atoms: C_1  and  O_2
REMARK    2  A    between atoms: O_2  and  C_3
REMARK    3  A    between atoms: C_6  and  C_7
REMARK    4  A    between atoms: C_12  and  O_13
REMARK    5  A    between atoms: C_14  and  O_15
REMARK    6  A    between atoms: O_15  and  C_16
REMARK                            x       y       z     vdW  Elec       q    Type
REMARK                         _______ _______ _______ _____ _____    ______ ____
ROOT
ATOM      1  C   UNL     1       5.056   4.406  16.475  0.00  0.00    +0.000 A 
ATOM      2  C   UNL     1       5.455   5.726  16.654  0.00  0.00    +0.000 A 
ATOM      3  C   UNL     1       4.608   6.645  17.286  0.00  0.00    +0.000 A 
ATOM      4  C   UNL     1       3.351   6.267  17.805  0.00  0.00    +0.000 A 
ATOM      5  C   UNL     1       2.983   4.905  17.665  0.00  0.00    +0.000 A 
ATOM      6  C   UNL     1       3.817   4.003  16.975  0.00  0.00    +0.000 A 
ENDROOT
BRANCH   4   7
ATOM      7  C   UNL     1       2.524   7.283  18.527  0.00  0.00    +0.000 A 
ATOM      8  C   UNL     1       2.021   8.401  17.822  0.00  0.00    +0.000 A 
ATOM      9  C   UNL     1       1.267   9.401  18.445  0.00  0.00    +0.000 A 
ATOM     10  C   UNL     1       1.027   9.333  19.810  0.00  0.00    +0.000 A 
ATOM     11  C   UNL     1       1.492   8.244  20.540  0.00  0.00    +0.000 A 
ATOM     12  C   UNL     1       2.197   7.216  19.899  0.00  0.00    +0.000 A 
BRANCH  12  13
ATOM     13  O   UNL     1       2.517   6.111  20.641  0.00  0.00    +0.000 OA
ATOM     14  H   UNL     1       2.078   6.182  21.499  0.00  0.00    +0.000 HD
ENDBRANCH  12  13
ENDBRANCH   4   7
BRANCH   1  16
ATOM     15  C   UNL     1       6.322   3.995  14.504  0.00  0.00    +0.000 C 
ATOM     16  O   UNL     1       5.963   3.617  15.825  0.00  0.00    +0.000 OA
ENDBRANCH   1  16
BRANCH   5  17
ATOM     17  O   UNL     1       1.801   4.517  18.252  0.00  0.00    +0.000 OA
ATOM     18  C   UNL     1       1.590   3.144  18.524  0.00  0.00    +0.000 C 
ENDBRANCH   5  17
TORSDOF 4
ENDMDL
