MODEL 1
REMARK VINA RESULT:      -7.7      0.000      0.000
REMARK  Name = 
REMARK  9 active torsions:
REMARK  status: ('A' for Active; 'I' for Inactive)
REMARK    1  A    between atoms: C_1  and  O_2
REMARK    2  A    between atoms: O_2  and  C_3
REMARK    3  A    between atoms: C_6  and  C_7
REMARK    4  A    between atoms: C_14  and  O_15
REMARK    5  A    between atoms: O_15  and  C_16
REMARK    6  A    between atoms: C_16  and  C_17
REMARK    7  A    between atoms: C_17  and  C_18
REMARK    8  A    between atoms: C_18  and  N_19
REMARK    9  A    between atoms: C_22  and  C_23
REMARK                            x       y       z     vdW  Elec       q    Type
REMARK                         _______ _______ _______ _____ _____    ______ ____
ROOT
ATOM      1  C   UNL     1       3.641   5.992  17.992  0.00  0.00    +0.000 A 
ATOM      2  C   UNL     1       3.619   5.429  19.209  0.00  0.00    +0.000 A 
ATOM      3  C   UNL     1       2.573   5.792  20.135  0.00  0.00    +0.000 A 
ATOM      4  O   UNL     1       2.293   5.065  21.087  0.00  0.00    +0.000 OA
ATOM      5  C   UNL     1       1.948   7.079  19.910  0.00  0.00    +0.000 A 
ATOM      6  C   UNL     1       1.322   7.681  20.999  0.00  0.00    +0.000 A 
ATOM      7  C   UNL     1       0.925   8.997  20.893  0.00  0.00    +0.000 A 
ATOM      8  C   UNL     1       1.095   9.692  19.692  0.00  0.00    +0.000 A 
ATOM      9  C   UNL     1       1.662   9.056  18.564  0.00  0.00    +0.000 A 
ATOM     10  C   UNL     1       2.134   7.729  18.681  0.00  0.00    +0.000 A 
ATOM     11  O   UNL     1       2.842   7.105  17.644  0.00  0.00    +0.000 OA
ENDROOT
BRANCH   1  15
ATOM     12  C   UNL     1       6.120   4.337  14.844  0.00  0.00    +0.000 A 
ATOM     13  C   UNL     1       5.793   5.682  14.862  0.00  0.00    +0.000 A 
ATOM     14  C   UNL     1       5.101   6.210  15.949  0.00  0.00    +0.000 A 
ATOM     15  C   UNL     1       4.619   5.408  17.016  0.00  0.00    +0.000 A 
ATOM     16  C   UNL     1       5.041   4.075  17.028  0.00  0.00    +0.000 A 
ATOM     17  C   UNL     1       5.785   3.543  15.948  0.00  0.00    +0.000 A 
BRANCH  12  19
ATOM     18  C   UNL     1       5.874   3.520  12.631  0.00  0.00    +0.000 C 
ATOM     19  O   UNL     1       6.722   3.934  13.690  0.00  0.00    +0.000 OA
ENDBRANCH  12  19
ENDBRANCH   1  15
BRANCH   8  20
ATOM     20  O   UNL     1       0.865  11.032  19.850  0.00  0.00    +0.000 OA
BRANCH  20  21
ATOM     21  C   UNL     1      -0.092  11.682  19.023  0.00  0.00    +0.000 C 
BRANCH  21  22
ATOM     22  C   UNL     1       0.402  13.119  18.720  0.00  0.00    +0.000 C 
BRANCH  22  23
ATOM     23  C   UNL     1       1.877  13.140  18.277  0.00  0.00    +0.000 C 
BRANCH  23  24
ATOM     24  N   UNL     1       2.798  13.958  19.101  0.00  0.00    +0.000 NA
ATOM     25  C   UNL     1       2.085  15.096  19.722  0.00  0.00    +0.000 C 
ATOM     26  C   UNL     1       1.648  16.169  18.716  0.00  0.00    +0.000 C 
ATOM     27  C   UNL     1       2.824  16.673  17.867  0.00  0.00    +0.000 C 
ATOM     28  C   UNL     1       2.327  17.556  16.723  0.00  0.00    +0.000 C 
ATOM     29  C   UNL     1       3.661  15.507  17.320  0.00  0.00    +0.000 C 
ATOM     30  C   UNL     1       3.983  14.473  18.402  0.00  0.00    +0.000 C 
ENDBRANCH  23  24
ENDBRANCH  22  23
ENDBRANCH  21  22
ENDBRANCH  20  21
ENDBRANCH   8  20
TORSDOF 7
ENDMDL
MODEL 2
REMARK VINA RESULT:      -7.6      3.960     10.517
REMARK  Name = 
REMARK  9 active torsions:
REMARK  status: ('A' for Active; 'I' for Inactive)
REMARK    1  A    between atoms: C_1  and  O_2
REMARK    2  A    between atoms: O_2  and  C_3
REMARK    3  A    between atoms: C_6  and  C_7
REMARK    4  A    between atoms: C_14  and  O_15
REMARK    5  A    between atoms: O_15  and  C_16
REMARK    6  A    between atoms: C_16  and  C_17
REMARK    7  A    between atoms: C_17  and  C_18
REMARK    8  A    between atoms: C_18  and  N_19
REMARK    9  A    between atoms: C_22  and  C_23
REMARK                            x       y       z     vdW  Elec       q    Type
REMARK                         _______ _______ _______ _____ _____    ______ ____
ROOT
ATOM      1  C   UNL     1      -1.049  11.841  21.447  0.00  0.00    +0.000 A 
ATOM      2  C   UNL     1      -0.978  12.453  20.256  0.00  0.00    +0.000 A 
ATOM      3  C   UNL     1      -0.730  11.667  19.072  0.00  0.00    +0.000 A 
ATOM      4  O   UNL     1      -1.014  12.099  17.956  0.00  0.00    +0.000 OA
ATOM      5  C   UNL     1      -0.070  10.395  19.285  0.00  0.00    +0.000 A 
ATOM      6  C   UNL     1       0.617   9.846  18.204  0.00  0.00    +0.000 A 
ATOM      7  C   UNL     1       1.449   8.770  18.423  0.00  0.00    +0.000 A 
ATOM      8  C   UNL     1       1.552   8.204  19.697  0.00  0.00    +0.000 A 
ATOM      9  C   UNL     1       0.796   8.715  20.777  0.00  0.00    +0.000 A 
ATOM     10  C   UNL     1      -0.008   9.860  20.580  0.00  0.00    +0.000 A 
ATOM     11  O   UNL     1      -0.654  10.499  21.647  0.00  0.00    +0.000 OA
ENDROOT
BRANCH   1  15
ATOM     12  C   UNL     1      -2.744  14.464  24.455  0.00  0.00    +0.000 A 
ATOM     13  C   UNL     1      -3.432  13.348  24.011  0.00  0.00    +0.000 A 
ATOM     14  C   UNL     1      -2.814  12.456  23.138  0.00  0.00    +0.000 A 
ATOM     15  C   UNL     1      -1.524  12.686  22.593  0.00  0.00    +0.000 A 
ATOM     16  C   UNL     1      -0.810  13.762  23.126  0.00  0.00    +0.000 A 
ATOM     17  C   UNL     1      -1.416  14.646  24.050  0.00  0.00    +0.000 A 
BRANCH  12  19
ATOM     18  C   UNL     1      -4.477  16.076  24.587  0.00  0.00    +0.000 C 
ATOM     19  O   UNL     1      -3.490  15.293  25.237  0.00  0.00    +0.000 OA
ENDBRANCH  12  19
ENDBRANCH   1  15
BRANCH   8  20
ATOM     20  O   UNL     1       2.588   7.312  19.769  0.00  0.00    +0.000 OA
BRANCH  20  21
ATOM     21  C   UNL     1       2.328   5.961  20.123  0.00  0.00    +0.000 C 
BRANCH  21  22
ATOM     22  C   UNL     1       2.241   5.112  18.830  0.00  0.00    +0.000 C 
BRANCH  22  23
ATOM     23  C   UNL     1       3.315   5.516  17.802  0.00  0.00    +0.000 C 
BRANCH  23  24
ATOM     24  N   UNL     1       4.341   4.493  17.489  0.00  0.00    +0.000 NA
ATOM     25  C   UNL     1       5.270   4.308  18.625  0.00  0.00    +0.000 C 
ATOM     26  C   UNL     1       6.194   5.508  18.863  0.00  0.00    +0.000 C 
ATOM     27  C   UNL     1       6.970   5.896  17.596  0.00  0.00    +0.000 C 
ATOM     28  C   UNL     1       7.696   7.226  17.791  0.00  0.00    +0.000 C 
ATOM     29  C   UNL     1       6.045   5.963  16.371  0.00  0.00    +0.000 C 
ATOM     30  C   UNL     1       5.129   4.741  16.274  0.00  0.00    +0.000 C 
ENDBRANCH  23  24
ENDBRANCH  22  23
ENDBRANCH  21  22
ENDBRANCH  20  21
ENDBRANCH   8  20
TORSDOF 7
ENDMDL
MODEL 3
REMARK VINA RESULT:      -7.5      4.132      9.874
REMARK  Name = 
REMARK  9 active torsions:
REMARK  status: ('A' for Active; 'I' for Inactive)
REMARK    1  A    between atoms: C_1  and  O_2
REMARK    2  A    between atoms: O_2  and  C_3
REMARK    3  A    between atoms: C_6  and  C_7
REMARK    4  A    between atoms: C_14  and  O_15
REMARK    5  A    between atoms: O_15  and  C_16
REMARK    6  A    between atoms: C_16  and  C_17
REMARK    7  A    between atoms: C_17  and  C_18
REMARK    8  A    between atoms: C_18  and  N_19
REMARK    9  A    between atoms: C_22  and  C_23
REMARK                            x       y       z     vdW  Elec       q    Type
REMARK                         _______ _______ _______ _____ _____    ______ ____
ROOT
ATOM      1  C   UNL     1      -0.787  10.260  19.258  0.00  0.00    +0.000 A 
ATOM      2  C   UNL     1      -0.801   9.607  20.430  0.00  0.00    +0.000 A 
ATOM      3  C   UNL     1       0.409   8.977  20.900  0.00  0.00    +0.000 A 
ATOM      4  O   UNL     1       0.554   8.697  22.090  0.00  0.00    +0.000 OA
ATOM      5  C   UNL     1       1.383   8.639  19.883  0.00  0.00    +0.000 A 
ATOM      6  C   UNL     1       2.296   7.631  20.186  0.00  0.00    +0.000 A 
ATOM      7  C   UNL     1       3.078   7.118  19.173  0.00  0.00    +0.000 A 
ATOM      8  C   UNL     1       2.997   7.643  17.881  0.00  0.00    +0.000 A 
ATOM      9  C   UNL     1       2.125   8.719  17.593  0.00  0.00    +0.000 A 
ATOM     10  C   UNL     1       1.269   9.207  18.606  0.00  0.00    +0.000 A 
ATOM     11  O   UNL     1       0.279  10.163  18.335  0.00  0.00    +0.000 OA
ENDROOT
BRANCH   1  15
ATOM     12  C   UNL     1      -4.524  12.393  18.729  0.00  0.00    +0.000 A 
ATOM     13  C   UNL     1      -3.659  12.715  19.760  0.00  0.00    +0.000 A 
ATOM     14  C   UNL     1      -2.411  12.099  19.833  0.00  0.00    +0.000 A 
ATOM     15  C   UNL     1      -2.011  11.069  18.943  0.00  0.00    +0.000 A 
ATOM     16  C   UNL     1      -2.854  10.828  17.855  0.00  0.00    +0.000 A 
ATOM     17  C   UNL     1      -4.103  11.485  17.750  0.00  0.00    +0.000 A 
BRANCH  12  19
ATOM     18  C   UNL     1      -6.462  13.184  17.616  0.00  0.00    +0.000 C 
ATOM     19  O   UNL     1      -5.738  13.004  18.821  0.00  0.00    +0.000 OA
ENDBRANCH  12  19
ENDBRANCH   1  15
BRANCH   8  20
ATOM     20  O   UNL     1       3.663   6.861  16.977  0.00  0.00    +0.000 OA
BRANCH  20  21
ATOM     21  C   UNL     1       5.053   6.615  17.150  0.00  0.00    +0.000 C 
BRANCH  21  22
ATOM     22  C   UNL     1       5.328   5.110  16.909  0.00  0.00    +0.000 C 
BRANCH  22  23
ATOM     23  C   UNL     1       4.677   4.224  17.989  0.00  0.00    +0.000 C 
BRANCH  23  24
ATOM     24  N   UNL     1       3.822   3.117  17.501  0.00  0.00    +0.000 NA
ATOM     25  C   UNL     1       2.480   3.610  17.122  0.00  0.00    +0.000 C 
ATOM     26  C   UNL     1       1.631   4.058  18.318  0.00  0.00    +0.000 C 
ATOM     27  C   UNL     1       1.515   2.959  19.384  0.00  0.00    +0.000 C 
ATOM     28  C   UNL     1       0.872   3.506  20.658  0.00  0.00    +0.000 C 
ATOM     29  C   UNL     1       2.884   2.336  19.698  0.00  0.00    +0.000 C 
ATOM     30  C   UNL     1       3.662   1.988  18.427  0.00  0.00    +0.000 C 
ENDBRANCH  23  24
ENDBRANCH  22  23
ENDBRANCH  21  22
ENDBRANCH  20  21
ENDBRANCH   8  20
TORSDOF 7
ENDMDL
MODEL 4
REMARK VINA RESULT:      -7.5      3.668     10.049
REMARK  Name = 
REMARK  9 active torsions:
REMARK  status: ('A' for Active; 'I' for Inactive)
REMARK    1  A    between atoms: C_1  and  O_2
REMARK    2  A    between atoms: O_2  and  C_3
REMARK    3  A    between atoms: C_6  and  C_7
REMARK    4  A    between atoms: C_14  and  O_15
REMARK    5  A    between atoms: O_15  and  C_16
REMARK    6  A    between atoms: C_16  and  C_17
REMARK    7  A    between atoms: C_17  and  C_18
REMARK    8  A    between atoms: C_18  and  N_19
REMARK    9  A    between atoms: C_22  and  C_23
REMARK                            x       y       z     vdW  Elec       q    Type
REMARK                         _______ _______ _______ _____ _____    ______ ____
ROOT
ATOM      1  C   UNL     1      -0.236  11.279  21.201  0.00  0.00    +0.000 A 
ATOM      2  C   UNL     1       0.274  11.894  20.124  0.00  0.00    +0.000 A 
ATOM      3  C   UNL     1       0.702  11.103  18.996  0.00  0.00    +0.000 A 
ATOM      4  O   UNL     1       0.825  11.607  17.881  0.00  0.00    +0.000 OA
ATOM      5  C   UNL     1       1.041   9.724  19.284  0.00  0.00    +0.000 A 
ATOM      6  C   UNL     1       1.896   9.080  18.391  0.00  0.00    +0.000 A 
ATOM      7  C   UNL     1       2.429   7.859  18.747  0.00  0.00    +0.000 A 
ATOM      8  C   UNL     1       2.069   7.255  19.954  0.00  0.00    +0.000 A 
ATOM      9  C   UNL     1       1.141   7.875  20.823  0.00  0.00    +0.000 A 
ATOM     10  C   UNL     1       0.641   9.156  20.502  0.00  0.00    +0.000 A 
ATOM     11  O   UNL     1      -0.156   9.881  21.399  0.00  0.00    +0.000 OA
ENDROOT
BRANCH   1  15
ATOM     12  C   UNL     1      -2.405  13.894  23.894  0.00  0.00    +0.000 A 
ATOM     13  C   UNL     1      -2.795  12.579  23.709  0.00  0.00    +0.000 A 
ATOM     14  C   UNL     1      -2.009  11.728  22.936  0.00  0.00    +0.000 A 
ATOM     15  C   UNL     1      -0.857  12.171  22.235  0.00  0.00    +0.000 A 
ATOM     16  C   UNL     1      -0.427  13.472  22.512  0.00  0.00    +0.000 A 
ATOM     17  C   UNL     1      -1.197  14.328  23.335  0.00  0.00    +0.000 A 
BRANCH  12  19
ATOM     18  C   UNL     1      -4.523  14.958  23.955  0.00  0.00    +0.000 C 
ATOM     19  O   UNL     1      -3.302  14.637  24.601  0.00  0.00    +0.000 OA
ENDBRANCH  12  19
ENDBRANCH   1  15
BRANCH   8  20
ATOM     20  O   UNL     1       2.868   6.180  20.237  0.00  0.00    +0.000 OA
BRANCH  20  21
ATOM     21  C   UNL     1       2.444   4.874  19.871  0.00  0.00    +0.000 C 
BRANCH  21  22
ATOM     22  C   UNL     1       3.686   4.041  19.463  0.00  0.00    +0.000 C 
BRANCH  22  23
ATOM     23  C   UNL     1       4.889   4.935  19.109  0.00  0.00    +0.000 C 
BRANCH  23  24
ATOM     24  N   UNL     1       5.508   4.707  17.782  0.00  0.00    +0.000 NA
ATOM     25  C   UNL     1       6.979   4.603  17.893  0.00  0.00    +0.000 C 
ATOM     26  C   UNL     1       7.662   5.929  18.251  0.00  0.00    +0.000 C 
ATOM     27  C   UNL     1       7.277   7.054  17.279  0.00  0.00    +0.000 C 
ATOM     28  C   UNL     1       7.776   8.406  17.790  0.00  0.00    +0.000 C 
ATOM     29  C   UNL     1       5.760   7.096  17.042  0.00  0.00    +0.000 C 
ATOM     30  C   UNL     1       5.185   5.707  16.755  0.00  0.00    +0.000 C 
ENDBRANCH  23  24
ENDBRANCH  22  23
ENDBRANCH  21  22
ENDBRANCH  20  21
ENDBRANCH   8  20
TORSDOF 7
ENDMDL
MODEL 5
REMARK VINA RESULT:      -7.5      4.220      9.706
REMARK  Name = 
REMARK  9 active torsions:
REMARK  status: ('A' for Active; 'I' for Inactive)
REMARK    1  A    between atoms: C_1  and  O_2
REMARK    2  A    between atoms: O_2  and  C_3
REMARK    3  A    between atoms: C_6  and  C_7
REMARK    4  A    between atoms: C_14  and  O_15
REMARK    5  A    between atoms: O_15  and  C_16
REMARK    6  A    between atoms: C_16  and  C_17
REMARK    7  A    between atoms: C_17  and  C_18
REMARK    8  A    between atoms: C_18  and  N_19
REMARK    9  A    between atoms: C_22  and  C_23
REMARK                            x       y       z     vdW  Elec       q    Type
REMARK                         _______ _______ _______ _____ _____    ______ ____
ROOT
ATOM      1  C   UNL     1      -0.116   9.592  18.792  0.00  0.00    +0.000 A 
ATOM      2  C   UNL     1      -0.212   9.038  20.010  0.00  0.00    +0.000 A 
ATOM      3  C   UNL     1       0.956   8.433  20.603  0.00  0.00    +0.000 A 
ATOM      4  O   UNL     1       1.023   8.248  21.818  0.00  0.00    +0.000 OA
ATOM      5  C   UNL     1       1.983   8.000  19.678  0.00  0.00    +0.000 A 
ATOM      6  C   UNL     1       2.857   7.007  20.117  0.00  0.00    +0.000 A 
ATOM      7  C   UNL     1       3.689   6.403  19.199  0.00  0.00    +0.000 A 
ATOM      8  C   UNL     1       3.696   6.822  17.866  0.00  0.00    +0.000 A 
ATOM      9  C   UNL     1       2.862   7.882  17.439  0.00  0.00    +0.000 A 
ATOM     10  C   UNL     1       1.956   8.463  18.354  0.00  0.00    +0.000 A 
ATOM     11  O   UNL     1       1.002   9.406  17.948  0.00  0.00    +0.000 OA
ENDROOT
BRANCH   1  15
ATOM     12  C   UNL     1      -3.788  11.692  17.839  0.00  0.00    +0.000 A 
ATOM     13  C   UNL     1      -3.043  12.028  18.955  0.00  0.00    +0.000 A 
ATOM     14  C   UNL     1      -1.807  11.423  19.170  0.00  0.00    +0.000 A 
ATOM     15  C   UNL     1      -1.304  10.389  18.338  0.00  0.00    +0.000 A 
ATOM     16  C   UNL     1      -2.021  10.133  17.167  0.00  0.00    +0.000 A 
ATOM     17  C   UNL     1      -3.256  10.779  16.920  0.00  0.00    +0.000 A 
BRANCH  12  19
ATOM     18  C   UNL     1      -5.766  12.307  18.992  0.00  0.00    +0.000 C 
ATOM     19  O   UNL     1      -5.009  12.293  17.793  0.00  0.00    +0.000 OA
ENDBRANCH  12  19
ENDBRANCH   1  15
BRANCH   8  20
ATOM     20  O   UNL     1       4.401   5.960  17.071  0.00  0.00    +0.000 OA
BRANCH  20  21
ATOM     21  C   UNL     1       4.718   4.661  17.553  0.00  0.00    +0.000 C 
BRANCH  21  22
ATOM     22  C   UNL     1       3.943   3.613  16.714  0.00  0.00    +0.000 C 
BRANCH  22  23
ATOM     23  C   UNL     1       2.468   3.505  17.146  0.00  0.00    +0.000 C 
BRANCH  23  24
ATOM     24  N   UNL     1       2.068   2.239  17.804  0.00  0.00    +0.000 NA
ATOM     25  C   UNL     1       0.810   2.410  18.563  0.00  0.00    +0.000 C 
ATOM     26  C   UNL     1       0.962   3.289  19.811  0.00  0.00    +0.000 C 
ATOM     27  C   UNL     1       2.081   2.787  20.735  0.00  0.00    +0.000 C 
ATOM     28  C   UNL     1       2.369   3.804  21.839  0.00  0.00    +0.000 C 
ATOM     29  C   UNL     1       3.361   2.473  19.946  0.00  0.00    +0.000 C 
ATOM     30  C   UNL     1       3.075   1.644  18.693  0.00  0.00    +0.000 C 
ENDBRANCH  23  24
ENDBRANCH  22  23
ENDBRANCH  21  22
ENDBRANCH  20  21
ENDBRANCH   8  20
TORSDOF 7
ENDMDL
MODEL 6
REMARK VINA RESULT:      -7.4      2.787      4.136
REMARK  Name = 
REMARK  9 active torsions:
REMARK  status: ('A' for Active; 'I' for Inactive)
REMARK    1  A    between atoms: C_1  and  O_2
REMARK    2  A    between atoms: O_2  and  C_3
REMARK    3  A    between atoms: C_6  and  C_7
REMARK    4  A    between atoms: C_14  and  O_15
REMARK    5  A    between atoms: O_15  and  C_16
REMARK    6  A    between atoms: C_16  and  C_17
REMARK    7  A    between atoms: C_17  and  C_18
REMARK    8  A    between atoms: C_18  and  N_19
REMARK    9  A    between atoms: C_22  and  C_23
REMARK                            x       y       z     vdW  Elec       q    Type
REMARK                         _______ _______ _______ _____ _____    ______ ____
ROOT
ATOM      1  C   UNL     1       3.551   6.080  18.058  0.00  0.00    +0.000 A 
ATOM      2  C   UNL     1       3.503   5.507  19.269  0.00  0.00    +0.000 A 
ATOM      3  C   UNL     1       2.461   5.892  20.191  0.00  0.00    +0.000 A 
ATOM      4  O   UNL     1       2.152   5.165  21.134  0.00  0.00    +0.000 OA
ATOM      5  C   UNL     1       1.875   7.199  19.972  0.00  0.00    +0.000 A 
ATOM      6  C   UNL     1       1.258   7.809  21.063  0.00  0.00    +0.000 A 
ATOM      7  C   UNL     1       0.901   9.137  20.965  0.00  0.00    +0.000 A 
ATOM      8  C   UNL     1       1.101   9.837  19.772  0.00  0.00    +0.000 A 
ATOM      9  C   UNL     1       1.657   9.194  18.642  0.00  0.00    +0.000 A 
ATOM     10  C   UNL     1       2.090   7.854  18.751  0.00  0.00    +0.000 A 
ATOM     11  O   UNL     1       2.787   7.219  17.714  0.00  0.00    +0.000 OA
ENDROOT
BRANCH   1  15
ATOM     12  C   UNL     1       6.013   4.401  14.909  0.00  0.00    +0.000 A 
ATOM     13  C   UNL     1       5.765   5.761  14.972  0.00  0.00    +0.000 A 
ATOM     14  C   UNL     1       5.076   6.288  16.061  0.00  0.00    +0.000 A 
ATOM     15  C   UNL     1       4.519   5.476  17.083  0.00  0.00    +0.000 A 
ATOM     16  C   UNL     1       4.863   4.122  17.053  0.00  0.00    +0.000 A 
ATOM     17  C   UNL     1       5.603   3.588  15.972  0.00  0.00    +0.000 A 
BRANCH  12  19
ATOM     18  C   UNL     1       7.457   4.956  13.112  0.00  0.00    +0.000 C 
ATOM     19  O   UNL     1       6.622   4.008  13.755  0.00  0.00    +0.000 OA
ENDBRANCH  12  19
ENDBRANCH   1  15
BRANCH   8  20
ATOM     20  O   UNL     1       0.908  11.182  19.940  0.00  0.00    +0.000 OA
BRANCH  20  21
ATOM     21  C   UNL     1       0.068  11.889  19.037  0.00  0.00    +0.000 C 
BRANCH  21  22
ATOM     22  C   UNL     1      -1.353  11.985  19.648  0.00  0.00    +0.000 C 
BRANCH  22  23
ATOM     23  C   UNL     1      -1.353  12.734  20.994  0.00  0.00    +0.000 C 
BRANCH  23  24
ATOM     24  N   UNL     1      -2.282  13.883  21.106  0.00  0.00    +0.000 NA
ATOM     25  C   UNL     1      -2.083  14.604  22.383  0.00  0.00    +0.000 C 
ATOM     26  C   UNL     1      -2.539  13.809  23.612  0.00  0.00    +0.000 C 
ATOM     27  C   UNL     1      -3.994  13.337  23.485  0.00  0.00    +0.000 C 
ATOM     28  C   UNL     1      -4.346  12.355  24.603  0.00  0.00    +0.000 C 
ATOM     29  C   UNL     1      -4.261  12.704  22.111  0.00  0.00    +0.000 C 
ATOM     30  C   UNL     1      -3.708  13.558  20.968  0.00  0.00    +0.000 C 
ENDBRANCH  23  24
ENDBRANCH  22  23
ENDBRANCH  21  22
ENDBRANCH  20  21
ENDBRANCH   8  20
TORSDOF 7
ENDMDL
MODEL 7
REMARK VINA RESULT:      -7.4      3.105      4.123
REMARK  Name = 
REMARK  9 active torsions:
REMARK  status: ('A' for Active; 'I' for Inactive)
REMARK    1  A    between atoms: C_1  and  O_2
REMARK    2  A    between atoms: O_2  and  C_3
REMARK    3  A    between atoms: C_6  and  C_7
REMARK    4  A    between atoms: C_14  and  O_15
REMARK    5  A    between atoms: O_15  and  C_16
REMARK    6  A    between atoms: C_16  and  C_17
REMARK    7  A    between atoms: C_17  and  C_18
REMARK    8  A    between atoms: C_18  and  N_19
REMARK    9  A    between atoms: C_22  and  C_23
REMARK                            x       y       z     vdW  Elec       q    Type
REMARK                         _______ _______ _______ _____ _____    ______ ____
ROOT
ATOM      1  C   UNL     1       3.555   6.223  17.921  0.00  0.00    +0.000 A 
ATOM      2  C   UNL     1       3.437   5.639  19.122  0.00  0.00    +0.000 A 
ATOM      3  C   UNL     1       2.363   6.038  19.999  0.00  0.00    +0.000 A 
ATOM      4  O   UNL     1       1.994   5.309  20.919  0.00  0.00    +0.000 OA
ATOM      5  C   UNL     1       1.817   7.360  19.769  0.00  0.00    +0.000 A 
ATOM      6  C   UNL     1       1.164   7.973  20.836  0.00  0.00    +0.000 A 
ATOM      7  C   UNL     1       0.841   9.310  20.737  0.00  0.00    +0.000 A 
ATOM      8  C   UNL     1       1.112  10.018  19.563  0.00  0.00    +0.000 A 
ATOM      9  C   UNL     1       1.706   9.374  18.453  0.00  0.00    +0.000 A 
ATOM     10  C   UNL     1       2.103   8.023  18.566  0.00  0.00    +0.000 A 
ATOM     11  O   UNL     1       2.833   7.383  17.555  0.00  0.00    +0.000 OA
ENDROOT
BRANCH   1  15
ATOM     12  C   UNL     1       6.118   4.513  14.872  0.00  0.00    +0.000 A 
ATOM     13  C   UNL     1       5.882   5.876  14.924  0.00  0.00    +0.000 A 
ATOM     14  C   UNL     1       5.157   6.412  15.985  0.00  0.00    +0.000 A 
ATOM     15  C   UNL     1       4.553   5.607  16.986  0.00  0.00    +0.000 A 
ATOM     16  C   UNL     1       4.883   4.249  16.971  0.00  0.00    +0.000 A 
ATOM     17  C   UNL     1       5.659   3.706  15.920  0.00  0.00    +0.000 A 
BRANCH  12  19
ATOM     18  C   UNL     1       5.978   3.522  12.722  0.00  0.00    +0.000 C 
ATOM     19  O   UNL     1       6.767   4.111  13.743  0.00  0.00    +0.000 OA
ENDBRANCH  12  19
ENDBRANCH   1  15
BRANCH   8  20
ATOM     20  O   UNL     1       0.941  11.365  19.737  0.00  0.00    +0.000 OA
BRANCH  20  21
ATOM     21  C   UNL     1       0.483  11.858  20.989  0.00  0.00    +0.000 C 
BRANCH  21  22
ATOM     22  C   UNL     1      -0.749  12.766  20.748  0.00  0.00    +0.000 C 
BRANCH  22  23
ATOM     23  C   UNL     1      -1.970  12.314  21.572  0.00  0.00    +0.000 C 
BRANCH  23  24
ATOM     24  N   UNL     1      -1.888  12.527  23.036  0.00  0.00    +0.000 NA
ATOM     25  C   UNL     1      -3.156  12.149  23.698  0.00  0.00    +0.000 C 
ATOM     26  C   UNL     1      -4.320  13.097  23.383  0.00  0.00    +0.000 C 
ATOM     27  C   UNL     1      -3.970  14.559  23.693  0.00  0.00    +0.000 C 
ATOM     28  C   UNL     1      -5.046  15.500  23.153  0.00  0.00    +0.000 C 
ATOM     29  C   UNL     1      -2.593  14.938  23.129  0.00  0.00    +0.000 C 
ATOM     30  C   UNL     1      -1.528  13.888  23.456  0.00  0.00    +0.000 C 
ENDBRANCH  23  24
ENDBRANCH  22  23
ENDBRANCH  21  22
ENDBRANCH  20  21
ENDBRANCH   8  20
TORSDOF 7
ENDMDL
MODEL 8
REMARK VINA RESULT:      -7.4      3.578     10.453
REMARK  Name = 
REMARK  9 active torsions:
REMARK  status: ('A' for Active; 'I' for Inactive)
REMARK    1  A    between atoms: C_1  and  O_2
REMARK    2  A    between atoms: O_2  and  C_3
REMARK    3  A    between atoms: C_6  and  C_7
REMARK    4  A    between atoms: C_14  and  O_15
REMARK    5  A    between atoms: O_15  and  C_16
REMARK    6  A    between atoms: C_16  and  C_17
REMARK    7  A    between atoms: C_17  and  C_18
REMARK    8  A    between atoms: C_18  and  N_19
REMARK    9  A    between atoms: C_22  and  C_23
REMARK                            x       y       z     vdW  Elec       q    Type
REMARK                         _______ _______ _______ _____ _____    ______ ____
ROOT
ATOM      1  C   UNL     1      -0.608  11.508  21.449  0.00  0.00    +0.000 A 
ATOM      2  C   UNL     1      -0.176  12.140  20.348  0.00  0.00    +0.000 A 
ATOM      3  C   UNL     1       0.235  11.362  19.203  0.00  0.00    +0.000 A 
ATOM      4  O   UNL     1       0.285  11.867  18.082  0.00  0.00    +0.000 OA
ATOM      5  C   UNL     1       0.647  10.001  19.479  0.00  0.00    +0.000 A 
ATOM      6  C   UNL     1       1.488   9.391  18.550  0.00  0.00    +0.000 A 
ATOM      7  C   UNL     1       2.090   8.197  18.884  0.00  0.00    +0.000 A 
ATOM      8  C   UNL     1       1.812   7.583  20.108  0.00  0.00    +0.000 A 
ATOM      9  C   UNL     1       0.899   8.166  21.017  0.00  0.00    +0.000 A 
ATOM     10  C   UNL     1       0.329   9.423  20.716  0.00  0.00    +0.000 A 
ATOM     11  O   UNL     1      -0.458  10.116  21.646  0.00  0.00    +0.000 OA
ENDROOT
BRANCH   1  15
ATOM     12  C   UNL     1      -2.727  14.107  24.196  0.00  0.00    +0.000 A 
ATOM     13  C   UNL     1      -3.209  12.846  23.892  0.00  0.00    +0.000 A 
ATOM     14  C   UNL     1      -2.446  11.986  23.106  0.00  0.00    +0.000 A 
ATOM     15  C   UNL     1      -1.220  12.377  22.507  0.00  0.00    +0.000 A 
ATOM     16  C   UNL     1      -0.705  13.614  22.903  0.00  0.00    +0.000 A 
ATOM     17  C   UNL     1      -1.455  14.474  23.741  0.00  0.00    +0.000 A 
BRANCH  12  19
ATOM     18  C   UNL     1      -3.186  16.185  25.242  0.00  0.00    +0.000 C 
ATOM     19  O   UNL     1      -3.605  14.874  24.902  0.00  0.00    +0.000 OA
ENDBRANCH  12  19
ENDBRANCH   1  15
BRANCH   8  20
ATOM     20  O   UNL     1       2.670   6.546  20.357  0.00  0.00    +0.000 OA
BRANCH  20  21
ATOM     21  C   UNL     1       2.275   5.217  20.044  0.00  0.00    +0.000 C 
BRANCH  21  22
ATOM     22  C   UNL     1       3.468   4.483  19.381  0.00  0.00    +0.000 C 
BRANCH  22  23
ATOM     23  C   UNL     1       3.837   5.098  18.018  0.00  0.00    +0.000 C 
BRANCH  23  24
ATOM     24  N   UNL     1       5.137   5.806  17.947  0.00  0.00    +0.000 NA
ATOM     25  C   UNL     1       5.171   6.741  16.802  0.00  0.00    +0.000 C 
ATOM     26  C   UNL     1       5.207   6.040  15.438  0.00  0.00    +0.000 C 
ATOM     27  C   UNL     1       6.362   5.033  15.340  0.00  0.00    +0.000 C 
ATOM     28  C   UNL     1       6.235   4.184  14.076  0.00  0.00    +0.000 C 
ATOM     29  C   UNL     1       6.431   4.136  16.585  0.00  0.00    +0.000 C 
ATOM     30  C   UNL     1       6.324   4.942  17.882  0.00  0.00    +0.000 C 
ENDBRANCH  23  24
ENDBRANCH  22  23
ENDBRANCH  21  22
ENDBRANCH  20  21
ENDBRANCH   8  20
TORSDOF 7
ENDMDL
MODEL 9
REMARK VINA RESULT:      -7.4      0.790      1.388
REMARK  Name = 
REMARK  9 active torsions:
REMARK  status: ('A' for Active; 'I' for Inactive)
REMARK    1  A    between atoms: C_1  and  O_2
REMARK    2  A    between atoms: O_2  and  C_3
REMARK    3  A    between atoms: C_6  and  C_7
REMARK    4  A    between atoms: C_14  and  O_15
REMARK    5  A    between atoms: O_15  and  C_16
REMARK    6  A    between atoms: C_16  and  C_17
REMARK    7  A    between atoms: C_17  and  C_18
REMARK    8  A    between atoms: C_18  and  N_19
REMARK    9  A    between atoms: C_22  and  C_23
REMARK                            x       y       z     vdW  Elec       q    Type
REMARK                         _______ _______ _______ _____ _____    ______ ____
ROOT
ATOM      1  C   UNL     1       3.482   6.408  18.141  0.00  0.00    +0.000 A 
ATOM      2  C   UNL     1       3.332   5.857  19.355  0.00  0.00    +0.000 A 
ATOM      3  C   UNL     1       2.239   6.287  20.194  0.00  0.00    +0.000 A 
ATOM      4  O   UNL     1       1.843   5.585  21.124  0.00  0.00    +0.000 OA
ATOM      5  C   UNL     1       1.707   7.605  19.914  0.00  0.00    +0.000 A 
ATOM      6  C   UNL     1       1.032   8.251  20.948  0.00  0.00    +0.000 A 
ATOM      7  C   UNL     1       0.720   9.586  20.804  0.00  0.00    +0.000 A 
ATOM      8  C   UNL     1       1.024  10.260  19.618  0.00  0.00    +0.000 A 
ATOM      9  C   UNL     1       1.641   9.582  18.541  0.00  0.00    +0.000 A 
ATOM     10  C   UNL     1       2.026   8.232  18.701  0.00  0.00    +0.000 A 
ATOM     11  O   UNL     1       2.777   7.560  17.726  0.00  0.00    +0.000 OA
ENDROOT
BRANCH   1  15
ATOM     12  C   UNL     1       6.080   4.524  15.226  0.00  0.00    +0.000 A 
ATOM     13  C   UNL     1       5.708   5.851  15.098  0.00  0.00    +0.000 A 
ATOM     14  C   UNL     1       4.976   6.464  16.112  0.00  0.00    +0.000 A 
ATOM     15  C   UNL     1       4.499   5.760  17.248  0.00  0.00    +0.000 A 
ATOM     16  C   UNL     1       4.966   4.452  17.406  0.00  0.00    +0.000 A 
ATOM     17  C   UNL     1       5.750   3.838  16.401  0.00  0.00    +0.000 A 
BRANCH  12  19
ATOM     18  C   UNL     1       5.915   3.691  13.012  0.00  0.00    +0.000 C 
ATOM     19  O   UNL     1       6.720   4.026  14.131  0.00  0.00    +0.000 OA
ENDBRANCH  12  19
ENDBRANCH   1  15
BRANCH   8  20
ATOM     20  O   UNL     1       0.858  11.612  19.751  0.00  0.00    +0.000 OA
BRANCH  20  21
ATOM     21  C   UNL     1      -0.361  12.214  19.334  0.00  0.00    +0.000 C 
BRANCH  21  22
ATOM     22  C   UNL     1      -0.036  13.502  18.538  0.00  0.00    +0.000 C 
BRANCH  22  23
ATOM     23  C   UNL     1       1.471  13.821  18.547  0.00  0.00    +0.000 C 
BRANCH  23  24
ATOM     24  N   UNL     1       1.865  15.115  19.153  0.00  0.00    +0.000 NA
ATOM     25  C   UNL     1       2.317  16.070  18.118  0.00  0.00    +0.000 C 
ATOM     26  C   UNL     1       3.657  15.690  17.476  0.00  0.00    +0.000 C 
ATOM     27  C   UNL     1       4.757  15.478  18.526  0.00  0.00    +0.000 C 
ATOM     28  C   UNL     1       6.007  14.875  17.886  0.00  0.00    +0.000 C 
ATOM     29  C   UNL     1       4.266  14.595  19.683  0.00  0.00    +0.000 C 
ATOM     30  C   UNL     1       2.894  15.034  20.199  0.00  0.00    +0.000 C 
ENDBRANCH  23  24
ENDBRANCH  22  23
ENDBRANCH  21  22
ENDBRANCH  20  21
ENDBRANCH   8  20
TORSDOF 7
ENDMDL
