MODEL 1
REMARK VINA RESULT:      -8.2      0.000      0.000
REMARK  Name = 
REMARK  6 active torsions:
REMARK  status: ('A' for Active; 'I' for Inactive)
REMARK    1  A    between atoms: C_1  and  O_2
REMARK    2  A    between atoms: O_2  and  C_3
REMARK    3  A    between atoms: C_8  and  C_9
REMARK    4  A    between atoms: N_21  and  C_22
REMARK    5  A    between atoms: C_22  and  C_23
REMARK    6  A    between atoms: C_26  and  C_27
REMARK                            x       y       z     vdW  Elec       q    Type
REMARK                         _______ _______ _______ _____ _____    ______ ____
ROOT
ATOM      1  C   UNL     1       3.139   5.782  19.780  0.00  0.00    +0.000 C 
ATOM      2  C   UNL     1       2.162   6.878  20.020  0.00  0.00    +0.000 A 
ATOM      3  N   UNL     1       1.802   7.336  21.247  0.00  0.00    +0.000 N 
ATOM      4  C   UNL     1       1.319   8.614  21.101  0.00  0.00    +0.000 A 
ATOM      5  C   UNL     1       1.199   9.629  22.047  0.00  0.00    +0.000 A 
ATOM      6  C   UNL     1       0.607  10.818  21.634  0.00  0.00    +0.000 A 
ATOM      7  C   UNL     1       0.059  10.933  20.357  0.00  0.00    +0.000 A 
ATOM      8  C   UNL     1       0.249   9.928  19.395  0.00  0.00    +0.000 A 
ATOM      9  C   UNL     1       0.998   8.791  19.750  0.00  0.00    +0.000 A 
ATOM     10  C   UNL     1       1.737   7.780  19.071  0.00  0.00    +0.000 A 
ATOM     11  C   UNL     1       2.336   7.668  17.709  0.00  0.00    +0.000 C 
ATOM     12  C   UNL     1       3.864   7.179  17.834  0.00  0.00    +0.000 C 
ATOM     13  N   UNL     1       4.263   6.425  19.056  0.00  0.00    +0.000 NA
ATOM     14  H   UNL     1       2.062   6.917  22.127  0.00  0.00    +0.000 HD
ENDROOT
BRANCH   1  20
ATOM     15  C   UNL     1       2.515   3.332  19.857  0.00  0.00    +0.000 A 
ATOM     16  C   UNL     1       1.705   2.252  19.488  0.00  0.00    +0.000 A 
ATOM     17  C   UNL     1       0.858   2.361  18.384  0.00  0.00    +0.000 A 
ATOM     18  C   UNL     1       0.868   3.516  17.620  0.00  0.00    +0.000 A 
ATOM     19  C   UNL     1       1.668   4.596  18.001  0.00  0.00    +0.000 A 
ATOM     20  C   UNL     1       2.466   4.555  19.163  0.00  0.00    +0.000 A 
BRANCH  15  22
ATOM     21  C   UNL     1       4.473   2.171  20.442  0.00  0.00    +0.000 C 
ATOM     22  O   UNL     1       3.514   3.162  20.784  0.00  0.00    +0.000 OA
ENDBRANCH  15  22
ENDBRANCH   1  20
BRANCH  13  23
ATOM     23  C   UNL     1       5.406   5.511  19.054  0.00  0.00    +0.000 C 
BRANCH  23  24
ATOM     24  C   UNL     1       6.144   5.175  17.792  0.00  0.00    +0.000 A 
ATOM     25  C   UNL     1       7.451   4.854  17.490  0.00  0.00    +0.000 A 
ATOM     26  N   UNL     1       7.689   4.405  16.194  0.00  0.00    +0.000 NA
ATOM     27  C   UNL     1       6.556   4.345  15.527  0.00  0.00    +0.000 A 
ATOM     28  C   UNL     1       6.376   3.790  14.154  0.00  0.00    +0.000 C 
ATOM     29  S   UNL     1       5.203   4.967  16.367  0.00  0.00    +0.000 S 
ENDBRANCH  23  24
ENDBRANCH  13  23
TORSDOF 4
ENDMDL
MODEL 2
REMARK VINA RESULT:      -7.7      4.999      8.972
REMARK  Name = 
REMARK  6 active torsions:
REMARK  status: ('A' for Active; 'I' for Inactive)
REMARK    1  A    between atoms: C_1  and  O_2
REMARK    2  A    between atoms: O_2  and  C_3
REMARK    3  A    between atoms: C_8  and  C_9
REMARK    4  A    between atoms: N_21  and  C_22
REMARK    5  A    between atoms: C_22  and  C_23
REMARK    6  A    between atoms: C_26  and  C_27
REMARK                            x       y       z     vdW  Elec       q    Type
REMARK                         _______ _______ _______ _____ _____    ______ ____
ROOT
ATOM      1  C   UNL     1      -0.266  12.262  18.623  0.00  0.00    +0.000 C 
ATOM      2  C   UNL     1       0.191  10.852  18.759  0.00  0.00    +0.000 A 
ATOM      3  N   UNL     1       0.638  10.084  17.733  0.00  0.00    +0.000 N 
ATOM      4  C   UNL     1       1.421   9.085  18.257  0.00  0.00    +0.000 A 
ATOM      5  C   UNL     1       2.399   8.308  17.639  0.00  0.00    +0.000 A 
ATOM      6  C   UNL     1       2.997   7.311  18.402  0.00  0.00    +0.000 A 
ATOM      7  C   UNL     1       2.547   7.037  19.694  0.00  0.00    +0.000 A 
ATOM      8  C   UNL     1       1.612   7.872  20.326  0.00  0.00    +0.000 A 
ATOM      9  C   UNL     1       1.125   8.990  19.622  0.00  0.00    +0.000 A 
ATOM     10  C   UNL     1       0.526  10.242  19.946  0.00  0.00    +0.000 A 
ATOM     11  C   UNL     1       0.462  11.074  21.183  0.00  0.00    +0.000 C 
ATOM     12  C   UNL     1       0.870  12.590  20.829  0.00  0.00    +0.000 C 
ATOM     13  N   UNL     1       0.699  13.055  19.424  0.00  0.00    +0.000 NA
ATOM     14  H   UNL     1       0.604  10.335  16.756  0.00  0.00    +0.000 HD
ENDROOT
BRANCH   1  20
ATOM     15  C   UNL     1      -2.681  11.744  18.079  0.00  0.00    +0.000 A 
ATOM     16  C   UNL     1      -4.026  11.607  18.440  0.00  0.00    +0.000 A 
ATOM     17  C   UNL     1      -4.488  12.164  19.634  0.00  0.00    +0.000 A 
ATOM     18  C   UNL     1      -3.626  12.904  20.427  0.00  0.00    +0.000 A 
ATOM     19  C   UNL     1      -2.282  13.026  20.068  0.00  0.00    +0.000 A 
ATOM     20  C   UNL     1      -1.760  12.399  18.918  0.00  0.00    +0.000 A 
BRANCH  15  22
ATOM     21  C   UNL     1      -3.303  10.951  15.957  0.00  0.00    +0.000 C 
ATOM     22  O   UNL     1      -2.268  11.413  16.812  0.00  0.00    +0.000 OA
ENDBRANCH  15  22
ENDBRANCH   1  20
BRANCH  13  23
ATOM     23  C   UNL     1       0.529  14.472  19.099  0.00  0.00    +0.000 C 
BRANCH  23  24
ATOM     24  C   UNL     1       1.701  15.358  18.798  0.00  0.00    +0.000 A 
ATOM     25  C   UNL     1       1.902  16.722  18.768  0.00  0.00    +0.000 A 
ATOM     26  N   UNL     1       3.222  17.145  18.634  0.00  0.00    +0.000 NA
ATOM     27  C   UNL     1       4.024  16.102  18.605  0.00  0.00    +0.000 A 
ATOM     28  C   UNL     1       5.515  16.145  18.603  0.00  0.00    +0.000 C 
ATOM     29  S   UNL     1       3.225  14.591  18.579  0.00  0.00    +0.000 S 
ENDBRANCH  23  24
ENDBRANCH  13  23
TORSDOF 4
ENDMDL
MODEL 3
REMARK VINA RESULT:      -7.6      6.433      8.745
REMARK  Name = 
REMARK  6 active torsions:
REMARK  status: ('A' for Active; 'I' for Inactive)
REMARK    1  A    between atoms: C_1  and  O_2
REMARK    2  A    between atoms: O_2  and  C_3
REMARK    3  A    between atoms: C_8  and  C_9
REMARK    4  A    between atoms: N_21  and  C_22
REMARK    5  A    between atoms: C_22  and  C_23
REMARK    6  A    between atoms: C_26  and  C_27
REMARK                            x       y       z     vdW  Elec       q    Type
REMARK                         _______ _______ _______ _____ _____    ______ ____
ROOT
ATOM      1  C   UNL     1      -0.092  11.962  19.777  0.00  0.00    +0.000 C 
ATOM      2  C   UNL     1      -1.055  11.311  18.848  0.00  0.00    +0.000 A 
ATOM      3  N   UNL     1      -2.234  11.857  18.452  0.00  0.00    +0.000 N 
ATOM      4  C   UNL     1      -2.601  11.268  17.267  0.00  0.00    +0.000 A 
ATOM      5  C   UNL     1      -3.475  11.726  16.283  0.00  0.00    +0.000 A 
ATOM      6  C   UNL     1      -3.713  10.884  15.202  0.00  0.00    +0.000 A 
ATOM      7  C   UNL     1      -3.184   9.594  15.174  0.00  0.00    +0.000 A 
ATOM      8  C   UNL     1      -2.252   9.174  16.136  0.00  0.00    +0.000 A 
ATOM      9  C   UNL     1      -1.869  10.081  17.142  0.00  0.00    +0.000 A 
ATOM     10  C   UNL     1      -0.763  10.248  18.024  0.00  0.00    +0.000 A 
ATOM     11  C   UNL     1       0.640   9.739  18.040  0.00  0.00    +0.000 C 
ATOM     12  C   UNL     1       1.652  10.967  18.282  0.00  0.00    +0.000 C 
ATOM     13  N   UNL     1       1.130  12.185  18.965  0.00  0.00    +0.000 NA
ATOM     14  H   UNL     1      -2.644  12.700  18.826  0.00  0.00    +0.000 HD
ENDROOT
BRANCH   1  20
ATOM     15  C   UNL     1      -0.907  11.455  22.117  0.00  0.00    +0.000 A 
ATOM     16  C   UNL     1      -1.023  10.612  23.228  0.00  0.00    +0.000 A 
ATOM     17  C   UNL     1      -0.175   9.511  23.361  0.00  0.00    +0.000 A 
ATOM     18  C   UNL     1       0.820   9.293  22.422  0.00  0.00    +0.000 A 
ATOM     19  C   UNL     1       0.922  10.129  21.308  0.00  0.00    +0.000 A 
ATOM     20  C   UNL     1       0.024  11.194  21.094  0.00  0.00    +0.000 A 
BRANCH  15  22
ATOM     21  C   UNL     1      -1.528  13.377  23.316  0.00  0.00    +0.000 C 
ATOM     22  O   UNL     1      -1.565  12.660  22.091  0.00  0.00    +0.000 OA
ENDBRANCH  15  22
ENDBRANCH   1  20
BRANCH  13  23
ATOM     23  C   UNL     1       2.016  13.099  19.688  0.00  0.00    +0.000 C 
BRANCH  23  24
ATOM     24  C   UNL     1       2.330  14.469  19.166  0.00  0.00    +0.000 A 
ATOM     25  C   UNL     1       3.441  15.060  18.602  0.00  0.00    +0.000 A 
ATOM     26  N   UNL     1       3.252  16.327  18.057  0.00  0.00    +0.000 NA
ATOM     27  C   UNL     1       1.989  16.678  18.170  0.00  0.00    +0.000 A 
ATOM     28  C   UNL     1       1.366  17.904  17.592  0.00  0.00    +0.000 C 
ATOM     29  S   UNL     1       1.025  15.585  19.063  0.00  0.00    +0.000 S 
ENDBRANCH  23  24
ENDBRANCH  13  23
TORSDOF 4
ENDMDL
MODEL 4
REMARK VINA RESULT:      -7.5      6.391      8.444
REMARK  Name = 
REMARK  6 active torsions:
REMARK  status: ('A' for Active; 'I' for Inactive)
REMARK    1  A    between atoms: C_1  and  O_2
REMARK    2  A    between atoms: O_2  and  C_3
REMARK    3  A    between atoms: C_8  and  C_9
REMARK    4  A    between atoms: N_21  and  C_22
REMARK    5  A    between atoms: C_22  and  C_23
REMARK    6  A    between atoms: C_26  and  C_27
REMARK                            x       y       z     vdW  Elec       q    Type
REMARK                         _______ _______ _______ _____ _____    ______ ____
ROOT
ATOM      1  C   UNL     1      -0.167  11.951  19.906  0.00  0.00    +0.000 C 
ATOM      2  C   UNL     1      -1.100  11.288  18.955  0.00  0.00    +0.000 A 
ATOM      3  N   UNL     1      -2.307  11.787  18.584  0.00  0.00    +0.000 N 
ATOM      4  C   UNL     1      -2.648  11.227  17.377  0.00  0.00    +0.000 A 
ATOM      5  C   UNL     1      -3.549  11.677  16.414  0.00  0.00    +0.000 A 
ATOM      6  C   UNL     1      -3.749  10.866  15.302  0.00  0.00    +0.000 A 
ATOM      7  C   UNL     1      -3.155   9.607  15.223  0.00  0.00    +0.000 A 
ATOM      8  C   UNL     1      -2.198   9.198  16.166  0.00  0.00    +0.000 A 
ATOM      9  C   UNL     1      -1.858  10.085  17.205  0.00  0.00    +0.000 A 
ATOM     10  C   UNL     1      -0.757  10.274  18.090  0.00  0.00    +0.000 A 
ATOM     11  C   UNL     1       0.670   9.838  18.083  0.00  0.00    +0.000 C 
ATOM     12  C   UNL     1       1.619  11.106  18.370  0.00  0.00    +0.000 C 
ATOM     13  N   UNL     1       1.038  12.267  19.100  0.00  0.00    +0.000 NA
ATOM     14  H   UNL     1      -2.757  12.593  18.991  0.00  0.00    +0.000 HD
ENDROOT
BRANCH   1  20
ATOM     15  C   UNL     1      -0.954  11.300  22.220  0.00  0.00    +0.000 A 
ATOM     16  C   UNL     1      -1.019  10.408  23.296  0.00  0.00    +0.000 A 
ATOM     17  C   UNL     1      -0.103   9.358  23.389  0.00  0.00    +0.000 A 
ATOM     18  C   UNL     1       0.905   9.241  22.447  0.00  0.00    +0.000 A 
ATOM     19  C   UNL     1       0.957  10.125  21.368  0.00  0.00    +0.000 A 
ATOM     20  C   UNL     1      -0.006  11.140  21.192  0.00  0.00    +0.000 A 
BRANCH  15  22
ATOM     21  C   UNL     1      -1.256  13.414  23.200  0.00  0.00    +0.000 C 
ATOM     22  O   UNL     1      -1.687  12.462  22.239  0.00  0.00    +0.000 OA
ENDBRANCH  15  22
ENDBRANCH   1  20
BRANCH  13  23
ATOM     23  C   UNL     1       1.880  13.197  19.856  0.00  0.00    +0.000 C 
BRANCH  23  24
ATOM     24  C   UNL     1       2.865  14.100  19.175  0.00  0.00    +0.000 A 
ATOM     25  C   UNL     1       2.999  14.598  17.896  0.00  0.00    +0.000 A 
ATOM     26  N   UNL     1       3.963  15.588  17.721  0.00  0.00    +0.000 NA
ATOM     27  C   UNL     1       4.529  15.868  18.875  0.00  0.00    +0.000 A 
ATOM     28  C   UNL     1       5.513  16.962  19.125  0.00  0.00    +0.000 C 
ATOM     29  S   UNL     1       4.046  14.860  20.168  0.00  0.00    +0.000 S 
ENDBRANCH  23  24
ENDBRANCH  13  23
TORSDOF 4
ENDMDL
MODEL 5
REMARK VINA RESULT:      -7.4      6.974      9.118
REMARK  Name = 
REMARK  6 active torsions:
REMARK  status: ('A' for Active; 'I' for Inactive)
REMARK    1  A    between atoms: C_1  and  O_2
REMARK    2  A    between atoms: O_2  and  C_3
REMARK    3  A    between atoms: C_8  and  C_9
REMARK    4  A    between atoms: N_21  and  C_22
REMARK    5  A    between atoms: C_22  and  C_23
REMARK    6  A    between atoms: C_26  and  C_27
REMARK                            x       y       z     vdW  Elec       q    Type
REMARK                         _______ _______ _______ _____ _____    ______ ____
ROOT
ATOM      1  C   UNL     1      -1.588  12.841  20.606  0.00  0.00    +0.000 C 
ATOM      2  C   UNL     1      -2.916  12.465  20.049  0.00  0.00    +0.000 A 
ATOM      3  N   UNL     1      -4.106  12.926  20.514  0.00  0.00    +0.000 N 
ATOM      4  C   UNL     1      -5.034  12.804  19.509  0.00  0.00    +0.000 A 
ATOM      5  C   UNL     1      -6.247  13.467  19.338  0.00  0.00    +0.000 A 
ATOM      6  C   UNL     1      -7.027  13.096  18.248  0.00  0.00    +0.000 A 
ATOM      7  C   UNL     1      -6.652  12.025  17.436  0.00  0.00    +0.000 A 
ATOM      8  C   UNL     1      -5.396  11.414  17.580  0.00  0.00    +0.000 A 
ATOM      9  C   UNL     1      -4.523  11.898  18.572  0.00  0.00    +0.000 A 
ATOM     10  C   UNL     1      -3.121  11.877  18.822  0.00  0.00    +0.000 A 
ATOM     11  C   UNL     1      -1.917  11.636  17.972  0.00  0.00    +0.000 C 
ATOM     12  C   UNL     1      -0.846  12.813  18.215  0.00  0.00    +0.000 C 
ATOM     13  N   UNL     1      -0.902  13.560  19.504  0.00  0.00    +0.000 NA
ATOM     14  H   UNL     1      -4.234  13.475  21.351  0.00  0.00    +0.000 HD
ENDROOT
BRANCH   1  20
ATOM     15  C   UNL     1      -1.190  11.329  22.594  0.00  0.00    +0.000 A 
ATOM     16  C   UNL     1      -0.801  10.109  23.159  0.00  0.00    +0.000 A 
ATOM     17  C   UNL     1      -0.065   9.193  22.405  0.00  0.00    +0.000 A 
ATOM     18  C   UNL     1       0.331   9.523  21.119  0.00  0.00    +0.000 A 
ATOM     19  C   UNL     1      -0.071  10.736  20.555  0.00  0.00    +0.000 A 
ATOM     20  C   UNL     1      -0.893  11.643  21.254  0.00  0.00    +0.000 A 
BRANCH  15  22
ATOM     21  C   UNL     1      -3.058  12.142  23.764  0.00  0.00    +0.000 C 
ATOM     22  O   UNL     1      -1.702  12.327  23.387  0.00  0.00    +0.000 OA
ENDBRANCH  15  22
ENDBRANCH   1  20
BRANCH  13  23
ATOM     23  C   UNL     1       0.274  14.242  20.047  0.00  0.00    +0.000 C 
BRANCH  23  24
ATOM     24  C   UNL     1       1.360  14.769  19.156  0.00  0.00    +0.000 A 
ATOM     25  C   UNL     1       1.599  15.973  18.528  0.00  0.00    +0.000 A 
ATOM     26  N   UNL     1       2.853  16.121  17.942  0.00  0.00    +0.000 NA
ATOM     27  C   UNL     1       3.579  15.045  18.163  0.00  0.00    +0.000 A 
ATOM     28  C   UNL     1       5.018  14.873  17.811  0.00  0.00    +0.000 C 
ATOM     29  S   UNL     1       2.743  13.770  18.935  0.00  0.00    +0.000 S 
ENDBRANCH  23  24
ENDBRANCH  13  23
TORSDOF 4
ENDMDL
MODEL 6
REMARK VINA RESULT:      -7.3      7.521     10.235
REMARK  Name = 
REMARK  6 active torsions:
REMARK  status: ('A' for Active; 'I' for Inactive)
REMARK    1  A    between atoms: C_1  and  O_2
REMARK    2  A    between atoms: O_2  and  C_3
REMARK    3  A    between atoms: C_8  and  C_9
REMARK    4  A    between atoms: N_21  and  C_22
REMARK    5  A    between atoms: C_22  and  C_23
REMARK    6  A    between atoms: C_26  and  C_27
REMARK                            x       y       z     vdW  Elec       q    Type
REMARK                         _______ _______ _______ _____ _____    ______ ____
ROOT
ATOM      1  C   UNL     1      -1.280  12.624  19.834  0.00  0.00    +0.000 C 
ATOM      2  C   UNL     1      -0.269  13.439  19.106  0.00  0.00    +0.000 A 
ATOM      3  N   UNL     1      -0.387  14.767  18.850  0.00  0.00    +0.000 N 
ATOM      4  C   UNL     1       0.871  15.276  18.644  0.00  0.00    +0.000 A 
ATOM      5  C   UNL     1       1.321  16.591  18.738  0.00  0.00    +0.000 A 
ATOM      6  C   UNL     1       2.650  16.835  18.407  0.00  0.00    +0.000 A 
ATOM      7  C   UNL     1       3.454  15.817  17.895  0.00  0.00    +0.000 A 
ATOM      8  C   UNL     1       3.007  14.486  17.872  0.00  0.00    +0.000 A 
ATOM      9  C   UNL     1       1.721  14.199  18.367  0.00  0.00    +0.000 A 
ATOM     10  C   UNL     1       1.035  13.061  18.879  0.00  0.00    +0.000 A 
ATOM     11  C   UNL     1       1.473  11.749  19.442  0.00  0.00    +0.000 C 
ATOM     12  C   UNL     1       0.711  11.484  20.835  0.00  0.00    +0.000 C 
ATOM     13  N   UNL     1      -0.590  12.173  21.067  0.00  0.00    +0.000 NA
ATOM     14  H   UNL     1      -1.213  15.323  19.016  0.00  0.00    +0.000 HD
ENDROOT
BRANCH   1  20
ATOM     15  C   UNL     1      -3.300  11.667  18.651  0.00  0.00    +0.000 A 
ATOM     16  C   UNL     1      -3.891  10.918  17.627  0.00  0.00    +0.000 A 
ATOM     17  C   UNL     1      -3.119  10.028  16.878  0.00  0.00    +0.000 A 
ATOM     18  C   UNL     1      -1.783   9.845  17.192  0.00  0.00    +0.000 A 
ATOM     19  C   UNL     1      -1.195  10.605  18.206  0.00  0.00    +0.000 A 
ATOM     20  C   UNL     1      -1.921  11.580  18.920  0.00  0.00    +0.000 A 
BRANCH  15  22
ATOM     21  C   UNL     1      -5.464  12.390  19.213  0.00  0.00    +0.000 C 
ATOM     22  O   UNL     1      -4.083  12.361  19.541  0.00  0.00    +0.000 OA
ENDBRANCH  15  22
ENDBRANCH   1  20
BRANCH  13  23
ATOM     23  C   UNL     1      -1.587  11.636  21.995  0.00  0.00    +0.000 C 
BRANCH  23  24
ATOM     24  C   UNL     1      -2.367  12.527  22.916  0.00  0.00    +0.000 A 
ATOM     25  C   UNL     1      -3.545  12.399  23.620  0.00  0.00    +0.000 A 
ATOM     26  N   UNL     1      -3.824  13.407  24.538  0.00  0.00    +0.000 NA
ATOM     27  C   UNL     1      -2.836  14.277  24.561  0.00  0.00    +0.000 A 
ATOM     28  C   UNL     1      -2.701  15.424  25.504  0.00  0.00    +0.000 C 
ATOM     29  S   UNL     1      -1.626  14.007  23.384  0.00  0.00    +0.000 S 
ENDBRANCH  23  24
ENDBRANCH  13  23
TORSDOF 4
ENDMDL
MODEL 7
REMARK VINA RESULT:      -7.3      5.701      9.952
REMARK  Name = 
REMARK  6 active torsions:
REMARK  status: ('A' for Active; 'I' for Inactive)
REMARK    1  A    between atoms: C_1  and  O_2
REMARK    2  A    between atoms: O_2  and  C_3
REMARK    3  A    between atoms: C_8  and  C_9
REMARK    4  A    between atoms: N_21  and  C_22
REMARK    5  A    between atoms: C_22  and  C_23
REMARK    6  A    between atoms: C_26  and  C_27
REMARK                            x       y       z     vdW  Elec       q    Type
REMARK                         _______ _______ _______ _____ _____    ______ ____
ROOT
ATOM      1  C   UNL     1      -1.553  12.901  19.647  0.00  0.00    +0.000 C 
ATOM      2  C   UNL     1      -0.962  11.535  19.645  0.00  0.00    +0.000 A 
ATOM      3  N   UNL     1      -0.554  10.872  18.533  0.00  0.00    +0.000 N 
ATOM      4  C   UNL     1       0.363   9.922  18.914  0.00  0.00    +0.000 A 
ATOM      5  C   UNL     1       1.337   9.278  18.155  0.00  0.00    +0.000 A 
ATOM      6  C   UNL     1       2.095   8.299  18.791  0.00  0.00    +0.000 A 
ATOM      7  C   UNL     1       1.802   7.911  20.099  0.00  0.00    +0.000 A 
ATOM      8  C   UNL     1       0.865   8.617  20.870  0.00  0.00    +0.000 A 
ATOM      9  C   UNL     1       0.214   9.722  20.291  0.00  0.00    +0.000 A 
ATOM     10  C   UNL     1      -0.457  10.891  20.752  0.00  0.00    +0.000 A 
ATOM     11  C   UNL     1      -0.470  11.642  22.042  0.00  0.00    +0.000 C 
ATOM     12  C   UNL     1      -0.234  13.208  21.752  0.00  0.00    +0.000 C 
ATOM     13  N   UNL     1      -0.585  13.734  20.402  0.00  0.00    +0.000 NA
ATOM     14  H   UNL     1      -0.708  11.174  17.582  0.00  0.00    +0.000 HD
ENDROOT
BRANCH   1  20
ATOM     15  C   UNL     1      -3.951  12.170  19.313  0.00  0.00    +0.000 A 
ATOM     16  C   UNL     1      -5.234  11.888  19.796  0.00  0.00    +0.000 A 
ATOM     17  C   UNL     1      -5.624  12.352  21.054  0.00  0.00    +0.000 A 
ATOM     18  C   UNL     1      -4.760  13.142  21.793  0.00  0.00    +0.000 A 
ATOM     19  C   UNL     1      -3.476  13.408  21.313  0.00  0.00    +0.000 A 
ATOM     20  C   UNL     1      -3.016  12.879  20.090  0.00  0.00    +0.000 A 
BRANCH  15  22
ATOM     21  C   UNL     1      -4.069  10.665  17.513  0.00  0.00    +0.000 C 
ATOM     22  O   UNL     1      -3.638  11.928  17.998  0.00  0.00    +0.000 OA
ENDBRANCH  15  22
ENDBRANCH   1  20
BRANCH  13  23
ATOM     23  C   UNL     1      -0.912  15.145  20.190  0.00  0.00    +0.000 C 
BRANCH  23  24
ATOM     24  C   UNL     1      -0.028  16.045  19.378  0.00  0.00    +0.000 A 
ATOM     25  C   UNL     1       1.313  16.051  19.056  0.00  0.00    +0.000 A 
ATOM     26  N   UNL     1       1.707  16.973  18.089  0.00  0.00    +0.000 NA
ATOM     27  C   UNL     1       0.658  17.635  17.650  0.00  0.00    +0.000 A 
ATOM     28  C   UNL     1       0.649  18.613  16.523  0.00  0.00    +0.000 C 
ATOM     29  S   UNL     1      -0.797  17.293  18.479  0.00  0.00    +0.000 S 
ENDBRANCH  23  24
ENDBRANCH  13  23
TORSDOF 4
ENDMDL
MODEL 8
REMARK VINA RESULT:      -7.3      5.248      9.309
REMARK  Name = 
REMARK  6 active torsions:
REMARK  status: ('A' for Active; 'I' for Inactive)
REMARK    1  A    between atoms: C_1  and  O_2
REMARK    2  A    between atoms: O_2  and  C_3
REMARK    3  A    between atoms: C_8  and  C_9
REMARK    4  A    between atoms: N_21  and  C_22
REMARK    5  A    between atoms: C_22  and  C_23
REMARK    6  A    between atoms: C_26  and  C_27
REMARK                            x       y       z     vdW  Elec       q    Type
REMARK                         _______ _______ _______ _____ _____    ______ ____
ROOT
ATOM      1  C   UNL     1      -0.802  12.354  19.036  0.00  0.00    +0.000 C 
ATOM      2  C   UNL     1      -0.229  10.981  18.983  0.00  0.00    +0.000 A 
ATOM      3  N   UNL     1       0.419  10.456  17.911  0.00  0.00    +0.000 N 
ATOM      4  C   UNL     1       1.224   9.436  18.356  0.00  0.00    +0.000 A 
ATOM      5  C   UNL     1       2.344   8.864  17.756  0.00  0.00    +0.000 A 
ATOM      6  C   UNL     1       2.935   7.787  18.408  0.00  0.00    +0.000 A 
ATOM      7  C   UNL     1       2.354   7.241  19.552  0.00  0.00    +0.000 A 
ATOM      8  C   UNL     1       1.268   7.871  20.182  0.00  0.00    +0.000 A 
ATOM      9  C   UNL     1       0.767   9.062  19.625  0.00  0.00    +0.000 A 
ATOM     10  C   UNL     1       0.011  10.182  20.077  0.00  0.00    +0.000 A 
ATOM     11  C   UNL     1      -0.292  10.758  21.421  0.00  0.00    +0.000 C 
ATOM     12  C   UNL     1       0.006  12.340  21.404  0.00  0.00    +0.000 C 
ATOM     13  N   UNL     1      -0.029  13.049  20.094  0.00  0.00    +0.000 NA
ATOM     14  H   UNL     1       0.486  10.884  17.000  0.00  0.00    +0.000 HD
ENDROOT
BRANCH   1  20
ATOM     15  C   UNL     1      -3.058  11.651  18.133  0.00  0.00    +0.000 A 
ATOM     16  C   UNL     1      -4.416  11.357  18.299  0.00  0.00    +0.000 A 
ATOM     17  C   UNL     1      -5.084  11.769  19.453  0.00  0.00    +0.000 A 
ATOM     18  C   UNL     1      -4.415  12.522  20.403  0.00  0.00    +0.000 A 
ATOM     19  C   UNL     1      -3.056  12.801  20.240  0.00  0.00    +0.000 A 
ATOM     20  C   UNL     1      -2.327  12.321  19.133  0.00  0.00    +0.000 A 
BRANCH  15  22
ATOM     21  C   UNL     1      -2.885  10.307  16.214  0.00  0.00    +0.000 C 
ATOM     22  O   UNL     1      -2.452  11.464  16.915  0.00  0.00    +0.000 OA
ENDBRANCH  15  22
ENDBRANCH   1  20
BRANCH  13  23
ATOM     23  C   UNL     1      -0.296  14.485  20.006  0.00  0.00    +0.000 C 
BRANCH  23  24
ATOM     24  C   UNL     1       0.621  15.413  19.264  0.00  0.00    +0.000 A 
ATOM     25  C   UNL     1       1.933  15.349  18.847  0.00  0.00    +0.000 A 
ATOM     26  N   UNL     1       2.356  16.364  17.992  0.00  0.00    +0.000 NA
ATOM     27  C   UNL     1       1.351  17.173  17.728  0.00  0.00    +0.000 A 
ATOM     28  C   UNL     1       1.368  18.301  16.753  0.00  0.00    +0.000 C 
ATOM     29  S   UNL     1      -0.077  16.842  18.607  0.00  0.00    +0.000 S 
ENDBRANCH  23  24
ENDBRANCH  13  23
TORSDOF 4
ENDMDL
MODEL 9
REMARK VINA RESULT:      -7.2      5.235      9.481
REMARK  Name = 
REMARK  6 active torsions:
REMARK  status: ('A' for Active; 'I' for Inactive)
REMARK    1  A    between atoms: C_1  and  O_2
REMARK    2  A    between atoms: O_2  and  C_3
REMARK    3  A    between atoms: C_8  and  C_9
REMARK    4  A    between atoms: N_21  and  C_22
REMARK    5  A    between atoms: C_22  and  C_23
REMARK    6  A    between atoms: C_26  and  C_27
REMARK                            x       y       z     vdW  Elec       q    Type
REMARK                         _______ _______ _______ _____ _____    ______ ____
ROOT
ATOM      1  C   UNL     1      -0.984  12.681  19.242  0.00  0.00    +0.000 C 
ATOM      2  C   UNL     1      -0.476  11.284  19.299  0.00  0.00    +0.000 A 
ATOM      3  N   UNL     1      -0.067  10.566  18.221  0.00  0.00    +0.000 N 
ATOM      4  C   UNL     1       0.777   9.576  18.662  0.00  0.00    +0.000 A 
ATOM      5  C   UNL     1       1.739   8.854  17.959  0.00  0.00    +0.000 A 
ATOM      6  C   UNL     1       2.412   7.851  18.650  0.00  0.00    +0.000 A 
ATOM      7  C   UNL     1       2.049   7.519  19.955  0.00  0.00    +0.000 A 
ATOM      8  C   UNL     1       1.128   8.300  20.670  0.00  0.00    +0.000 A 
ATOM      9  C   UNL     1       0.565   9.424  20.037  0.00  0.00    +0.000 A 
ATOM     10  C   UNL     1      -0.052  10.644  20.441  0.00  0.00    +0.000 A 
ATOM     11  C   UNL     1      -0.068  11.430  21.709  0.00  0.00    +0.000 C 
ATOM     12  C   UNL     1       0.271  12.970  21.388  0.00  0.00    +0.000 C 
ATOM     13  N   UNL     1       0.003  13.477  20.012  0.00  0.00    +0.000 NA
ATOM     14  H   UNL     1      -0.167  10.850  17.258  0.00  0.00    +0.000 HD
ENDROOT
BRANCH   1  20
ATOM     15  C   UNL     1      -3.399  12.026  18.877  0.00  0.00    +0.000 A 
ATOM     16  C   UNL     1      -4.710  11.839  19.331  0.00  0.00    +0.000 A 
ATOM     17  C   UNL     1      -5.123  12.423  20.530  0.00  0.00    +0.000 A 
ATOM     18  C   UNL     1      -4.251  13.235  21.235  0.00  0.00    +0.000 A 
ATOM     19  C   UNL     1      -2.940  13.407  20.785  0.00  0.00    +0.000 A 
ATOM     20  C   UNL     1      -2.461  12.758  19.628  0.00  0.00    +0.000 A 
BRANCH  15  22
ATOM     21  C   UNL     1      -4.148  11.314  16.766  0.00  0.00    +0.000 C 
ATOM     22  O   UNL     1      -3.051  11.662  17.599  0.00  0.00    +0.000 OA
ENDBRANCH  15  22
ENDBRANCH   1  20
BRANCH  13  23
ATOM     23  C   UNL     1      -0.231  14.899  19.750  0.00  0.00    +0.000 C 
BRANCH  23  24
ATOM     24  C   UNL     1       0.853  15.791  19.220  0.00  0.00    +0.000 A 
ATOM     25  C   UNL     1       0.999  17.154  19.073  0.00  0.00    +0.000 A 
ATOM     26  N   UNL     1       2.269  17.599  18.716  0.00  0.00    +0.000 NA
ATOM     27  C   UNL     1       3.095  16.577  18.635  0.00  0.00    +0.000 A 
ATOM     28  C   UNL     1       4.567  16.657  18.408  0.00  0.00    +0.000 C 
ATOM     29  S   UNL     1       2.354  15.048  18.827  0.00  0.00    +0.000 S 
ENDBRANCH  23  24
ENDBRANCH  13  23
TORSDOF 4
ENDMDL
