MODEL 1
REMARK VINA RESULT:      -7.1      0.000      0.000
REMARK  Name = 
REMARK  4 active torsions:
REMARK  status: ('A' for Active; 'I' for Inactive)
REMARK    1  A    between atoms: C_1  and  N_2
REMARK    2  A    between atoms: N_5  and  C_6
REMARK    3  A    between atoms: C_9  and  N_10
REMARK    4  A    between atoms: C_14  and  N_15
REMARK                            x       y       z     vdW  Elec       q    Type
REMARK                         _______ _______ _______ _____ _____    ______ ____
ROOT
ATOM      1  C   UNL     1       3.729   6.709  17.746  0.00  0.00    +0.000 A 
ATOM      2  C   UNL     1       4.919   7.270  17.245  0.00  0.00    +0.000 A 
ATOM      3  C   UNL     1       5.848   6.500  16.533  0.00  0.00    +0.000 A 
ATOM      4  C   UNL     1       5.610   5.139  16.340  0.00  0.00    +0.000 A 
ATOM      5  C   UNL     1       4.466   4.544  16.866  0.00  0.00    +0.000 A 
ATOM      6  C   UNL     1       3.498   5.319  17.532  0.00  0.00    +0.000 A 
ENDROOT
BRANCH   6   7
ATOM      7  N   UNL     1       2.333   4.695  18.045  0.00  0.00    +0.000 N 
ATOM      8  C   UNL     1       2.231   3.938  19.218  0.00  0.00    +0.000 A 
ATOM      9  N   UNL     1       1.033   3.903  19.825  0.00  0.00    +0.000 NA
ATOM     10  C   UNL     1       0.961   3.251  21.005  0.00  0.00    +0.000 A 
ATOM     11  C   UNL     1       2.015   2.576  21.568  0.00  0.00    +0.000 A 
ATOM     12  C   UNL     1       3.182   2.622  20.852  0.00  0.00    +0.000 A 
ATOM     13  N   UNL     1       3.314   3.299  19.698  0.00  0.00    +0.000 NA
ATOM     14  H   UNL     1       1.795   4.251  17.313  0.00  0.00    +0.000 HD
ENDBRANCH   6   7
BRANCH   1  19
ATOM     15  C   UNL     1      -0.532   9.597  19.904  0.00  0.00    +0.000 C 
ATOM     16  N   UNL     1       0.890   9.329  19.673  0.00  0.00    +0.000 NA
ATOM     17  C   UNL     1       1.160   9.369  18.218  0.00  0.00    +0.000 C 
ATOM     18  C   UNL     1       2.575   8.887  17.847  0.00  0.00    +0.000 C 
ATOM     19  N   UNL     1       2.742   7.505  18.346  0.00  0.00    +0.000 N 
ATOM     20  C   UNL     1       2.665   7.486  19.824  0.00  0.00    +0.000 C 
ATOM     21  C   UNL     1       1.267   8.016  20.253  0.00  0.00    +0.000 C 
ENDBRANCH   1  19
BRANCH   4  22
ATOM     22  N   UNL     1       6.554   4.330  15.562  0.00  0.00    +0.000 N 
ATOM     23  O   UNL     1       6.087   3.589  14.686  0.00  0.00    +0.000 OA
ATOM     24  O   UNL     1       7.761   4.425  15.826  0.00  0.00    +0.000 OA
ENDBRANCH   4  22
TORSDOF 3
ENDMDL
MODEL 2
REMARK VINA RESULT:      -6.9      3.430      5.720
REMARK  Name = 
REMARK  4 active torsions:
REMARK  status: ('A' for Active; 'I' for Inactive)
REMARK    1  A    between atoms: C_1  and  N_2
REMARK    2  A    between atoms: N_5  and  C_6
REMARK    3  A    between atoms: C_9  and  N_10
REMARK    4  A    between atoms: C_14  and  N_15
REMARK                            x       y       z     vdW  Elec       q    Type
REMARK                         _______ _______ _______ _____ _____    ______ ____
ROOT
ATOM      1  C   UNL     1       2.984   7.341  18.421  0.00  0.00    +0.000 A 
ATOM      2  C   UNL     1       2.479   8.504  17.812  0.00  0.00    +0.000 A 
ATOM      3  C   UNL     1       1.542   9.322  18.459  0.00  0.00    +0.000 A 
ATOM      4  C   UNL     1       1.072   8.963  19.721  0.00  0.00    +0.000 A 
ATOM      5  C   UNL     1       1.515   7.790  20.330  0.00  0.00    +0.000 A 
ATOM      6  C   UNL     1       2.499   6.993  19.716  0.00  0.00    +0.000 A 
ENDROOT
BRANCH   6   7
ATOM      7  N   UNL     1       2.946   5.813  20.360  0.00  0.00    +0.000 N 
ATOM      8  C   UNL     1       2.511   4.504  20.120  0.00  0.00    +0.000 A 
ATOM      9  N   UNL     1       3.376   3.510  20.380  0.00  0.00    +0.000 NA
ATOM     10  C   UNL     1       2.988   2.258  20.057  0.00  0.00    +0.000 A 
ATOM     11  C   UNL     1       1.750   1.951  19.551  0.00  0.00    +0.000 A 
ATOM     12  C   UNL     1       0.916   3.022  19.370  0.00  0.00    +0.000 A 
ATOM     13  N   UNL     1       1.276   4.290  19.630  0.00  0.00    +0.000 NA
ATOM     14  H   UNL     1       3.054   5.951  21.357  0.00  0.00    +0.000 HD
ENDBRANCH   6   7
BRANCH   1  19
ATOM     15  C   UNL     1       7.269   4.313  16.517  0.00  0.00    +0.000 C 
ATOM     16  N   UNL     1       6.059   5.122  16.355  0.00  0.00    +0.000 NA
ATOM     17  C   UNL     1       6.291   6.463  16.940  0.00  0.00    +0.000 C 
ATOM     18  C   UNL     1       5.014   7.322  17.021  0.00  0.00    +0.000 C 
ATOM     19  N   UNL     1       4.014   6.593  17.830  0.00  0.00    +0.000 N 
ATOM     20  C   UNL     1       3.631   5.334  17.151  0.00  0.00    +0.000 C 
ATOM     21  C   UNL     1       4.901   4.450  16.998  0.00  0.00    +0.000 C 
ENDBRANCH   1  19
BRANCH   4  22
ATOM     22  N   UNL     1       0.122   9.830  20.427  0.00  0.00    +0.000 N 
ATOM     23  O   UNL     1      -0.523  10.643  19.752  0.00  0.00    +0.000 OA
ATOM     24  O   UNL     1       0.023   9.708  21.656  0.00  0.00    +0.000 OA
ENDBRANCH   4  22
TORSDOF 3
ENDMDL
MODEL 3
REMARK VINA RESULT:      -6.6      0.408      1.264
REMARK  Name = 
REMARK  4 active torsions:
REMARK  status: ('A' for Active; 'I' for Inactive)
REMARK    1  A    between atoms: C_1  and  N_2
REMARK    2  A    between atoms: N_5  and  C_6
REMARK    3  A    between atoms: C_9  and  N_10
REMARK    4  A    between atoms: C_14  and  N_15
REMARK                            x       y       z     vdW  Elec       q    Type
REMARK                         _______ _______ _______ _____ _____    ______ ____
ROOT
ATOM      1  C   UNL     1       3.884   6.795  17.846  0.00  0.00    +0.000 A 
ATOM      2  C   UNL     1       5.097   7.326  17.371  0.00  0.00    +0.000 A 
ATOM      3  C   UNL     1       6.002   6.545  16.640  0.00  0.00    +0.000 A 
ATOM      4  C   UNL     1       5.715   5.202  16.401  0.00  0.00    +0.000 A 
ATOM      5  C   UNL     1       4.544   4.634  16.900  0.00  0.00    +0.000 A 
ATOM      6  C   UNL     1       3.602   5.422  17.585  0.00  0.00    +0.000 A 
ENDROOT
BRANCH   6   7
ATOM      7  N   UNL     1       2.410   4.827  18.070  0.00  0.00    +0.000 N 
ATOM      8  C   UNL     1       2.277   4.008  19.198  0.00  0.00    +0.000 A 
ATOM      9  N   UNL     1       1.081   3.996  19.811  0.00  0.00    +0.000 NA
ATOM     10  C   UNL     1       0.984   3.281  20.952  0.00  0.00    +0.000 A 
ATOM     11  C   UNL     1       2.006   2.525  21.467  0.00  0.00    +0.000 A 
ATOM     12  C   UNL     1       3.170   2.555  20.746  0.00  0.00    +0.000 A 
ATOM     13  N   UNL     1       3.329   3.291  19.632  0.00  0.00    +0.000 NA
ATOM     14  H   UNL     1       1.848   4.452  17.318  0.00  0.00    +0.000 HD
ENDBRANCH   6   7
BRANCH   1  19
ATOM     15  C   UNL     1       0.426  10.327  20.441  0.00  0.00    +0.000 C 
ATOM     16  N   UNL     1       0.742   9.095  19.713  0.00  0.00    +0.000 NA
ATOM     17  C   UNL     1       1.737   8.317  20.487  0.00  0.00    +0.000 C 
ATOM     18  C   UNL     1       2.304   7.111  19.713  0.00  0.00    +0.000 C 
ATOM     19  N   UNL     1       2.922   7.608  18.466  0.00  0.00    +0.000 N 
ATOM     20  C   UNL     1       1.892   8.219  17.596  0.00  0.00    +0.000 C 
ATOM     21  C   UNL     1       1.251   9.415  18.355  0.00  0.00    +0.000 C 
ENDBRANCH   1  19
BRANCH   4  22
ATOM     22  N   UNL     1       6.633   4.383  15.603  0.00  0.00    +0.000 N 
ATOM     23  O   UNL     1       7.841   4.454  15.866  0.00  0.00    +0.000 OA
ATOM     24  O   UNL     1       6.154   3.673  14.707  0.00  0.00    +0.000 OA
ENDBRANCH   4  22
TORSDOF 3
ENDMDL
MODEL 4
REMARK VINA RESULT:      -6.5      3.266      6.095
REMARK  Name = 
REMARK  4 active torsions:
REMARK  status: ('A' for Active; 'I' for Inactive)
REMARK    1  A    between atoms: C_1  and  N_2
REMARK    2  A    between atoms: N_5  and  C_6
REMARK    3  A    between atoms: C_9  and  N_10
REMARK    4  A    between atoms: C_14  and  N_15
REMARK                            x       y       z     vdW  Elec       q    Type
REMARK                         _______ _______ _______ _____ _____    ______ ____
ROOT
ATOM      1  C   UNL     1       2.644   6.499  18.815  0.00  0.00    +0.000 A 
ATOM      2  C   UNL     1       1.820   7.123  19.770  0.00  0.00    +0.000 A 
ATOM      3  C   UNL     1       1.493   8.483  19.679  0.00  0.00    +0.000 A 
ATOM      4  C   UNL     1       2.019   9.248  18.638  0.00  0.00    +0.000 A 
ATOM      5  C   UNL     1       2.878   8.670  17.705  0.00  0.00    +0.000 A 
ATOM      6  C   UNL     1       3.166   7.294  17.753  0.00  0.00    +0.000 A 
ENDROOT
BRANCH   6   7
ATOM      7  N   UNL     1       4.029   6.725  16.784  0.00  0.00    +0.000 N 
ATOM      8  C   UNL     1       5.249   6.078  17.019  0.00  0.00    +0.000 A 
ATOM      9  N   UNL     1       5.637   5.155  16.124  0.00  0.00    +0.000 NA
ATOM     10  C   UNL     1       6.764   4.466  16.402  0.00  0.00    +0.000 A 
ATOM     11  C   UNL     1       7.554   4.708  17.498  0.00  0.00    +0.000 A 
ATOM     12  C   UNL     1       7.108   5.703  18.326  0.00  0.00    +0.000 A 
ATOM     13  N   UNL     1       5.966   6.382  18.116  0.00  0.00    +0.000 NA
ATOM     14  H   UNL     1       4.118   7.318  15.970  0.00  0.00    +0.000 HD
ENDBRANCH   6   7
BRANCH   1  19
ATOM     15  C   UNL     1       3.824   1.052  18.506  0.00  0.00    +0.000 C 
ATOM     16  N   UNL     1       3.129   2.215  19.062  0.00  0.00    +0.000 NA
ATOM     17  C   UNL     1       2.353   2.875  17.987  0.00  0.00    +0.000 C 
ATOM     18  C   UNL     1       1.759   4.233  18.409  0.00  0.00    +0.000 C 
ATOM     19  N   UNL     1       2.867   5.114  18.835  0.00  0.00    +0.000 N 
ATOM     20  C   UNL     1       3.529   4.553  20.035  0.00  0.00    +0.000 C 
ATOM     21  C   UNL     1       4.103   3.154  19.674  0.00  0.00    +0.000 C 
ENDBRANCH   1  19
BRANCH   4  22
ATOM     22  N   UNL     1       1.653  10.662  18.506  0.00  0.00    +0.000 N 
ATOM     23  O   UNL     1       0.542  11.009  18.932  0.00  0.00    +0.000 OA
ATOM     24  O   UNL     1       2.467  11.428  17.972  0.00  0.00    +0.000 OA
ENDBRANCH   4  22
TORSDOF 3
ENDMDL
MODEL 5
REMARK VINA RESULT:      -6.5      3.339      5.717
REMARK  Name = 
REMARK  4 active torsions:
REMARK  status: ('A' for Active; 'I' for Inactive)
REMARK    1  A    between atoms: C_1  and  N_2
REMARK    2  A    between atoms: N_5  and  C_6
REMARK    3  A    between atoms: C_9  and  N_10
REMARK    4  A    between atoms: C_14  and  N_15
REMARK                            x       y       z     vdW  Elec       q    Type
REMARK                         _______ _______ _______ _____ _____    ______ ____
ROOT
ATOM      1  C   UNL     1       3.196   7.255  18.134  0.00  0.00    +0.000 A 
ATOM      2  C   UNL     1       2.663   8.429  17.571  0.00  0.00    +0.000 A 
ATOM      3  C   UNL     1       1.767   9.240  18.280  0.00  0.00    +0.000 A 
ATOM      4  C   UNL     1       1.365   8.864  19.561  0.00  0.00    +0.000 A 
ATOM      5  C   UNL     1       1.837   7.681  20.127  0.00  0.00    +0.000 A 
ATOM      6  C   UNL     1       2.781   6.890  19.448  0.00  0.00    +0.000 A 
ENDROOT
BRANCH   6   7
ATOM      7  N   UNL     1       3.259   5.699  20.049  0.00  0.00    +0.000 N 
ATOM      8  C   UNL     1       2.715   4.415  19.923  0.00  0.00    +0.000 A 
ATOM      9  N   UNL     1       3.552   3.375  20.073  0.00  0.00    +0.000 NA
ATOM     10  C   UNL     1       3.046   2.143  19.856  0.00  0.00    +0.000 A 
ATOM     11  C   UNL     1       1.726   1.901  19.566  0.00  0.00    +0.000 A 
ATOM     12  C   UNL     1       0.937   3.018  19.486  0.00  0.00    +0.000 A 
ATOM     13  N   UNL     1       1.407   4.267  19.645  0.00  0.00    +0.000 NA
ATOM     14  H   UNL     1       3.534   5.851  21.011  0.00  0.00    +0.000 HD
ENDBRANCH   6   7
BRANCH   1  19
ATOM     15  C   UNL     1       7.067   4.588  15.123  0.00  0.00    +0.000 C 
ATOM     16  N   UNL     1       6.244   4.795  16.318  0.00  0.00    +0.000 NA
ATOM     17  C   UNL     1       4.814   4.710  15.941  0.00  0.00    +0.000 C 
ATOM     18  C   UNL     1       3.860   5.128  17.077  0.00  0.00    +0.000 C 
ATOM     19  N   UNL     1       4.188   6.513  17.476  0.00  0.00    +0.000 N 
ATOM     20  C   UNL     1       5.558   6.569  18.035  0.00  0.00    +0.000 C 
ATOM     21  C   UNL     1       6.558   6.106  16.940  0.00  0.00    +0.000 C 
ENDBRANCH   1  19
BRANCH   4  22
ATOM     22  N   UNL     1       0.460   9.724  20.331  0.00  0.00    +0.000 N 
ATOM     23  O   UNL     1       0.876  10.177  21.406  0.00  0.00    +0.000 OA
ATOM     24  O   UNL     1      -0.669   9.943  19.871  0.00  0.00    +0.000 OA
ENDBRANCH   4  22
TORSDOF 3
ENDMDL
MODEL 6
REMARK VINA RESULT:      -6.4      2.832      5.551
REMARK  Name = 
REMARK  4 active torsions:
REMARK  status: ('A' for Active; 'I' for Inactive)
REMARK    1  A    between atoms: C_1  and  N_2
REMARK    2  A    between atoms: N_5  and  C_6
REMARK    3  A    between atoms: C_9  and  N_10
REMARK    4  A    between atoms: C_14  and  N_15
REMARK                            x       y       z     vdW  Elec       q    Type
REMARK                         _______ _______ _______ _____ _____    ______ ____
ROOT
ATOM      1  C   UNL     1       4.410   4.784  18.402  0.00  0.00    +0.000 A 
ATOM      2  C   UNL     1       4.472   3.504  17.820  0.00  0.00    +0.000 A 
ATOM      3  C   UNL     1       3.414   2.593  17.942  0.00  0.00    +0.000 A 
ATOM      4  C   UNL     1       2.286   2.944  18.682  0.00  0.00    +0.000 A 
ATOM      5  C   UNL     1       2.216   4.185  19.312  0.00  0.00    +0.000 A 
ATOM      6  C   UNL     1       3.245   5.129  19.148  0.00  0.00    +0.000 A 
ENDROOT
BRANCH   6   7
ATOM      7  N   UNL     1       3.146   6.391  19.785  0.00  0.00    +0.000 N 
ATOM      8  C   UNL     1       2.433   7.509  19.334  0.00  0.00    +0.000 A 
ATOM      9  N   UNL     1       1.995   8.375  20.263  0.00  0.00    +0.000 NA
ATOM     10  C   UNL     1       1.228   9.399  19.834  0.00  0.00    +0.000 A 
ATOM     11  C   UNL     1       0.938   9.633  18.513  0.00  0.00    +0.000 A 
ATOM     12  C   UNL     1       1.472   8.729  17.634  0.00  0.00    +0.000 A 
ATOM     13  N   UNL     1       2.200   7.667  18.019  0.00  0.00    +0.000 NA
ATOM     14  H   UNL     1       4.037   6.692  20.157  0.00  0.00    +0.000 HD
ENDBRANCH   6   7
BRANCH   1  19
ATOM     15  C   UNL     1       8.195   8.851  17.858  0.00  0.00    +0.000 C 
ATOM     16  N   UNL     1       7.558   7.590  17.471  0.00  0.00    +0.000 NA
ATOM     17  C   UNL     1       6.134   7.845  17.152  0.00  0.00    +0.000 C 
ATOM     18  C   UNL     1       5.315   6.556  16.945  0.00  0.00    +0.000 C 
ATOM     19  N   UNL     1       5.411   5.740  18.174  0.00  0.00    +0.000 N 
ATOM     20  C   UNL     1       6.813   5.317  18.395  0.00  0.00    +0.000 C 
ATOM     21  C   UNL     1       7.692   6.589  18.559  0.00  0.00    +0.000 C 
ENDBRANCH   1  19
BRANCH   4  22
ATOM     22  N   UNL     1       1.154   2.016  18.784  0.00  0.00    +0.000 N 
ATOM     23  O   UNL     1       0.067   2.385  18.319  0.00  0.00    +0.000 OA
ATOM     24  O   UNL     1       1.344   0.922  19.334  0.00  0.00    +0.000 OA
ENDBRANCH   4  22
TORSDOF 3
ENDMDL
MODEL 7
REMARK VINA RESULT:      -6.4      3.328      6.298
REMARK  Name = 
REMARK  4 active torsions:
REMARK  status: ('A' for Active; 'I' for Inactive)
REMARK    1  A    between atoms: C_1  and  N_2
REMARK    2  A    between atoms: N_5  and  C_6
REMARK    3  A    between atoms: C_9  and  N_10
REMARK    4  A    between atoms: C_14  and  N_15
REMARK                            x       y       z     vdW  Elec       q    Type
REMARK                         _______ _______ _______ _____ _____    ______ ____
ROOT
ATOM      1  C   UNL     1       0.906   9.147  20.302  0.00  0.00    +0.000 A 
ATOM      2  C   UNL     1       1.545   8.011  20.830  0.00  0.00    +0.000 A 
ATOM      3  C   UNL     1       2.294   7.148  20.017  0.00  0.00    +0.000 A 
ATOM      4  C   UNL     1       2.385   7.399  18.648  0.00  0.00    +0.000 A 
ATOM      5  C   UNL     1       1.722   8.489  18.088  0.00  0.00    +0.000 A 
ATOM      6  C   UNL     1       1.016   9.394  18.903  0.00  0.00    +0.000 A 
ENDROOT
BRANCH   6   7
ATOM      7  N   UNL     1       0.362  10.504  18.313  0.00  0.00    +0.000 N 
ATOM      8  C   UNL     1      -0.995  10.606  17.983  0.00  0.00    +0.000 A 
ATOM      9  N   UNL     1      -1.534  11.836  17.967  0.00  0.00    +0.000 NA
ATOM     10  C   UNL     1      -2.862  11.922  17.743  0.00  0.00    +0.000 A 
ATOM     11  C   UNL     1      -3.660  10.840  17.467  0.00  0.00    +0.000 A 
ATOM     12  C   UNL     1      -3.013   9.632  17.451  0.00  0.00    +0.000 A 
ATOM     13  N   UNL     1      -1.703   9.493  17.717  0.00  0.00    +0.000 NA
ATOM     14  H   UNL     1       0.917  10.913  17.572  0.00  0.00    +0.000 HD
ENDBRANCH   6   7
BRANCH   1  19
ATOM     15  C   UNL     1      -2.018  12.845  23.292  0.00  0.00    +0.000 C 
ATOM     16  N   UNL     1      -0.833  12.034  23.003  0.00  0.00    +0.000 NA
ATOM     17  C   UNL     1      -0.313  12.397  21.664  0.00  0.00    +0.000 C 
ATOM     18  C   UNL     1       0.800  11.455  21.166  0.00  0.00    +0.000 C 
ATOM     19  N   UNL     1       0.265  10.077  21.134  0.00  0.00    +0.000 N 
ATOM     20  C   UNL     1      -0.080   9.635  22.504  0.00  0.00    +0.000 C 
ATOM     21  C   UNL     1      -1.167  10.589  23.073  0.00  0.00    +0.000 C 
ENDBRANCH   1  19
BRANCH   4  22
ATOM     22  N   UNL     1       3.198   6.529  17.792  0.00  0.00    +0.000 N 
ATOM     23  O   UNL     1       4.057   7.067  17.080  0.00  0.00    +0.000 OA
ATOM     24  O   UNL     1       2.978   5.310  17.822  0.00  0.00    +0.000 OA
ENDBRANCH   4  22
TORSDOF 3
ENDMDL
MODEL 8
REMARK VINA RESULT:      -6.3      3.443      6.316
REMARK  Name = 
REMARK  4 active torsions:
REMARK  status: ('A' for Active; 'I' for Inactive)
REMARK    1  A    between atoms: C_1  and  N_2
REMARK    2  A    between atoms: N_5  and  C_6
REMARK    3  A    between atoms: C_9  and  N_10
REMARK    4  A    between atoms: C_14  and  N_15
REMARK                            x       y       z     vdW  Elec       q    Type
REMARK                         _______ _______ _______ _____ _____    ______ ____
ROOT
ATOM      1  C   UNL     1       2.259   6.221  19.586  0.00  0.00    +0.000 A 
ATOM      2  C   UNL     1       1.534   6.601  20.731  0.00  0.00    +0.000 A 
ATOM      3  C   UNL     1       1.107   7.922  20.923  0.00  0.00    +0.000 A 
ATOM      4  C   UNL     1       1.432   8.894  19.977  0.00  0.00    +0.000 A 
ATOM      5  C   UNL     1       2.191   8.559  18.857  0.00  0.00    +0.000 A 
ATOM      6  C   UNL     1       2.575   7.226  18.625  0.00  0.00    +0.000 A 
ENDROOT
BRANCH   6   7
ATOM      7  N   UNL     1       3.334   6.906  17.472  0.00  0.00    +0.000 N 
ATOM      8  C   UNL     1       4.563   6.237  17.430  0.00  0.00    +0.000 A 
ATOM      9  N   UNL     1       4.852   5.550  16.313  0.00  0.00    +0.000 NA
ATOM     10  C   UNL     1       5.993   4.829  16.313  0.00  0.00    +0.000 A 
ATOM     11  C   UNL     1       6.889   4.820  17.353  0.00  0.00    +0.000 A 
ATOM     12  C   UNL     1       6.536   5.592  18.428  0.00  0.00    +0.000 A 
ATOM     13  N   UNL     1       5.387   6.287  18.492  0.00  0.00    +0.000 NA
ATOM     14  H   UNL     1       3.349   7.672  16.812  0.00  0.00    +0.000 HD
ENDBRANCH   6   7
BRANCH   1  19
ATOM     15  C   UNL     1       3.877   1.039  18.287  0.00  0.00    +0.000 C 
ATOM     16  N   UNL     1       2.999   2.017  18.934  0.00  0.00    +0.000 NA
ATOM     17  C   UNL     1       2.412   2.899  17.899  0.00  0.00    +0.000 C 
ATOM     18  C   UNL     1       1.646   4.101  18.486  0.00  0.00    +0.000 C 
ATOM     19  N   UNL     1       2.575   4.878  19.333  0.00  0.00    +0.000 N 
ATOM     20  C   UNL     1       3.019   4.059  20.484  0.00  0.00    +0.000 C 
ATOM     21  C   UNL     1       3.757   2.803  19.941  0.00  0.00    +0.000 C 
ENDBRANCH   1  19
BRANCH   4  22
ATOM     22  N   UNL     1       0.957  10.271  20.144  0.00  0.00    +0.000 N 
ATOM     23  O   UNL     1       0.403  10.808  19.175  0.00  0.00    +0.000 OA
ATOM     24  O   UNL     1       1.142  10.824  21.237  0.00  0.00    +0.000 OA
ENDBRANCH   4  22
TORSDOF 3
ENDMDL
MODEL 9
REMARK VINA RESULT:      -6.3      2.617      4.806
REMARK  Name = 
REMARK  4 active torsions:
REMARK  status: ('A' for Active; 'I' for Inactive)
REMARK    1  A    between atoms: C_1  and  N_2
REMARK    2  A    between atoms: N_5  and  C_6
REMARK    3  A    between atoms: C_9  and  N_10
REMARK    4  A    between atoms: C_14  and  N_15
REMARK                            x       y       z     vdW  Elec       q    Type
REMARK                         _______ _______ _______ _____ _____    ______ ____
ROOT
ATOM      1  C   UNL     1       2.286   6.699  19.659  0.00  0.00    +0.000 A 
ATOM      2  C   UNL     1       1.619   6.044  20.710  0.00  0.00    +0.000 A 
ATOM      3  C   UNL     1       1.954   4.737  21.089  0.00  0.00    +0.000 A 
ATOM      4  C   UNL     1       2.949   4.053  20.391  0.00  0.00    +0.000 A 
ATOM      5  C   UNL     1       3.594   4.657  19.314  0.00  0.00    +0.000 A 
ATOM      6  C   UNL     1       3.307   5.988  18.963  0.00  0.00    +0.000 A 
ENDROOT
BRANCH   6   7
ATOM      7  N   UNL     1       3.987   6.587  17.873  0.00  0.00    +0.000 N 
ATOM      8  C   UNL     1       5.021   6.027  17.115  0.00  0.00    +0.000 A 
ATOM      9  N   UNL     1       5.158   6.454  15.848  0.00  0.00    +0.000 NA
ATOM     10  C   UNL     1       6.093   5.844  15.091  0.00  0.00    +0.000 A 
ATOM     11  C   UNL     1       6.943   4.875  15.564  0.00  0.00    +0.000 A 
ATOM     12  C   UNL     1       6.767   4.542  16.881  0.00  0.00    +0.000 A 
ATOM     13  N   UNL     1       5.816   5.087  17.659  0.00  0.00    +0.000 NA
ATOM     14  H   UNL     1       4.195   7.560  18.054  0.00  0.00    +0.000 HD
ENDBRANCH   6   7
BRANCH   1  19
ATOM     15  C   UNL     1       1.751  12.165  18.660  0.00  0.00    +0.000 C 
ATOM     16  N   UNL     1       1.264  10.784  18.703  0.00  0.00    +0.000 NA
ATOM     17  C   UNL     1       1.352  10.283  20.094  0.00  0.00    +0.000 C 
ATOM     18  C   UNL     1       1.072   8.772  20.216  0.00  0.00    +0.000 C 
ATOM     19  N   UNL     1       2.039   8.048  19.364  0.00  0.00    +0.000 N 
ATOM     20  C   UNL     1       1.827   8.402  17.942  0.00  0.00    +0.000 C 
ATOM     21  C   UNL     1       2.049   9.932  17.775  0.00  0.00    +0.000 C 
ENDBRANCH   1  19
BRANCH   4  22
ATOM     22  N   UNL     1       3.338   2.700  20.803  0.00  0.00    +0.000 N 
ATOM     23  O   UNL     1       4.033   2.040  20.017  0.00  0.00    +0.000 OA
ATOM     24  O   UNL     1       2.947   2.289  21.904  0.00  0.00    +0.000 OA
ENDBRANCH   4  22
TORSDOF 3
ENDMDL
