MODEL 1
REMARK VINA RESULT:      -6.7      0.000      0.000
REMARK  Name = 
REMARK  4 active torsions:
REMARK  status: ('A' for Active; 'I' for Inactive)
REMARK    1  A    between atoms: C_1  and  O_2
REMARK    2  A    between atoms: O_2  and  C_3
REMARK    3  A    between atoms: N_11  and  S_12
REMARK    4  A    between atoms: S_12  and  C_15
REMARK                            x       y       z     vdW  Elec       q    Type
REMARK                         _______ _______ _______ _____ _____    ______ ____
ROOT
ATOM      1  C   UNL     1       0.839   3.515  20.015  0.00  0.00    +0.000 C 
ATOM      2  C   UNL     1       0.903   2.493  18.862  0.00  0.00    +0.000 C 
ATOM      3  C   UNL     1       1.960   2.981  17.862  0.00  0.00    +0.000 C 
ATOM      4  C   UNL     1       2.150   4.434  18.220  0.00  0.00    +0.000 C 
ATOM      5  C   UNL     1       1.945   4.532  19.723  0.00  0.00    +0.000 C 
ATOM      6  O   UNL     1       1.562   5.889  20.011  0.00  0.00    +0.000 OA
ATOM      7  C   UNL     1       2.621   6.799  19.639  0.00  0.00    +0.000 C 
ATOM      8  C   UNL     1       3.168   6.612  18.193  0.00  0.00    +0.000 C 
ATOM      9  N   UNL     1       3.422   5.148  17.841  0.00  0.00    +0.000 NA
ENDROOT
BRANCH   9  10
ATOM     10  S   UNL     1       4.910   4.547  18.486  0.00  0.00    +0.000 S 
ATOM     11  O   UNL     1       5.411   5.519  19.434  0.00  0.00    +0.000 OA
ATOM     12  O   UNL     1       4.733   3.173  18.883  0.00  0.00    +0.000 OA
BRANCH  10  13
ATOM     13  C   UNL     1       6.184   4.475  17.198  0.00  0.00    +0.000 C 
ATOM     14  C   UNL     1       6.884   5.791  16.966  0.00  0.00    +0.000 C 
ATOM     15  C   UNL     1       7.619   4.643  17.599  0.00  0.00    +0.000 C 
ENDBRANCH  10  13
ENDBRANCH   9  10
BRANCH   1  17
ATOM     16  C   UNL     1       2.404   2.685  21.617  0.00  0.00    +0.000 C 
ATOM     17  O   UNL     1       1.036   2.810  21.247  0.00  0.00    +0.000 OA
ENDBRANCH   1  17
TORSDOF 3
ENDMDL
MODEL 2
REMARK VINA RESULT:      -6.5      1.947      5.117
REMARK  Name = 
REMARK  4 active torsions:
REMARK  status: ('A' for Active; 'I' for Inactive)
REMARK    1  A    between atoms: C_1  and  O_2
REMARK    2  A    between atoms: O_2  and  C_3
REMARK    3  A    between atoms: N_11  and  S_12
REMARK    4  A    between atoms: S_12  and  C_15
REMARK                            x       y       z     vdW  Elec       q    Type
REMARK                         _______ _______ _______ _____ _____    ______ ____
ROOT
ATOM      1  C   UNL     1       5.928   6.205  16.633  0.00  0.00    +0.000 C 
ATOM      2  C   UNL     1       6.832   5.184  17.352  0.00  0.00    +0.000 C 
ATOM      3  C   UNL     1       6.017   4.556  18.491  0.00  0.00    +0.000 C 
ATOM      4  C   UNL     1       4.863   5.510  18.675  0.00  0.00    +0.000 C 
ATOM      5  C   UNL     1       4.555   6.076  17.298  0.00  0.00    +0.000 C 
ATOM      6  O   UNL     1       3.896   7.340  17.496  0.00  0.00    +0.000 OA
ATOM      7  C   UNL     1       2.647   7.150  18.196  0.00  0.00    +0.000 C 
ATOM      8  C   UNL     1       2.747   6.303  19.498  0.00  0.00    +0.000 C 
ATOM      9  N   UNL     1       3.585   5.038  19.318  0.00  0.00    +0.000 NA
ENDROOT
BRANCH   9  10
ATOM     10  S   UNL     1       2.715   3.757  18.546  0.00  0.00    +0.000 S 
ATOM     11  O   UNL     1       1.562   4.333  17.889  0.00  0.00    +0.000 OA
ATOM     12  O   UNL     1       3.640   2.940  17.803  0.00  0.00    +0.000 OA
BRANCH  10  13
ATOM     13  C   UNL     1       2.015   2.625  19.778  0.00  0.00    +0.000 C 
ATOM     14  C   UNL     1       2.578   2.818  21.165  0.00  0.00    +0.000 C 
ATOM     15  C   UNL     1       1.154   3.194  20.866  0.00  0.00    +0.000 C 
ENDBRANCH  10  13
ENDBRANCH   9  10
BRANCH   1  17
ATOM     16  C   UNL     1       6.828   4.853  14.882  0.00  0.00    +0.000 C 
ATOM     17  O   UNL     1       5.909   5.878  15.238  0.00  0.00    +0.000 OA
ENDBRANCH   1  17
TORSDOF 3
ENDMDL
MODEL 3
REMARK VINA RESULT:      -6.5      1.912      5.244
REMARK  Name = 
REMARK  4 active torsions:
REMARK  status: ('A' for Active; 'I' for Inactive)
REMARK    1  A    between atoms: C_1  and  O_2
REMARK    2  A    between atoms: O_2  and  C_3
REMARK    3  A    between atoms: N_11  and  S_12
REMARK    4  A    between atoms: S_12  and  C_15
REMARK                            x       y       z     vdW  Elec       q    Type
REMARK                         _______ _______ _______ _____ _____    ______ ____
ROOT
ATOM      1  C   UNL     1       6.042   6.228  16.354  0.00  0.00    +0.000 C 
ATOM      2  C   UNL     1       7.096   5.334  17.038  0.00  0.00    +0.000 C 
ATOM      3  C   UNL     1       6.445   4.704  18.276  0.00  0.00    +0.000 C 
ATOM      4  C   UNL     1       5.226   5.561  18.517  0.00  0.00    +0.000 C 
ATOM      5  C   UNL     1       4.750   6.017  17.147  0.00  0.00    +0.000 C 
ATOM      6  O   UNL     1       3.996   7.227  17.342  0.00  0.00    +0.000 OA
ATOM      7  C   UNL     1       2.835   6.969  18.162  0.00  0.00    +0.000 C 
ATOM      8  C   UNL     1       3.126   6.210  19.490  0.00  0.00    +0.000 C 
ATOM      9  N   UNL     1       4.059   5.016  19.297  0.00  0.00    +0.000 NA
ENDROOT
BRANCH   9  10
ATOM     10  S   UNL     1       3.249   3.621  18.673  0.00  0.00    +0.000 S 
ATOM     11  O   UNL     1       3.340   3.660  17.229  0.00  0.00    +0.000 OA
ATOM     12  O   UNL     1       3.690   2.456  19.395  0.00  0.00    +0.000 OA
BRANCH  10  13
ATOM     13  C   UNL     1       1.470   3.707  19.015  0.00  0.00    +0.000 C 
ATOM     14  C   UNL     1       0.757   2.389  18.840  0.00  0.00    +0.000 C 
ATOM     15  C   UNL     1       0.934   2.978  20.211  0.00  0.00    +0.000 C 
ENDBRANCH  10  13
ENDBRANCH   9  10
BRANCH   1  17
ATOM     16  C   UNL     1       6.903   4.854  14.600  0.00  0.00    +0.000 C 
ATOM     17  O   UNL     1       5.932   5.821  14.985  0.00  0.00    +0.000 OA
ENDBRANCH   1  17
TORSDOF 3
ENDMDL
MODEL 4
REMARK VINA RESULT:      -6.5      0.925      1.050
REMARK  Name = 
REMARK  4 active torsions:
REMARK  status: ('A' for Active; 'I' for Inactive)
REMARK    1  A    between atoms: C_1  and  O_2
REMARK    2  A    between atoms: O_2  and  C_3
REMARK    3  A    between atoms: N_11  and  S_12
REMARK    4  A    between atoms: S_12  and  C_15
REMARK                            x       y       z     vdW  Elec       q    Type
REMARK                         _______ _______ _______ _____ _____    ______ ____
ROOT
ATOM      1  C   UNL     1       1.048   3.770  20.405  0.00  0.00    +0.000 C 
ATOM      2  C   UNL     1       0.959   2.762  19.242  0.00  0.00    +0.000 C 
ATOM      3  C   UNL     1       1.754   3.337  18.061  0.00  0.00    +0.000 C 
ATOM      4  C   UNL     1       1.899   4.799  18.404  0.00  0.00    +0.000 C 
ATOM      5  C   UNL     1       1.991   4.873  19.920  0.00  0.00    +0.000 C 
ATOM      6  O   UNL     1       1.570   6.194  20.306  0.00  0.00    +0.000 OA
ATOM      7  C   UNL     1       2.459   7.187  19.750  0.00  0.00    +0.000 C 
ATOM      8  C   UNL     1       2.720   7.052  18.221  0.00  0.00    +0.000 C 
ATOM      9  N   UNL     1       3.011   5.614  17.795  0.00  0.00    +0.000 NA
ENDROOT
BRANCH   9  10
ATOM     10  S   UNL     1       4.639   5.130  18.119  0.00  0.00    +0.000 S 
ATOM     11  O   UNL     1       5.487   6.295  17.983  0.00  0.00    +0.000 OA
ATOM     12  O   UNL     1       4.669   4.351  19.331  0.00  0.00    +0.000 OA
BRANCH  10  13
ATOM     13  C   UNL     1       5.234   3.987  16.843  0.00  0.00    +0.000 C 
ATOM     14  C   UNL     1       5.257   4.586  15.459  0.00  0.00    +0.000 C 
ATOM     15  C   UNL     1       6.543   4.280  16.173  0.00  0.00    +0.000 C 
ENDBRANCH  10  13
ENDBRANCH   9  10
BRANCH   1  17
ATOM     16  C   UNL     1       2.859   2.569  21.396  0.00  0.00    +0.000 C 
ATOM     17  O   UNL     1       1.541   3.077  21.558  0.00  0.00    +0.000 OA
ENDBRANCH   1  17
TORSDOF 3
ENDMDL
MODEL 5
REMARK VINA RESULT:      -6.4      0.933      1.143
REMARK  Name = 
REMARK  4 active torsions:
REMARK  status: ('A' for Active; 'I' for Inactive)
REMARK    1  A    between atoms: C_1  and  O_2
REMARK    2  A    between atoms: O_2  and  C_3
REMARK    3  A    between atoms: N_11  and  S_12
REMARK    4  A    between atoms: S_12  and  C_15
REMARK                            x       y       z     vdW  Elec       q    Type
REMARK                         _______ _______ _______ _____ _____    ______ ____
ROOT
ATOM      1  C   UNL     1       1.534   3.220  19.461  0.00  0.00    +0.000 C 
ATOM      2  C   UNL     1       1.745   2.307  18.236  0.00  0.00    +0.000 C 
ATOM      3  C   UNL     1       2.746   3.001  17.302  0.00  0.00    +0.000 C 
ATOM      4  C   UNL     1       2.745   4.434  17.775  0.00  0.00    +0.000 C 
ATOM      5  C   UNL     1       2.506   4.387  19.275  0.00  0.00    +0.000 C 
ATOM      6  O   UNL     1       1.950   5.659  19.656  0.00  0.00    +0.000 OA
ATOM      7  C   UNL     1       2.891   6.720  19.380  0.00  0.00    +0.000 C 
ATOM      8  C   UNL     1       3.479   6.718  17.939  0.00  0.00    +0.000 C 
ATOM      9  N   UNL     1       3.922   5.329  17.483  0.00  0.00    +0.000 NA
ENDROOT
BRANCH   9  10
ATOM     10  S   UNL     1       5.464   4.870  18.118  0.00  0.00    +0.000 S 
ATOM     11  O   UNL     1       6.085   6.050  18.680  0.00  0.00    +0.000 OA
ATOM     12  O   UNL     1       5.312   3.681  18.916  0.00  0.00    +0.000 OA
BRANCH  10  13
ATOM     13  C   UNL     1       6.582   4.365  16.782  0.00  0.00    +0.000 C 
ATOM     14  C   UNL     1       5.871   3.773  15.591  0.00  0.00    +0.000 C 
ATOM     15  C   UNL     1       6.534   5.117  15.485  0.00  0.00    +0.000 C 
ENDBRANCH  10  13
ENDBRANCH   9  10
BRANCH   1  17
ATOM     16  C   UNL     1       2.146   3.243  21.770  0.00  0.00    +0.000 C 
ATOM     17  O   UNL     1       1.800   2.450  20.640  0.00  0.00    +0.000 OA
ENDBRANCH   1  17
TORSDOF 3
ENDMDL
MODEL 6
REMARK VINA RESULT:      -6.4      2.066      5.211
REMARK  Name = 
REMARK  4 active torsions:
REMARK  status: ('A' for Active; 'I' for Inactive)
REMARK    1  A    between atoms: C_1  and  O_2
REMARK    2  A    between atoms: O_2  and  C_3
REMARK    3  A    between atoms: N_11  and  S_12
REMARK    4  A    between atoms: S_12  and  C_15
REMARK                            x       y       z     vdW  Elec       q    Type
REMARK                         _______ _______ _______ _____ _____    ______ ____
ROOT
ATOM      1  C   UNL     1       5.800   5.367  15.584  0.00  0.00    +0.000 C 
ATOM      2  C   UNL     1       7.101   4.712  16.093  0.00  0.00    +0.000 C 
ATOM      3  C   UNL     1       6.926   4.427  17.591  0.00  0.00    +0.000 C 
ATOM      4  C   UNL     1       5.756   5.293  17.988  0.00  0.00    +0.000 C 
ATOM      5  C   UNL     1       4.841   5.352  16.776  0.00  0.00    +0.000 C 
ATOM      6  O   UNL     1       4.058   6.554  16.893  0.00  0.00    +0.000 OA
ATOM      7  C   UNL     1       3.235   6.504  18.079  0.00  0.00    +0.000 C 
ATOM      8  C   UNL     1       3.994   6.139  19.389  0.00  0.00    +0.000 C 
ATOM      9  N   UNL     1       4.944   4.956  19.212  0.00  0.00    +0.000 NA
ENDROOT
BRANCH   9  10
ATOM     10  S   UNL     1       4.135   3.428  19.250  0.00  0.00    +0.000 S 
ATOM     11  O   UNL     1       3.761   3.086  17.894  0.00  0.00    +0.000 OA
ATOM     12  O   UNL     1       4.905   2.505  20.044  0.00  0.00    +0.000 OA
BRANCH  10  13
ATOM     13  C   UNL     1       2.556   3.562  20.133  0.00  0.00    +0.000 C 
ATOM     14  C   UNL     1       1.735   2.297  20.097  0.00  0.00    +0.000 C 
ATOM     15  C   UNL     1       2.364   2.755  21.383  0.00  0.00    +0.000 C 
ENDBRANCH  10  13
ENDBRANCH   9  10
BRANCH   1  17
ATOM     16  C   UNL     1       6.358   3.950  13.744  0.00  0.00    +0.000 C 
ATOM     17  O   UNL     1       5.324   4.602  14.470  0.00  0.00    +0.000 OA
ENDBRANCH   1  17
TORSDOF 3
ENDMDL
MODEL 7
REMARK VINA RESULT:      -6.3      1.220      1.405
REMARK  Name = 
REMARK  4 active torsions:
REMARK  status: ('A' for Active; 'I' for Inactive)
REMARK    1  A    between atoms: C_1  and  O_2
REMARK    2  A    between atoms: O_2  and  C_3
REMARK    3  A    between atoms: N_11  and  S_12
REMARK    4  A    between atoms: S_12  and  C_15
REMARK                            x       y       z     vdW  Elec       q    Type
REMARK                         _______ _______ _______ _____ _____    ______ ____
ROOT
ATOM      1  C   UNL     1       1.610   3.025  19.433  0.00  0.00    +0.000 C 
ATOM      2  C   UNL     1       1.766   2.140  18.179  0.00  0.00    +0.000 C 
ATOM      3  C   UNL     1       2.735   2.849  17.223  0.00  0.00    +0.000 C 
ATOM      4  C   UNL     1       2.763   4.270  17.728  0.00  0.00    +0.000 C 
ATOM      5  C   UNL     1       2.582   4.190  19.235  0.00  0.00    +0.000 C 
ATOM      6  O   UNL     1       2.051   5.456  19.667  0.00  0.00    +0.000 OA
ATOM      7  C   UNL     1       2.987   6.517  19.380  0.00  0.00    +0.000 C 
ATOM      8  C   UNL     1       3.518   6.545  17.917  0.00  0.00    +0.000 C 
ATOM      9  N   UNL     1       3.933   5.165  17.411  0.00  0.00    +0.000 NA
ENDROOT
BRANCH   9  10
ATOM     10  S   UNL     1       5.496   4.682  17.974  0.00  0.00    +0.000 S 
ATOM     11  O   UNL     1       5.312   3.840  19.137  0.00  0.00    +0.000 OA
ATOM     12  O   UNL     1       6.276   4.214  16.858  0.00  0.00    +0.000 OA
BRANCH  10  13
ATOM     13  C   UNL     1       6.423   6.112  18.594  0.00  0.00    +0.000 C 
ATOM     14  C   UNL     1       7.842   5.786  18.989  0.00  0.00    +0.000 C 
ATOM     15  C   UNL     1       7.568   6.632  17.777  0.00  0.00    +0.000 C 
ENDBRANCH  10  13
ENDBRANCH   9  10
BRANCH   1  17
ATOM     16  C   UNL     1       1.563   2.844  21.814  0.00  0.00    +0.000 C 
ATOM     17  O   UNL     1       1.917   2.226  20.583  0.00  0.00    +0.000 OA
ENDBRANCH   1  17
TORSDOF 3
ENDMDL
MODEL 8
REMARK VINA RESULT:      -6.3      2.017      5.202
REMARK  Name = 
REMARK  4 active torsions:
REMARK  status: ('A' for Active; 'I' for Inactive)
REMARK    1  A    between atoms: C_1  and  O_2
REMARK    2  A    between atoms: O_2  and  C_3
REMARK    3  A    between atoms: N_11  and  S_12
REMARK    4  A    between atoms: S_12  and  C_15
REMARK                            x       y       z     vdW  Elec       q    Type
REMARK                         _______ _______ _______ _____ _____    ______ ____
ROOT
ATOM      1  C   UNL     1       6.746   6.379  17.148  0.00  0.00    +0.000 C 
ATOM      2  C   UNL     1       7.668   5.941  18.304  0.00  0.00    +0.000 C 
ATOM      3  C   UNL     1       6.781   5.384  19.426  0.00  0.00    +0.000 C 
ATOM      4  C   UNL     1       5.406   5.905  19.088  0.00  0.00    +0.000 C 
ATOM      5  C   UNL     1       5.335   5.966  17.572  0.00  0.00    +0.000 C 
ATOM      6  O   UNL     1       4.330   6.940  17.233  0.00  0.00    +0.000 OA
ATOM      7  C   UNL     1       3.040   6.523  17.730  0.00  0.00    +0.000 C 
ATOM      8  C   UNL     1       3.015   6.118  19.233  0.00  0.00    +0.000 C 
ATOM      9  N   UNL     1       4.180   5.208  19.619  0.00  0.00    +0.000 NA
ENDROOT
BRANCH   9  10
ATOM     10  S   UNL     1       3.927   3.559  19.166  0.00  0.00    +0.000 S 
ATOM     11  O   UNL     1       3.683   3.519  17.740  0.00  0.00    +0.000 OA
ATOM     12  O   UNL     1       4.965   2.745  19.746  0.00  0.00    +0.000 OA
BRANCH  10  13
ATOM     13  C   UNL     1       2.399   2.918  19.904  0.00  0.00    +0.000 C 
ATOM     14  C   UNL     1       2.419   2.899  21.413  0.00  0.00    +0.000 C 
ATOM     15  C   UNL     1       1.528   3.862  20.679  0.00  0.00    +0.000 C 
ENDBRANCH  10  13
ENDBRANCH   9  10
BRANCH   1  17
ATOM     16  C   UNL     1       6.525   4.489  15.704  0.00  0.00    +0.000 C 
ATOM     17  O   UNL     1       7.188   5.723  15.953  0.00  0.00    +0.000 OA
ENDBRANCH   1  17
TORSDOF 3
ENDMDL
MODEL 9
REMARK VINA RESULT:      -6.3      2.531      3.598
REMARK  Name = 
REMARK  4 active torsions:
REMARK  status: ('A' for Active; 'I' for Inactive)
REMARK    1  A    between atoms: C_1  and  O_2
REMARK    2  A    between atoms: O_2  and  C_3
REMARK    3  A    between atoms: N_11  and  S_12
REMARK    4  A    between atoms: S_12  and  C_15
REMARK                            x       y       z     vdW  Elec       q    Type
REMARK                         _______ _______ _______ _____ _____    ______ ____
ROOT
ATOM      1  C   UNL     1       4.031   4.432  19.759  0.00  0.00    +0.000 C 
ATOM      2  C   UNL     1       2.898   4.843  18.797  0.00  0.00    +0.000 C 
ATOM      3  C   UNL     1       3.543   5.485  17.561  0.00  0.00    +0.000 C 
ATOM      4  C   UNL     1       4.941   5.820  18.018  0.00  0.00    +0.000 C 
ATOM      5  C   UNL     1       5.332   4.742  19.015  0.00  0.00    +0.000 C 
ATOM      6  O   UNL     1       6.355   5.298  19.862  0.00  0.00    +0.000 OA
ATOM      7  C   UNL     1       7.522   5.638  19.082  0.00  0.00    +0.000 C 
ATOM      8  C   UNL     1       7.238   6.503  17.819  0.00  0.00    +0.000 C 
ATOM      9  N   UNL     1       6.047   5.994  17.009  0.00  0.00    +0.000 NA
ENDROOT
BRANCH   9  10
ATOM     10  S   UNL     1       6.443   4.645  16.002  0.00  0.00    +0.000 S 
ATOM     11  O   UNL     1       7.882   4.495  16.000  0.00  0.00    +0.000 OA
ATOM     12  O   UNL     1       5.600   3.530  16.352  0.00  0.00    +0.000 OA
BRANCH  10  13
ATOM     13  C   UNL     1       6.023   4.992  14.272  0.00  0.00    +0.000 C 
ATOM     14  C   UNL     1       7.014   4.426  13.285  0.00  0.00    +0.000 C 
ATOM     15  C   UNL     1       5.630   3.846  13.387  0.00  0.00    +0.000 C 
ENDBRANCH  10  13
ENDBRANCH   9  10
BRANCH   1  17
ATOM     16  C   UNL     1       2.624   2.505  19.649  0.00  0.00    +0.000 C 
ATOM     17  O   UNL     1       3.876   3.040  20.061  0.00  0.00    +0.000 OA
ENDBRANCH   1  17
TORSDOF 3
ENDMDL
