MODEL 1
REMARK VINA RESULT:      -8.4      0.000      0.000
REMARK  Name = 
REMARK  4 active torsions:
REMARK  status: ('A' for Active; 'I' for Inactive)
REMARK    1  A    between atoms: S_2  and  N_4
REMARK    2  A    between atoms: S_2  and  C_25
REMARK    3  A    between atoms: N_4  and  C_5
REMARK    4  A    between atoms: C_14  and  N_15
REMARK                            x       y       z     vdW  Elec       q    Type
REMARK                         _______ _______ _______ _____ _____    ______ ____
ROOT
ATOM      1  C   UNL     1      -0.320  10.768  19.373  0.00  0.00    +0.000 A 
ATOM      2  N   UNL     1      -0.572  10.138  18.215  0.00  0.00    +0.000 NA
ATOM      3  C   UNL     1      -1.734  10.445  17.622  0.00  0.00    +0.000 A 
ATOM      4  C   UNL     1      -2.071   9.795  16.443  0.00  0.00    +0.000 A 
ATOM      5  C   UNL     1      -3.279  10.037  15.797  0.00  0.00    +0.000 A 
ATOM      6  C   UNL     1      -4.170  10.955  16.342  0.00  0.00    +0.000 A 
ATOM      7  C   UNL     1      -3.832  11.628  17.522  0.00  0.00    +0.000 A 
ATOM      8  C   UNL     1      -2.628  11.396  18.181  0.00  0.00    +0.000 A 
ATOM      9  N   UNL     1      -2.338  12.047  19.334  0.00  0.00    +0.000 NA
ATOM     10  C   UNL     1      -1.175  11.741  19.960  0.00  0.00    +0.000 A 
ENDROOT
BRANCH  10  11
ATOM     11  N   UNL     1      -0.839  12.358  21.190  0.00  0.00    +0.000 N 
ATOM     12  C   UNL     1      -0.386  13.752  21.049  0.00  0.00    +0.000 C 
ATOM     13  C   UNL     1       0.055  14.285  22.419  0.00  0.00    +0.000 C 
ATOM     14  C   UNL     1      -1.141  14.293  23.333  0.00  0.00    +0.000 A 
ATOM     15  C   UNL     1      -1.339  15.296  24.287  0.00  0.00    +0.000 A 
ATOM     16  C   UNL     1      -2.481  15.282  25.090  0.00  0.00    +0.000 A 
ATOM     17  C   UNL     1      -3.418  14.258  24.956  0.00  0.00    +0.000 A 
ATOM     18  C   UNL     1      -3.211  13.241  24.028  0.00  0.00    +0.000 A 
ATOM     19  C   UNL     1      -2.074  13.251  23.206  0.00  0.00    +0.000 A 
ATOM     20  C   UNL     1      -1.824  12.097  22.261  0.00  0.00    +0.000 C 
ENDBRANCH  10  11
BRANCH   1  21
ATOM     21  N   UNL     1       0.941  10.426  19.927  0.00  0.00    +0.000 N 
ATOM     22  H   UNL     1       1.592  10.096  19.226  0.00  0.00    +0.000 HD
BRANCH  21  24
ATOM     23  O   UNL     1       1.671   9.480  22.235  0.00  0.00    +0.000 OA
ATOM     24  S   UNL     1       0.872   9.191  21.067  0.00  0.00    +0.000 S 
ATOM     25  O   UNL     1      -0.530   8.840  21.174  0.00  0.00    +0.000 OA
BRANCH  24  26
ATOM     26  C   UNL     1       1.663   7.882  20.157  0.00  0.00    +0.000 A 
ATOM     27  C   UNL     1       1.693   6.591  20.692  0.00  0.00    +0.000 A 
ATOM     28  C   UNL     1       2.274   5.557  19.953  0.00  0.00    +0.000 A 
ATOM     29  C   UNL     1       2.815   5.820  18.693  0.00  0.00    +0.000 A 
ATOM     30 CL   UNL     1       3.513   4.540  17.779  0.00  0.00    +0.000 Cl
ATOM     31  C   UNL     1       2.789   7.111  18.164  0.00  0.00    +0.000 A 
ATOM     32  C   UNL     1       2.207   8.149  18.895  0.00  0.00    +0.000 A 
ENDBRANCH  24  26
ENDBRANCH  21  24
ENDBRANCH   1  21
TORSDOF 4
ENDMDL
MODEL 2
REMARK VINA RESULT:      -7.8      4.216      7.200
REMARK  Name = 
REMARK  4 active torsions:
REMARK  status: ('A' for Active; 'I' for Inactive)
REMARK    1  A    between atoms: S_2  and  N_4
REMARK    2  A    between atoms: S_2  and  C_25
REMARK    3  A    between atoms: N_4  and  C_5
REMARK    4  A    between atoms: C_14  and  N_15
REMARK                            x       y       z     vdW  Elec       q    Type
REMARK                         _______ _______ _______ _____ _____    ______ ____
ROOT
ATOM      1  C   UNL     1       3.368   5.969  18.256  0.00  0.00    +0.000 A 
ATOM      2  N   UNL     1       3.542   4.638  18.218  0.00  0.00    +0.000 NA
ATOM      3  C   UNL     1       2.852   3.931  19.123  0.00  0.00    +0.000 A 
ATOM      4  C   UNL     1       3.021   2.554  19.162  0.00  0.00    +0.000 A 
ATOM      5  C   UNL     1       2.365   1.765  20.101  0.00  0.00    +0.000 A 
ATOM      6  C   UNL     1       1.516   2.369  21.022  0.00  0.00    +0.000 A 
ATOM      7  C   UNL     1       1.327   3.755  20.982  0.00  0.00    +0.000 A 
ATOM      8  C   UNL     1       1.976   4.559  20.048  0.00  0.00    +0.000 A 
ATOM      9  N   UNL     1       1.788   5.901  20.047  0.00  0.00    +0.000 NA
ATOM     10  C   UNL     1       2.489   6.639  19.150  0.00  0.00    +0.000 A 
ENDROOT
BRANCH  10  11
ATOM     11  N   UNL     1       2.366   8.050  19.132  0.00  0.00    +0.000 N 
ATOM     12  C   UNL     1       1.911   8.587  17.839  0.00  0.00    +0.000 C 
ATOM     13  C   UNL     1       1.920  10.121  17.893  0.00  0.00    +0.000 C 
ATOM     14  C   UNL     1       0.930  10.565  18.937  0.00  0.00    +0.000 A 
ATOM     15  C   UNL     1       0.154  11.718  18.781  0.00  0.00    +0.000 A 
ATOM     16  C   UNL     1      -0.776  12.072  19.759  0.00  0.00    +0.000 A 
ATOM     17  C   UNL     1      -0.923  11.288  20.903  0.00  0.00    +0.000 A 
ATOM     18  C   UNL     1      -0.134  10.154  21.077  0.00  0.00    +0.000 A 
ATOM     19  C   UNL     1       0.796   9.780  20.094  0.00  0.00    +0.000 A 
ATOM     20  C   UNL     1       1.702   8.593  20.335  0.00  0.00    +0.000 C 
ENDBRANCH  10  11
BRANCH   1  21
ATOM     21  N   UNL     1       4.098   6.652  17.249  0.00  0.00    +0.000 N 
ATOM     22  H   UNL     1       3.840   6.353  16.317  0.00  0.00    +0.000 HD
BRANCH  21  24
ATOM     23  O   UNL     1       6.497   7.651  17.196  0.00  0.00    +0.000 OA
ATOM     24  S   UNL     1       5.761   6.416  17.333  0.00  0.00    +0.000 S 
ATOM     25  O   UNL     1       5.970   5.528  18.459  0.00  0.00    +0.000 OA
BRANCH  24  26
ATOM     26  C   UNL     1       6.013   5.448  15.860  0.00  0.00    +0.000 A 
ATOM     27  C   UNL     1       4.956   4.695  15.341  0.00  0.00    +0.000 A 
ATOM     28  C   UNL     1       5.145   3.974  14.159  0.00  0.00    +0.000 A 
ATOM     29  C   UNL     1       6.380   4.013  13.509  0.00  0.00    +0.000 A 
ATOM     30 CL   UNL     1       6.602   3.139  12.044  0.00  0.00    +0.000 Cl
ATOM     31  C   UNL     1       7.435   4.761  14.033  0.00  0.00    +0.000 A 
ATOM     32  C   UNL     1       7.253   5.487  15.211  0.00  0.00    +0.000 A 
ENDBRANCH  24  26
ENDBRANCH  21  24
ENDBRANCH   1  21
TORSDOF 4
ENDMDL
MODEL 3
REMARK VINA RESULT:      -7.7      4.374      7.308
REMARK  Name = 
REMARK  4 active torsions:
REMARK  status: ('A' for Active; 'I' for Inactive)
REMARK    1  A    between atoms: S_2  and  N_4
REMARK    2  A    between atoms: S_2  and  C_25
REMARK    3  A    between atoms: N_4  and  C_5
REMARK    4  A    between atoms: C_14  and  N_15
REMARK                            x       y       z     vdW  Elec       q    Type
REMARK                         _______ _______ _______ _____ _____    ______ ____
ROOT
ATOM      1  C   UNL     1       3.480   5.941  17.868  0.00  0.00    +0.000 A 
ATOM      2  N   UNL     1       3.650   4.623  17.678  0.00  0.00    +0.000 NA
ATOM      3  C   UNL     1       2.872   3.819  18.416  0.00  0.00    +0.000 A 
ATOM      4  C   UNL     1       3.030   2.446  18.296  0.00  0.00    +0.000 A 
ATOM      5  C   UNL     1       2.282   1.556  19.061  0.00  0.00    +0.000 A 
ATOM      6  C   UNL     1       1.351   2.053  19.965  0.00  0.00    +0.000 A 
ATOM      7  C   UNL     1       1.173   3.436  20.084  0.00  0.00    +0.000 A 
ATOM      8  C   UNL     1       1.914   4.340  19.326  0.00  0.00    +0.000 A 
ATOM      9  N   UNL     1       1.734   5.675  19.477  0.00  0.00    +0.000 NA
ATOM     10  C   UNL     1       2.522   6.507  18.752  0.00  0.00    +0.000 A 
ENDROOT
BRANCH  10  11
ATOM     11  N   UNL     1       2.408   7.911  18.901  0.00  0.00    +0.000 N 
ATOM     12  C   UNL     1       1.873   8.591  17.710  0.00  0.00    +0.000 C 
ATOM     13  C   UNL     1       1.896  10.109  17.936  0.00  0.00    +0.000 C 
ATOM     14  C   UNL     1       0.980  10.432  19.087  0.00  0.00    +0.000 A 
ATOM     15  C   UNL     1       0.205  11.596  19.114  0.00  0.00    +0.000 A 
ATOM     16  C   UNL     1      -0.657  11.836  20.185  0.00  0.00    +0.000 A 
ATOM     17  C   UNL     1      -0.735  10.927  21.240  0.00  0.00    +0.000 A 
ATOM     18  C   UNL     1       0.057   9.781  21.232  0.00  0.00    +0.000 A 
ATOM     19  C   UNL     1       0.917   9.521  20.154  0.00  0.00    +0.000 A 
ATOM     20  C   UNL     1       1.828   8.314  20.199  0.00  0.00    +0.000 C 
ENDBRANCH  10  11
BRANCH   1  21
ATOM     21  N   UNL     1       4.307   6.732  17.030  0.00  0.00    +0.000 N 
ATOM     22  H   UNL     1       4.075   6.627  16.051  0.00  0.00    +0.000 HD
BRANCH  21  24
ATOM     23  O   UNL     1       6.782   7.525  17.079  0.00  0.00    +0.000 OA
ATOM     24  S   UNL     1       5.942   6.351  17.129  0.00  0.00    +0.000 S 
ATOM     25  O   UNL     1       6.051   5.384  18.204  0.00  0.00    +0.000 OA
BRANCH  24  26
ATOM     26  C   UNL     1       6.145   5.452  15.605  0.00  0.00    +0.000 A 
ATOM     27  C   UNL     1       7.375   5.489  14.943  0.00  0.00    +0.000 A 
ATOM     28  C   UNL     1       7.545   4.745  13.772  0.00  0.00    +0.000 A 
ATOM     29  C   UNL     1       6.490   3.975  13.278  0.00  0.00    +0.000 A 
ATOM     30 CL   UNL     1       6.709   3.047  11.846  0.00  0.00    +0.000 Cl
ATOM     31  C   UNL     1       5.261   3.946  13.938  0.00  0.00    +0.000 A 
ATOM     32  C   UNL     1       5.086   4.683  15.110  0.00  0.00    +0.000 A 
ENDBRANCH  24  26
ENDBRANCH  21  24
ENDBRANCH   1  21
TORSDOF 4
ENDMDL
MODEL 4
REMARK VINA RESULT:      -7.7      2.687      5.418
REMARK  Name = 
REMARK  4 active torsions:
REMARK  status: ('A' for Active; 'I' for Inactive)
REMARK    1  A    between atoms: S_2  and  N_4
REMARK    2  A    between atoms: S_2  and  C_25
REMARK    3  A    between atoms: N_4  and  C_5
REMARK    4  A    between atoms: C_14  and  N_15
REMARK                            x       y       z     vdW  Elec       q    Type
REMARK                         _______ _______ _______ _____ _____    ______ ____
ROOT
ATOM      1  C   UNL     1      -0.600  11.556  21.334  0.00  0.00    +0.000 A 
ATOM      2  N   UNL     1      -1.698  11.451  22.100  0.00  0.00    +0.000 NA
ATOM      3  C   UNL     1      -2.017  12.537  22.818  0.00  0.00    +0.000 A 
ATOM      4  C   UNL     1      -3.117  12.477  23.661  0.00  0.00    +0.000 A 
ATOM      5  C   UNL     1      -3.480  13.555  24.463  0.00  0.00    +0.000 A 
ATOM      6  C   UNL     1      -2.726  14.721  24.417  0.00  0.00    +0.000 A 
ATOM      7  C   UNL     1      -1.623  14.797  23.558  0.00  0.00    +0.000 A 
ATOM      8  C   UNL     1      -1.246  13.728  22.750  0.00  0.00    +0.000 A 
ATOM      9  N   UNL     1      -0.161  13.824  21.944  0.00  0.00    +0.000 NA
ATOM     10  C   UNL     1       0.190  12.732  21.220  0.00  0.00    +0.000 A 
ENDROOT
BRANCH  10  11
ATOM     11  N   UNL     1       1.340  12.761  20.393  0.00  0.00    +0.000 N 
ATOM     12  C   UNL     1       1.052  13.106  18.991  0.00  0.00    +0.000 C 
ATOM     13  C   UNL     1       2.342  12.999  18.165  0.00  0.00    +0.000 C 
ATOM     14  C   UNL     1       3.325  14.015  18.686  0.00  0.00    +0.000 A 
ATOM     15  C   UNL     1       4.200  14.702  17.838  0.00  0.00    +0.000 A 
ATOM     16  C   UNL     1       5.069  15.661  18.360  0.00  0.00    +0.000 A 
ATOM     17  C   UNL     1       5.082  15.923  19.730  0.00  0.00    +0.000 A 
ATOM     18  C   UNL     1       4.233  15.221  20.582  0.00  0.00    +0.000 A 
ATOM     19  C   UNL     1       3.345  14.264  20.068  0.00  0.00    +0.000 A 
ATOM     20  C   UNL     1       2.487  13.454  21.015  0.00  0.00    +0.000 C 
ENDBRANCH  10  11
BRANCH   1  21
ATOM     21  N   UNL     1      -0.341  10.386  20.574  0.00  0.00    +0.000 N 
ATOM     22  H   UNL     1      -1.187   9.978  20.197  0.00  0.00    +0.000 HD
BRANCH  21  24
ATOM     23  O   UNL     1       1.268   9.649  22.477  0.00  0.00    +0.000 OA
ATOM     24  S   UNL     1       0.381   9.147  21.453  0.00  0.00    +0.000 S 
ATOM     25  O   UNL     1      -0.686   8.217  21.761  0.00  0.00    +0.000 OA
BRANCH  24  26
ATOM     26  C   UNL     1       1.369   8.395  20.177  0.00  0.00    +0.000 A 
ATOM     27  C   UNL     1       1.597   9.087  18.984  0.00  0.00    +0.000 A 
ATOM     28  C   UNL     1       2.411   8.513  18.004  0.00  0.00    +0.000 A 
ATOM     29  C   UNL     1       2.987   7.261  18.224  0.00  0.00    +0.000 A 
ATOM     30 CL   UNL     1       4.003   6.565  17.022  0.00  0.00    +0.000 Cl
ATOM     31  C   UNL     1       2.753   6.569  19.413  0.00  0.00    +0.000 A 
ATOM     32  C   UNL     1       1.944   7.138  20.398  0.00  0.00    +0.000 A 
ENDBRANCH  24  26
ENDBRANCH  21  24
ENDBRANCH   1  21
TORSDOF 4
ENDMDL
MODEL 5
REMARK VINA RESULT:      -7.6      4.176      6.928
REMARK  Name = 
REMARK  4 active torsions:
REMARK  status: ('A' for Active; 'I' for Inactive)
REMARK    1  A    between atoms: S_2  and  N_4
REMARK    2  A    between atoms: S_2  and  C_25
REMARK    3  A    between atoms: N_4  and  C_5
REMARK    4  A    between atoms: C_14  and  N_15
REMARK                            x       y       z     vdW  Elec       q    Type
REMARK                         _______ _______ _______ _____ _____    ______ ____
ROOT
ATOM      1  C   UNL     1       3.430   6.222  18.209  0.00  0.00    +0.000 A 
ATOM      2  N   UNL     1       3.676   4.968  17.797  0.00  0.00    +0.000 NA
ATOM      3  C   UNL     1       2.890   4.016  18.318  0.00  0.00    +0.000 A 
ATOM      4  C   UNL     1       3.122   2.694  17.963  0.00  0.00    +0.000 A 
ATOM      5  C   UNL     1       2.369   1.653  18.497  0.00  0.00    +0.000 A 
ATOM      6  C   UNL     1       1.356   1.942  19.405  0.00  0.00    +0.000 A 
ATOM      7  C   UNL     1       1.104   3.273  19.758  0.00  0.00    +0.000 A 
ATOM      8  C   UNL     1       1.849   4.326  19.233  0.00  0.00    +0.000 A 
ATOM      9  N   UNL     1       1.595   5.603  19.609  0.00  0.00    +0.000 NA
ATOM     10  C   UNL     1       2.388   6.582  19.107  0.00  0.00    +0.000 A 
ENDROOT
BRANCH  10  11
ATOM     11  N   UNL     1       2.197   7.930  19.498  0.00  0.00    +0.000 N 
ATOM     12  C   UNL     1       1.412   8.720  18.535  0.00  0.00    +0.000 C 
ATOM     13  C   UNL     1       1.361  10.183  18.998  0.00  0.00    +0.000 C 
ATOM     14  C   UNL     1       0.638  10.237  20.318  0.00  0.00    +0.000 A 
ATOM     15  C   UNL     1      -0.206  11.300  20.658  0.00  0.00    +0.000 A 
ATOM     16  C   UNL     1      -0.883  11.292  21.878  0.00  0.00    +0.000 A 
ATOM     17  C   UNL     1      -0.707  10.234  22.770  0.00  0.00    +0.000 A 
ATOM     18  C   UNL     1       0.155   9.188  22.449  0.00  0.00    +0.000 A 
ATOM     19  C   UNL     1       0.831   9.178  21.219  0.00  0.00    +0.000 A 
ATOM     20  C   UNL     1       1.824   8.077  20.920  0.00  0.00    +0.000 C 
ENDBRANCH  10  11
BRANCH   1  21
ATOM     21  N   UNL     1       4.271   7.183  17.592  0.00  0.00    +0.000 N 
ATOM     22  H   UNL     1       4.043   7.324  16.616  0.00  0.00    +0.000 HD
BRANCH  21  24
ATOM     23  O   UNL     1       6.757   7.899  17.337  0.00  0.00    +0.000 OA
ATOM     24  S   UNL     1       5.901   6.765  17.597  0.00  0.00    +0.000 S 
ATOM     25  O   UNL     1       6.083   5.929  18.766  0.00  0.00    +0.000 OA
BRANCH  24  26
ATOM     26  C   UNL     1       5.952   5.689  16.180  0.00  0.00    +0.000 A 
ATOM     27  C   UNL     1       5.295   6.065  15.005  0.00  0.00    +0.000 A 
ATOM     28  C   UNL     1       5.376   5.240  13.881  0.00  0.00    +0.000 A 
ATOM     29  C   UNL     1       6.109   4.053  13.940  0.00  0.00    +0.000 A 
ATOM     30 CL   UNL     1       6.221   3.048  12.548  0.00  0.00    +0.000 Cl
ATOM     31  C   UNL     1       6.759   3.677  15.116  0.00  0.00    +0.000 A 
ATOM     32  C   UNL     1       6.686   4.499  16.242  0.00  0.00    +0.000 A 
ENDBRANCH  24  26
ENDBRANCH  21  24
ENDBRANCH   1  21
TORSDOF 4
ENDMDL
MODEL 6
REMARK VINA RESULT:      -7.6      2.289      3.704
REMARK  Name = 
REMARK  4 active torsions:
REMARK  status: ('A' for Active; 'I' for Inactive)
REMARK    1  A    between atoms: S_2  and  N_4
REMARK    2  A    between atoms: S_2  and  C_25
REMARK    3  A    between atoms: N_4  and  C_5
REMARK    4  A    between atoms: C_14  and  N_15
REMARK                            x       y       z     vdW  Elec       q    Type
REMARK                         _______ _______ _______ _____ _____    ______ ____
ROOT
ATOM      1  C   UNL     1       0.126  11.721  19.677  0.00  0.00    +0.000 A 
ATOM      2  N   UNL     1       1.178  12.024  18.899  0.00  0.00    +0.000 NA
ATOM      3  C   UNL     1       1.560  13.308  18.906  0.00  0.00    +0.000 A 
ATOM      4  C   UNL     1       2.615  13.692  18.090  0.00  0.00    +0.000 A 
ATOM      5  C   UNL     1       3.037  15.017  18.019  0.00  0.00    +0.000 A 
ATOM      6  C   UNL     1       2.390  15.978  18.786  0.00  0.00    +0.000 A 
ATOM      7  C   UNL     1       1.335  15.598  19.625  0.00  0.00    +0.000 A 
ATOM      8  C   UNL     1       0.901  14.278  19.707  0.00  0.00    +0.000 A 
ATOM      9  N   UNL     1      -0.137  13.944  20.512  0.00  0.00    +0.000 NA
ATOM     10  C   UNL     1      -0.552  12.653  20.509  0.00  0.00    +0.000 A 
ENDROOT
BRANCH  10  11
ATOM     11  N   UNL     1      -1.659  12.255  21.298  0.00  0.00    +0.000 N 
ATOM     12  C   UNL     1      -1.453  12.442  22.744  0.00  0.00    +0.000 C 
ATOM     13  C   UNL     1      -2.660  11.879  23.507  0.00  0.00    +0.000 C 
ATOM     14  C   UNL     1      -3.879  12.673  23.120  0.00  0.00    +0.000 A 
ATOM     15  C   UNL     1      -4.892  12.972  24.038  0.00  0.00    +0.000 A 
ATOM     16  C   UNL     1      -5.988  13.741  23.644  0.00  0.00    +0.000 A 
ATOM     17  C   UNL     1      -6.085  14.200  22.331  0.00  0.00    +0.000 A 
ATOM     18  C   UNL     1      -5.094  13.882  21.406  0.00  0.00    +0.000 A 
ATOM     19  C   UNL     1      -3.981  13.120  21.793  0.00  0.00    +0.000 A 
ATOM     20  C   UNL     1      -2.955  12.715  20.758  0.00  0.00    +0.000 C 
ENDBRANCH  10  11
BRANCH   1  21
ATOM     21  N   UNL     1      -0.201  10.340  19.653  0.00  0.00    +0.000 N 
ATOM     22  H   UNL     1      -1.190  10.177  19.791  0.00  0.00    +0.000 HD
BRANCH  21  24
ATOM     23  O   UNL     1       1.460  10.237  21.650  0.00  0.00    +0.000 OA
ATOM     24  S   UNL     1       0.557   9.438  20.854  0.00  0.00    +0.000 S 
ATOM     25  O   UNL     1      -0.492   8.644  21.462  0.00  0.00    +0.000 OA
BRANCH  24  26
ATOM     26  C   UNL     1       1.525   8.333  19.849  0.00  0.00    +0.000 A 
ATOM     27  C   UNL     1       1.909   8.728  18.565  0.00  0.00    +0.000 A 
ATOM     28  C   UNL     1       2.709   7.876  17.797  0.00  0.00    +0.000 A 
ATOM     29  C   UNL     1       3.114   6.645  18.317  0.00  0.00    +0.000 A 
ATOM     30 CL   UNL     1       4.112   5.608  17.375  0.00  0.00    +0.000 Cl
ATOM     31  C   UNL     1       2.723   6.251  19.597  0.00  0.00    +0.000 A 
ATOM     32  C   UNL     1       1.928   7.098  20.371  0.00  0.00    +0.000 A 
ENDBRANCH  24  26
ENDBRANCH  21  24
ENDBRANCH   1  21
TORSDOF 4
ENDMDL
MODEL 7
REMARK VINA RESULT:      -7.6      2.382      4.520
REMARK  Name = 
REMARK  4 active torsions:
REMARK  status: ('A' for Active; 'I' for Inactive)
REMARK    1  A    between atoms: S_2  and  N_4
REMARK    2  A    between atoms: S_2  and  C_25
REMARK    3  A    between atoms: N_4  and  C_5
REMARK    4  A    between atoms: C_14  and  N_15
REMARK                            x       y       z     vdW  Elec       q    Type
REMARK                         _______ _______ _______ _____ _____    ______ ____
ROOT
ATOM      1  C   UNL     1      -0.198  11.793  19.176  0.00  0.00    +0.000 A 
ATOM      2  N   UNL     1       1.045  12.121  18.789  0.00  0.00    +0.000 NA
ATOM      3  C   UNL     1       1.304  13.434  18.704  0.00  0.00    +0.000 A 
ATOM      4  C   UNL     1       2.559  13.837  18.269  0.00  0.00    +0.000 A 
ATOM      5  C   UNL     1       2.881  15.182  18.121  0.00  0.00    +0.000 A 
ATOM      6  C   UNL     1       1.926  16.147  18.418  0.00  0.00    +0.000 A 
ATOM      7  C   UNL     1       0.662  15.751  18.872  0.00  0.00    +0.000 A 
ATOM      8  C   UNL     1       0.324  14.410  19.026  0.00  0.00    +0.000 A 
ATOM      9  N   UNL     1      -0.914  14.056  19.448  0.00  0.00    +0.000 NA
ATOM     10  C   UNL     1      -1.205  12.734  19.527  0.00  0.00    +0.000 A 
ENDROOT
BRANCH  10  11
ATOM     11  N   UNL     1      -2.496  12.306  19.921  0.00  0.00    +0.000 N 
ATOM     12  C   UNL     1      -3.169  13.231  20.847  0.00  0.00    +0.000 C 
ATOM     13  C   UNL     1      -4.505  12.622  21.295  0.00  0.00    +0.000 C 
ATOM     14  C   UNL     1      -5.389  12.476  20.085  0.00  0.00    +0.000 A 
ATOM     15  C   UNL     1      -6.772  12.676  20.149  0.00  0.00    +0.000 A 
ATOM     16  C   UNL     1      -7.548  12.564  18.994  0.00  0.00    +0.000 A 
ATOM     17  C   UNL     1      -6.951  12.237  17.777  0.00  0.00    +0.000 A 
ATOM     18  C   UNL     1      -5.579  12.008  17.714  0.00  0.00    +0.000 A 
ATOM     19  C   UNL     1      -4.786  12.130  18.865  0.00  0.00    +0.000 A 
ATOM     20  C   UNL     1      -3.311  11.801  18.796  0.00  0.00    +0.000 C 
ENDBRANCH  10  11
BRANCH   1  21
ATOM     21  N   UNL     1      -0.393  10.392  19.282  0.00  0.00    +0.000 N 
ATOM     22  H   UNL     1      -1.366  10.147  19.414  0.00  0.00    +0.000 HD
BRANCH  21  24
ATOM     23  O   UNL     1       1.231  10.636  21.297  0.00  0.00    +0.000 OA
ATOM     24  S   UNL     1       0.408   9.688  20.583  0.00  0.00    +0.000 S 
ATOM     25  O   UNL     1      -0.589   8.885  21.263  0.00  0.00    +0.000 OA
BRANCH  24  26
ATOM     26  C   UNL     1       1.477   8.558  19.717  0.00  0.00    +0.000 A 
ATOM     27  C   UNL     1       1.855   7.360  20.330  0.00  0.00    +0.000 A 
ATOM     28  C   UNL     1       2.656   6.455  19.628  0.00  0.00    +0.000 A 
ATOM     29  C   UNL     1       3.069   6.754  18.328  0.00  0.00    +0.000 A 
ATOM     30 CL   UNL     1       4.041   5.629  17.462  0.00  0.00    +0.000 Cl
ATOM     31  C   UNL     1       2.696   7.954  17.722  0.00  0.00    +0.000 A 
ATOM     32  C   UNL     1       1.892   8.861  18.415  0.00  0.00    +0.000 A 
ENDBRANCH  24  26
ENDBRANCH  21  24
ENDBRANCH   1  21
TORSDOF 4
ENDMDL
MODEL 8
REMARK VINA RESULT:      -7.4      3.195      6.525
REMARK  Name = 
REMARK  4 active torsions:
REMARK  status: ('A' for Active; 'I' for Inactive)
REMARK    1  A    between atoms: S_2  and  N_4
REMARK    2  A    between atoms: S_2  and  C_25
REMARK    3  A    between atoms: N_4  and  C_5
REMARK    4  A    between atoms: C_14  and  N_15
REMARK                            x       y       z     vdW  Elec       q    Type
REMARK                         _______ _______ _______ _____ _____    ______ ____
ROOT
ATOM      1  C   UNL     1       1.352   9.297  20.354  0.00  0.00    +0.000 A 
ATOM      2  N   UNL     1       1.711   8.130  20.912  0.00  0.00    +0.000 NA
ATOM      3  C   UNL     1       2.031   7.147  20.059  0.00  0.00    +0.000 A 
ATOM      4  C   UNL     1       2.371   5.904  20.574  0.00  0.00    +0.000 A 
ATOM      5  C   UNL     1       2.676   4.830  19.743  0.00  0.00    +0.000 A 
ATOM      6  C   UNL     1       2.643   5.006  18.365  0.00  0.00    +0.000 A 
ATOM      7  C   UNL     1       2.317   6.260  17.836  0.00  0.00    +0.000 A 
ATOM      8  C   UNL     1       2.009   7.345  18.652  0.00  0.00    +0.000 A 
ATOM      9  N   UNL     1       1.677   8.542  18.111  0.00  0.00    +0.000 NA
ATOM     10  C   UNL     1       1.334   9.546  18.954  0.00  0.00    +0.000 A 
ENDROOT
BRANCH  10  11
ATOM     11  N   UNL     1       0.936  10.806  18.443  0.00  0.00    +0.000 N 
ATOM     12  C   UNL     1      -0.442  11.181  18.801  0.00  0.00    +0.000 C 
ATOM     13  C   UNL     1      -0.807  12.501  18.108  0.00  0.00    +0.000 C 
ATOM     14  C   UNL     1       0.103  13.580  18.634  0.00  0.00    +0.000 A 
ATOM     15  C   UNL     1      -0.341  14.892  18.834  0.00  0.00    +0.000 A 
ATOM     16  C   UNL     1       0.528  15.851  19.356  0.00  0.00    +0.000 A 
ATOM     17  C   UNL     1       1.845  15.510  19.663  0.00  0.00    +0.000 A 
ATOM     18  C   UNL     1       2.300  14.213  19.438  0.00  0.00    +0.000 A 
ATOM     19  C   UNL     1       1.433  13.236  18.926  0.00  0.00    +0.000 A 
ATOM     20  C   UNL     1       1.963  11.854  18.613  0.00  0.00    +0.000 C 
ENDBRANCH  10  11
BRANCH   1  21
ATOM     21  N   UNL     1       1.063  10.303  21.312  0.00  0.00    +0.000 N 
ATOM     22  H   UNL     1       1.876  10.560  21.857  0.00  0.00    +0.000 HD
BRANCH  21  24
ATOM     23  O   UNL     1      -1.005   8.857  21.935  0.00  0.00    +0.000 OA
ATOM     24  S   UNL     1      -0.092   9.851  22.448  0.00  0.00    +0.000 S 
ATOM     25  O   UNL     1       0.639   9.646  23.683  0.00  0.00    +0.000 OA
BRANCH  24  26
ATOM     26  C   UNL     1      -0.976  11.387  22.622  0.00  0.00    +0.000 A 
ATOM     27  C   UNL     1      -2.203  11.403  23.290  0.00  0.00    +0.000 A 
ATOM     28  C   UNL     1      -2.872  12.618  23.465  0.00  0.00    +0.000 A 
ATOM     29  C   UNL     1      -2.310  13.798  22.973  0.00  0.00    +0.000 A 
ATOM     30 CL   UNL     1      -3.128  15.294  23.206  0.00  0.00    +0.000 Cl
ATOM     31  C   UNL     1      -1.088  13.778  22.300  0.00  0.00    +0.000 A 
ATOM     32  C   UNL     1      -0.413  12.568  22.126  0.00  0.00    +0.000 A 
ENDBRANCH  24  26
ENDBRANCH  21  24
ENDBRANCH   1  21
TORSDOF 4
ENDMDL
MODEL 9
REMARK VINA RESULT:      -7.3      2.758      4.104
REMARK  Name = 
REMARK  4 active torsions:
REMARK  status: ('A' for Active; 'I' for Inactive)
REMARK    1  A    between atoms: S_2  and  N_4
REMARK    2  A    between atoms: S_2  and  C_25
REMARK    3  A    between atoms: N_4  and  C_5
REMARK    4  A    between atoms: C_14  and  N_15
REMARK                            x       y       z     vdW  Elec       q    Type
REMARK                         _______ _______ _______ _____ _____    ______ ____
ROOT
ATOM      1  C   UNL     1       1.359  12.571  19.528  0.00  0.00    +0.000 A 
ATOM      2  N   UNL     1       2.332  13.143  18.801  0.00  0.00    +0.000 NA
ATOM      3  C   UNL     1       2.194  14.456  18.569  0.00  0.00    +0.000 A 
ATOM      4  C   UNL     1       3.146  15.096  17.788  0.00  0.00    +0.000 A 
ATOM      5  C   UNL     1       3.042  16.448  17.476  0.00  0.00    +0.000 A 
ATOM      6  C   UNL     1       1.962  17.177  17.959  0.00  0.00    +0.000 A 
ATOM      7  C   UNL     1       1.004  16.544  18.760  0.00  0.00    +0.000 A 
ATOM      8  C   UNL     1       1.093  15.192  19.082  0.00  0.00    +0.000 A 
ATOM      9  N   UNL     1       0.140  14.601  19.843  0.00  0.00    +0.000 NA
ATOM     10  C   UNL     1       0.250  13.270  20.078  0.00  0.00    +0.000 A 
ENDROOT
BRANCH  10  11
ATOM     11  N   UNL     1      -0.740  12.591  20.830  0.00  0.00    +0.000 N 
ATOM     12  C   UNL     1      -0.435  12.506  22.268  0.00  0.00    +0.000 C 
ATOM     13  C   UNL     1      -1.509  11.660  22.967  0.00  0.00    +0.000 C 
ATOM     14  C   UNL     1      -2.832  12.364  22.829  0.00  0.00    +0.000 A 
ATOM     15  C   UNL     1      -3.791  12.348  23.848  0.00  0.00    +0.000 A 
ATOM     16  C   UNL     1      -4.990  13.044  23.691  0.00  0.00    +0.000 A 
ATOM     17  C   UNL     1      -5.244  13.744  22.512  0.00  0.00    +0.000 A 
ATOM     18  C   UNL     1      -4.306  13.740  21.483  0.00  0.00    +0.000 A 
ATOM     19  C   UNL     1      -3.091  13.054  21.634  0.00  0.00    +0.000 A 
ATOM     20  C   UNL     1      -2.117  12.993  20.477  0.00  0.00    +0.000 C 
ENDBRANCH  10  11
BRANCH   1  21
ATOM     21  N   UNL     1       1.586  11.191  19.768  0.00  0.00    +0.000 N 
ATOM     22  H   UNL     1       2.552  10.993  19.992  0.00  0.00    +0.000 HD
BRANCH  21  24
ATOM     23  O   UNL     1      -0.167  10.216  18.115  0.00  0.00    +0.000 OA
ATOM     24  S   UNL     1       1.237  10.203  18.452  0.00  0.00    +0.000 S 
ATOM     25  O   UNL     1       2.258  10.498  17.465  0.00  0.00    +0.000 OA
BRANCH  24  26
ATOM     26  C   UNL     1       1.633   8.611  19.143  0.00  0.00    +0.000 A 
ATOM     27  C   UNL     1       1.258   8.318  20.457  0.00  0.00    +0.000 A 
ATOM     28  C   UNL     1       1.529   7.051  20.980  0.00  0.00    +0.000 A 
ATOM     29  C   UNL     1       2.167   6.094  20.190  0.00  0.00    +0.000 A 
ATOM     30 CL   UNL     1       2.483   4.529  20.832  0.00  0.00    +0.000 Cl
ATOM     31  C   UNL     1       2.546   6.391  18.880  0.00  0.00    +0.000 A 
ATOM     32  C   UNL     1       2.275   7.653  18.349  0.00  0.00    +0.000 A 
ENDBRANCH  24  26
ENDBRANCH  21  24
ENDBRANCH   1  21
TORSDOF 4
ENDMDL
