MODEL 1
REMARK VINA RESULT:      -7.0      0.000      0.000
REMARK  Name = 
REMARK  7 active torsions:
REMARK  status: ('A' for Active; 'I' for Inactive)
REMARK    1  A    between atoms: C_1  and  N_2
REMARK    2  A    between atoms: C_9  and  C_10
REMARK    3  A    between atoms: C_10  and  P_11
REMARK    4  A    between atoms: P_11  and  O_13
REMARK    5  A    between atoms: P_11  and  O_14
REMARK    6  A    between atoms: C_17  and  C_18
REMARK    7  A    between atoms: C_18  and  O_20
REMARK                            x       y       z     vdW  Elec       q    Type
REMARK                         _______ _______ _______ _____ _____    ______ ____
ROOT
ATOM      1  C   UNL     1       0.675   2.025  18.660  0.00  0.00    +0.000 C 
ATOM      2  N   UNL     1       1.669   2.504  19.633  0.00  0.00    +0.000 NA
ATOM      3  C   UNL     1       3.024   2.100  19.210  0.00  0.00    +0.000 C 
ATOM      4  C   UNL     1       3.579   2.883  18.021  0.00  0.00    +0.000 C 
ATOM      5  C   UNL     1       3.607   4.403  18.292  0.00  0.00    +0.000 C 
ATOM      6  C   UNL     1       4.635   4.776  19.391  0.00  0.00    +0.000 C 
ATOM      7  C   UNL     1       6.082   4.520  18.979  0.00  0.00    +0.000 C 
ATOM      8  C   UNL     1       6.425   5.239  17.686  0.00  0.00    +0.000 C 
ATOM      9  C   UNL     1       5.433   4.910  16.563  0.00  0.00    +0.000 C 
ATOM     10  C   UNL     1       3.987   5.163  17.003  0.00  0.00    +0.000 C 
ATOM     11  C   UNL     1       2.176   4.833  18.697  0.00  0.00    +0.000 C 
ATOM     12  C   UNL     1       1.539   3.989  19.809  0.00  0.00    +0.000 C 
ENDROOT
BRANCH  12  13
ATOM     13  C   UNL     1       2.029   4.399  21.213  0.00  0.00    +0.000 C 
ATOM     14  O   UNL     1       2.287   3.631  22.123  0.00  0.00    +0.000 OA
BRANCH  13  15
ATOM     15  O   UNL     1       2.200   5.742  21.309  0.00  0.00    +0.000 OA
ATOM     16  H   UNL     1       1.681   6.144  20.572  0.00  0.00    +0.000 HD
ENDBRANCH  13  15
ENDBRANCH  12  13
BRANCH   9  17
ATOM     17  C   UNL     1       5.736   5.753  15.332  0.00  0.00    +0.000 C 
BRANCH  17  18
ATOM     18  P   UNL     1       6.294   4.732  13.919  0.00  0.00    +0.000 P 
ATOM     19  O   UNL     1       7.723   5.264  14.054  0.00  0.00    +0.000 OA
BRANCH  18  20
ATOM     20  O   UNL     1       6.272   3.390  14.851  0.00  0.00    +0.000 OA
ATOM     21  H   UNL     1       6.832   2.690  14.468  0.00  0.00    +0.000 HD
ENDBRANCH  18  20
BRANCH  18  22
ATOM     22  O   UNL     1       6.822   3.768  12.583  0.00  0.00    +0.000 OA
ATOM     23  H   UNL     1       6.824   2.851  12.924  0.00  0.00    +0.000 HD
ENDBRANCH  18  22
ENDBRANCH  17  18
ENDBRANCH   9  17
TORSDOF 6
ENDMDL
MODEL 2
REMARK VINA RESULT:      -6.7      3.421      6.264
REMARK  Name = 
REMARK  7 active torsions:
REMARK  status: ('A' for Active; 'I' for Inactive)
REMARK    1  A    between atoms: C_1  and  N_2
REMARK    2  A    between atoms: C_9  and  C_10
REMARK    3  A    between atoms: C_10  and  P_11
REMARK    4  A    between atoms: P_11  and  O_13
REMARK    5  A    between atoms: P_11  and  O_14
REMARK    6  A    between atoms: C_17  and  C_18
REMARK    7  A    between atoms: C_18  and  O_20
REMARK                            x       y       z     vdW  Elec       q    Type
REMARK                         _______ _______ _______ _____ _____    ______ ____
ROOT
ATOM      1  C   UNL     1       7.279   4.417  14.882  0.00  0.00    +0.000 C 
ATOM      2  N   UNL     1       7.004   5.680  15.585  0.00  0.00    +0.000 NA
ATOM      3  C   UNL     1       5.621   6.119  15.311  0.00  0.00    +0.000 C 
ATOM      4  C   UNL     1       4.543   5.305  16.025  0.00  0.00    +0.000 C 
ATOM      5  C   UNL     1       4.740   5.303  17.556  0.00  0.00    +0.000 C 
ATOM      6  C   UNL     1       4.499   6.705  18.173  0.00  0.00    +0.000 C 
ATOM      7  C   UNL     1       3.054   7.179  18.058  0.00  0.00    +0.000 C 
ATOM      8  C   UNL     1       2.092   6.175  18.671  0.00  0.00    +0.000 C 
ATOM      9  C   UNL     1       2.290   4.765  18.100  0.00  0.00    +0.000 C 
ATOM     10  C   UNL     1       3.751   4.316  18.214  0.00  0.00    +0.000 C 
ATOM     11  C   UNL     1       6.176   4.804  17.844  0.00  0.00    +0.000 C 
ATOM     12  C   UNL     1       7.278   5.521  17.052  0.00  0.00    +0.000 C 
ENDROOT
BRANCH  12  13
ATOM     13  C   UNL     1       7.657   6.882  17.669  0.00  0.00    +0.000 C 
ATOM     14  O   UNL     1       7.517   7.965  17.131  0.00  0.00    +0.000 OA
BRANCH  13  15
ATOM     15  O   UNL     1       8.125   6.742  18.935  0.00  0.00    +0.000 OA
ATOM     16  H   UNL     1       8.115   5.775  19.132  0.00  0.00    +0.000 HD
ENDBRANCH  13  15
ENDBRANCH  12  13
BRANCH   9  17
ATOM     17  C   UNL     1       1.402   3.772  18.836  0.00  0.00    +0.000 C 
BRANCH  17  18
ATOM     18  P   UNL     1       2.263   2.998  20.254  0.00  0.00    +0.000 P 
ATOM     19  O   UNL     1       1.017   3.138  21.132  0.00  0.00    +0.000 OA
BRANCH  18  20
ATOM     20  O   UNL     1       2.112   1.522  19.569  0.00  0.00    +0.000 OA
ATOM     21  H   UNL     1       1.396   1.516  18.907  0.00  0.00    +0.000 HD
ENDBRANCH  18  20
BRANCH  18  22
ATOM     22  O   UNL     1       3.076   2.267  21.595  0.00  0.00    +0.000 OA
ATOM     23  H   UNL     1       4.009   2.193  21.310  0.00  0.00    +0.000 HD
ENDBRANCH  18  22
ENDBRANCH  17  18
ENDBRANCH   9  17
TORSDOF 6
ENDMDL
MODEL 3
REMARK VINA RESULT:      -6.6      0.873      1.134
REMARK  Name = 
REMARK  7 active torsions:
REMARK  status: ('A' for Active; 'I' for Inactive)
REMARK    1  A    between atoms: C_1  and  N_2
REMARK    2  A    between atoms: C_9  and  C_10
REMARK    3  A    between atoms: C_10  and  P_11
REMARK    4  A    between atoms: P_11  and  O_13
REMARK    5  A    between atoms: P_11  and  O_14
REMARK    6  A    between atoms: C_17  and  C_18
REMARK    7  A    between atoms: C_18  and  O_20
REMARK                            x       y       z     vdW  Elec       q    Type
REMARK                         _______ _______ _______ _____ _____    ______ ____
ROOT
ATOM      1  C   UNL     1       0.740   2.133  18.575  0.00  0.00    +0.000 C 
ATOM      2  N   UNL     1       1.741   2.711  19.484  0.00  0.00    +0.000 NA
ATOM      3  C   UNL     1       3.080   2.179  19.162  0.00  0.00    +0.000 C 
ATOM      4  C   UNL     1       3.694   2.736  17.879  0.00  0.00    +0.000 C 
ATOM      5  C   UNL     1       3.796   4.276  17.908  0.00  0.00    +0.000 C 
ATOM      6  C   UNL     1       4.825   4.769  18.958  0.00  0.00    +0.000 C 
ATOM      7  C   UNL     1       6.263   4.380  18.627  0.00  0.00    +0.000 C 
ATOM      8  C   UNL     1       6.664   4.868  17.245  0.00  0.00    +0.000 C 
ATOM      9  C   UNL     1       5.674   4.414  16.165  0.00  0.00    +0.000 C 
ATOM     10  C   UNL     1       4.236   4.803  16.525  0.00  0.00    +0.000 C 
ATOM     11  C   UNL     1       2.383   4.835  18.205  0.00  0.00    +0.000 C 
ATOM     12  C   UNL     1       1.686   4.210  19.421  0.00  0.00    +0.000 C 
ENDROOT
BRANCH  12  13
ATOM     13  C   UNL     1       2.174   4.813  20.754  0.00  0.00    +0.000 C 
ATOM     14  O   UNL     1       2.546   4.175  21.723  0.00  0.00    +0.000 OA
BRANCH  13  15
ATOM     15  O   UNL     1       2.198   6.169  20.709  0.00  0.00    +0.000 OA
ATOM     16  H   UNL     1       1.983   6.422  19.779  0.00  0.00    +0.000 HD
ENDBRANCH  13  15
ENDBRANCH  12  13
BRANCH   9  17
ATOM     17  C   UNL     1       6.040   5.035  14.825  0.00  0.00    +0.000 C 
BRANCH  17  18
ATOM     18  P   UNL     1       6.327   3.769  13.534  0.00  0.00    +0.000 P 
ATOM     19  O   UNL     1       4.935   4.006  12.943  0.00  0.00    +0.000 OA
BRANCH  18  20
ATOM     20  O   UNL     1       7.297   4.796  12.711  0.00  0.00    +0.000 OA
ATOM     21  H   UNL     1       6.806   5.241  11.996  0.00  0.00    +0.000 HD
ENDBRANCH  18  20
BRANCH  18  22
ATOM     22  O   UNL     1       6.597   2.572  12.314  0.00  0.00    +0.000 OA
ATOM     23  H   UNL     1       6.543   3.062  11.469  0.00  0.00    +0.000 HD
ENDBRANCH  18  22
ENDBRANCH  17  18
ENDBRANCH   9  17
TORSDOF 6
ENDMDL
MODEL 4
REMARK VINA RESULT:      -6.5      3.591      5.195
REMARK  Name = 
REMARK  7 active torsions:
REMARK  status: ('A' for Active; 'I' for Inactive)
REMARK    1  A    between atoms: C_1  and  N_2
REMARK    2  A    between atoms: C_9  and  C_10
REMARK    3  A    between atoms: C_10  and  P_11
REMARK    4  A    between atoms: P_11  and  O_13
REMARK    5  A    between atoms: P_11  and  O_14
REMARK    6  A    between atoms: C_17  and  C_18
REMARK    7  A    between atoms: C_18  and  O_20
REMARK                            x       y       z     vdW  Elec       q    Type
REMARK                         _______ _______ _______ _____ _____    ______ ____
ROOT
ATOM      1  C   UNL     1       0.473   2.136  19.128  0.00  0.00    +0.000 C 
ATOM      2  N   UNL     1       1.865   2.211  18.657  0.00  0.00    +0.000 NA
ATOM      3  C   UNL     1       1.948   3.086  17.470  0.00  0.00    +0.000 C 
ATOM      4  C   UNL     1       1.804   4.577  17.769  0.00  0.00    +0.000 C 
ATOM      5  C   UNL     1       2.856   5.067  18.787  0.00  0.00    +0.000 C 
ATOM      6  C   UNL     1       4.291   5.027  18.202  0.00  0.00    +0.000 C 
ATOM      7  C   UNL     1       4.506   6.009  17.054  0.00  0.00    +0.000 C 
ATOM      8  C   UNL     1       4.158   7.429  17.468  0.00  0.00    +0.000 C 
ATOM      9  C   UNL     1       2.747   7.526  18.062  0.00  0.00    +0.000 C 
ATOM     10  C   UNL     1       2.550   6.523  19.203  0.00  0.00    +0.000 C 
ATOM     11  C   UNL     1       2.740   4.176  20.047  0.00  0.00    +0.000 C 
ATOM     12  C   UNL     1       2.761   2.666  19.772  0.00  0.00    +0.000 C 
ENDROOT
BRANCH  12  13
ATOM     13  C   UNL     1       4.189   2.126  19.555  0.00  0.00    +0.000 C 
ATOM     14  O   UNL     1       5.185   2.507  20.144  0.00  0.00    +0.000 OA
BRANCH  13  15
ATOM     15  O   UNL     1       4.207   1.111  18.654  0.00  0.00    +0.000 OA
ATOM     16  H   UNL     1       3.414   0.555  18.843  0.00  0.00    +0.000 HD
ENDBRANCH  13  15
ENDBRANCH  12  13
BRANCH   9  17
ATOM     17  C   UNL     1       2.494   8.933  18.583  0.00  0.00    +0.000 C 
BRANCH  17  18
ATOM     18  P   UNL     1       0.867   9.582  18.054  0.00  0.00    +0.000 P 
ATOM     19  O   UNL     1       0.372   9.623  19.501  0.00  0.00    +0.000 OA
BRANCH  18  20
ATOM     20  O   UNL     1       1.513  11.063  17.805  0.00  0.00    +0.000 OA
ATOM     21  H   UNL     1       2.387  11.138  18.230  0.00  0.00    +0.000 HD
ENDBRANCH  18  20
BRANCH  18  22
ATOM     22  O   UNL     1      -0.672  10.195  17.553  0.00  0.00    +0.000 OA
ATOM     23  H   UNL     1      -0.693  10.055  16.586  0.00  0.00    +0.000 HD
ENDBRANCH  18  22
ENDBRANCH  17  18
ENDBRANCH   9  17
TORSDOF 6
ENDMDL
MODEL 5
REMARK VINA RESULT:      -6.4      1.215      1.673
REMARK  Name = 
REMARK  7 active torsions:
REMARK  status: ('A' for Active; 'I' for Inactive)
REMARK    1  A    between atoms: C_1  and  N_2
REMARK    2  A    between atoms: C_9  and  C_10
REMARK    3  A    between atoms: C_10  and  P_11
REMARK    4  A    between atoms: P_11  and  O_13
REMARK    5  A    between atoms: P_11  and  O_14
REMARK    6  A    between atoms: C_17  and  C_18
REMARK    7  A    between atoms: C_18  and  O_20
REMARK                            x       y       z     vdW  Elec       q    Type
REMARK                         _______ _______ _______ _____ _____    ______ ____
ROOT
ATOM      1  C   UNL     1       1.348   2.434  18.529  0.00  0.00    +0.000 C 
ATOM      2  N   UNL     1       2.217   3.296  19.346  0.00  0.00    +0.000 NA
ATOM      3  C   UNL     1       3.621   2.855  19.225  0.00  0.00    +0.000 C 
ATOM      4  C   UNL     1       4.279   3.192  17.889  0.00  0.00    +0.000 C 
ATOM      5  C   UNL     1       4.235   4.706  17.587  0.00  0.00    +0.000 C 
ATOM      6  C   UNL     1       5.128   5.517  18.562  0.00  0.00    +0.000 C 
ATOM      7  C   UNL     1       6.617   5.224  18.406  0.00  0.00    +0.000 C 
ATOM      8  C   UNL     1       7.079   5.450  16.977  0.00  0.00    +0.000 C 
ATOM      9  C   UNL     1       6.224   4.674  15.966  0.00  0.00    +0.000 C 
ATOM     10  C   UNL     1       4.732   4.973  16.150  0.00  0.00    +0.000 C 
ATOM     11  C   UNL     1       2.758   5.158  17.674  0.00  0.00    +0.000 C 
ATOM     12  C   UNL     1       2.028   4.732  18.955  0.00  0.00    +0.000 C 
ENDROOT
BRANCH  12  13
ATOM     13  C   UNL     1       2.350   5.652  20.150  0.00  0.00    +0.000 C 
ATOM     14  O   UNL     1       2.511   6.858  20.090  0.00  0.00    +0.000 OA
BRANCH  13  15
ATOM     15  O   UNL     1       2.379   4.960  21.317  0.00  0.00    +0.000 OA
ATOM     16  H   UNL     1       1.488   5.067  21.729  0.00  0.00    +0.000 HD
ENDBRANCH  13  15
ENDBRANCH  12  13
BRANCH   9  17
ATOM     17  C   UNL     1       6.636   5.034  14.546  0.00  0.00    +0.000 C 
BRANCH  17  18
ATOM     18  P   UNL     1       6.402   3.638  13.386  0.00  0.00    +0.000 P 
ATOM     19  O   UNL     1       4.964   4.072  13.097  0.00  0.00    +0.000 OA
BRANCH  18  20
ATOM     20  O   UNL     1       7.293   4.404  12.249  0.00  0.00    +0.000 OA
ATOM     21  H   UNL     1       6.769   4.560  11.442  0.00  0.00    +0.000 HD
ENDBRANCH  18  20
BRANCH  18  22
ATOM     22  O   UNL     1       6.181   2.318  12.289  0.00  0.00    +0.000 OA
ATOM     23  H   UNL     1       6.104   1.529  12.862  0.00  0.00    +0.000 HD
ENDBRANCH  18  22
ENDBRANCH  17  18
ENDBRANCH   9  17
TORSDOF 6
ENDMDL
MODEL 6
REMARK VINA RESULT:      -6.4      3.566      6.030
REMARK  Name = 
REMARK  7 active torsions:
REMARK  status: ('A' for Active; 'I' for Inactive)
REMARK    1  A    between atoms: C_1  and  N_2
REMARK    2  A    between atoms: C_9  and  C_10
REMARK    3  A    between atoms: C_10  and  P_11
REMARK    4  A    between atoms: P_11  and  O_13
REMARK    5  A    between atoms: P_11  and  O_14
REMARK    6  A    between atoms: C_17  and  C_18
REMARK    7  A    between atoms: C_18  and  O_20
REMARK                            x       y       z     vdW  Elec       q    Type
REMARK                         _______ _______ _______ _____ _____    ______ ____
ROOT
ATOM      1  C   UNL     1       7.036   4.561  14.992  0.00  0.00    +0.000 C 
ATOM      2  N   UNL     1       6.797   5.822  15.711  0.00  0.00    +0.000 NA
ATOM      3  C   UNL     1       5.358   6.153  15.681  0.00  0.00    +0.000 C 
ATOM      4  C   UNL     1       4.487   5.287  16.589  0.00  0.00    +0.000 C 
ATOM      5  C   UNL     1       4.951   5.344  18.061  0.00  0.00    +0.000 C 
ATOM      6  C   UNL     1       4.719   6.744  18.687  0.00  0.00    +0.000 C 
ATOM      7  C   UNL     1       3.244   7.111  18.824  0.00  0.00    +0.000 C 
ATOM      8  C   UNL     1       2.484   6.060  19.615  0.00  0.00    +0.000 C 
ATOM      9  C   UNL     1       2.683   4.651  19.042  0.00  0.00    +0.000 C 
ATOM     10  C   UNL     1       4.171   4.310  18.902  0.00  0.00    +0.000 C 
ATOM     11  C   UNL     1       6.449   4.956  18.096  0.00  0.00    +0.000 C 
ATOM     12  C   UNL     1       7.336   5.725  17.108  0.00  0.00    +0.000 C 
ENDROOT
BRANCH  12  13
ATOM     13  C   UNL     1       7.716   7.128  17.625  0.00  0.00    +0.000 C 
ATOM     14  O   UNL     1       7.505   8.176  17.043  0.00  0.00    +0.000 OA
BRANCH  13  15
ATOM     15  O   UNL     1       8.275   7.069  18.860  0.00  0.00    +0.000 OA
ATOM     16  H   UNL     1       7.832   6.325  19.333  0.00  0.00    +0.000 HD
ENDBRANCH  13  15
ENDBRANCH  12  13
BRANCH   9  17
ATOM     17  C   UNL     1       2.016   3.621  19.941  0.00  0.00    +0.000 C 
BRANCH  17  18
ATOM     18  P   UNL     1       1.016   2.419  18.989  0.00  0.00    +0.000 P 
ATOM     19  O   UNL     1       1.072   3.306  17.743  0.00  0.00    +0.000 OA
BRANCH  18  20
ATOM     20  O   UNL     1       2.308   1.429  18.839  0.00  0.00    +0.000 OA
ATOM     21  H   UNL     1       3.123   1.871  19.138  0.00  0.00    +0.000 HD
ENDBRANCH  18  20
BRANCH  18  22
ATOM     22  O   UNL     1       0.071   1.284  18.088  0.00  0.00    +0.000 OA
ATOM     23  H   UNL     1      -0.113   1.732  17.238  0.00  0.00    +0.000 HD
ENDBRANCH  18  22
ENDBRANCH  17  18
ENDBRANCH   9  17
TORSDOF 6
ENDMDL
MODEL 7
REMARK VINA RESULT:      -6.3      3.865      6.669
REMARK  Name = 
REMARK  7 active torsions:
REMARK  status: ('A' for Active; 'I' for Inactive)
REMARK    1  A    between atoms: C_1  and  N_2
REMARK    2  A    between atoms: C_9  and  C_10
REMARK    3  A    between atoms: C_10  and  P_11
REMARK    4  A    between atoms: P_11  and  O_13
REMARK    5  A    between atoms: P_11  and  O_14
REMARK    6  A    between atoms: C_17  and  C_18
REMARK    7  A    between atoms: C_18  and  O_20
REMARK                            x       y       z     vdW  Elec       q    Type
REMARK                         _______ _______ _______ _____ _____    ______ ____
ROOT
ATOM      1  C   UNL     1       6.147   4.565  16.854  0.00  0.00    +0.000 C 
ATOM      2  N   UNL     1       5.267   3.735  17.692  0.00  0.00    +0.000 NA
ATOM      3  C   UNL     1       5.244   4.260  19.072  0.00  0.00    +0.000 C 
ATOM      4  C   UNL     1       4.451   5.554  19.246  0.00  0.00    +0.000 C 
ATOM      5  C   UNL     1       2.988   5.403  18.777  0.00  0.00    +0.000 C 
ATOM      6  C   UNL     1       2.182   4.445  19.692  0.00  0.00    +0.000 C 
ATOM      7  C   UNL     1       1.988   4.978  21.108  0.00  0.00    +0.000 C 
ATOM      8  C   UNL     1       1.336   6.350  21.099  0.00  0.00    +0.000 C 
ATOM      9  C   UNL     1       2.090   7.340  20.201  0.00  0.00    +0.000 C 
ATOM     10  C   UNL     1       2.284   6.778  18.789  0.00  0.00    +0.000 C 
ATOM     11  C   UNL     1       3.013   4.892  17.316  0.00  0.00    +0.000 C 
ATOM     12  C   UNL     1       3.898   3.660  17.081  0.00  0.00    +0.000 C 
ENDROOT
BRANCH  12  13
ATOM     13  C   UNL     1       3.205   2.348  17.498  0.00  0.00    +0.000 C 
ATOM     14  O   UNL     1       2.011   2.123  17.414  0.00  0.00    +0.000 OA
BRANCH  13  15
ATOM     15  O   UNL     1       4.102   1.425  17.927  0.00  0.00    +0.000 OA
ATOM     16  H   UNL     1       4.548   1.814  18.717  0.00  0.00    +0.000 HD
ENDBRANCH  13  15
ENDBRANCH  12  13
BRANCH   9  17
ATOM     17  C   UNL     1       1.329   8.655  20.117  0.00  0.00    +0.000 C 
BRANCH  17  18
ATOM     18  P   UNL     1       0.335   8.973  21.620  0.00  0.00    +0.000 P 
ATOM     19  O   UNL     1       1.488   9.746  22.263  0.00  0.00    +0.000 OA
BRANCH  18  20
ATOM     20  O   UNL     1      -0.531  10.115  20.834  0.00  0.00    +0.000 OA
ATOM     21  H   UNL     1      -0.501   9.973  19.870  0.00  0.00    +0.000 HD
ENDBRANCH  18  20
BRANCH  18  22
ATOM     22  O   UNL     1      -0.605   9.273  23.042  0.00  0.00    +0.000 OA
ATOM     23  H   UNL     1      -1.489   8.909  22.837  0.00  0.00    +0.000 HD
ENDBRANCH  18  22
ENDBRANCH  17  18
ENDBRANCH   9  17
TORSDOF 6
ENDMDL
MODEL 8
REMARK VINA RESULT:      -6.2      3.692      5.406
REMARK  Name = 
REMARK  7 active torsions:
REMARK  status: ('A' for Active; 'I' for Inactive)
REMARK    1  A    between atoms: C_1  and  N_2
REMARK    2  A    between atoms: C_9  and  C_10
REMARK    3  A    between atoms: C_10  and  P_11
REMARK    4  A    between atoms: P_11  and  O_13
REMARK    5  A    between atoms: P_11  and  O_14
REMARK    6  A    between atoms: C_17  and  C_18
REMARK    7  A    between atoms: C_18  and  O_20
REMARK                            x       y       z     vdW  Elec       q    Type
REMARK                         _______ _______ _______ _____ _____    ______ ____
ROOT
ATOM      1  C   UNL     1       0.661   2.646  19.515  0.00  0.00    +0.000 C 
ATOM      2  N   UNL     1       2.014   2.718  18.941  0.00  0.00    +0.000 NA
ATOM      3  C   UNL     1       1.983   3.466  17.669  0.00  0.00    +0.000 C 
ATOM      4  C   UNL     1       1.798   4.975  17.824  0.00  0.00    +0.000 C 
ATOM      5  C   UNL     1       2.894   5.603  18.710  0.00  0.00    +0.000 C 
ATOM      6  C   UNL     1       4.288   5.551  18.033  0.00  0.00    +0.000 C 
ATOM      7  C   UNL     1       4.387   6.414  16.779  0.00  0.00    +0.000 C 
ATOM      8  C   UNL     1       4.010   7.857  17.070  0.00  0.00    +0.000 C 
ATOM      9  C   UNL     1       2.638   7.969  17.748  0.00  0.00    +0.000 C 
ATOM     10  C   UNL     1       2.559   7.083  18.997  0.00  0.00    +0.000 C 
ATOM     11  C   UNL     1       2.899   4.845  20.059  0.00  0.00    +0.000 C 
ATOM     12  C   UNL     1       2.963   3.316  19.938  0.00  0.00    +0.000 C 
ENDROOT
BRANCH  12  13
ATOM     13  C   UNL     1       4.394   2.805  19.678  0.00  0.00    +0.000 C 
ATOM     14  O   UNL     1       5.416   3.437  19.874  0.00  0.00    +0.000 OA
BRANCH  13  15
ATOM     15  O   UNL     1       4.393   1.517  19.250  0.00  0.00    +0.000 OA
ATOM     16  H   UNL     1       3.512   1.361  18.832  0.00  0.00    +0.000 HD
ENDBRANCH  13  15
ENDBRANCH  12  13
BRANCH   9  17
ATOM     17  C   UNL     1       2.364   9.413  18.140  0.00  0.00    +0.000 C 
BRANCH  17  18
ATOM     18  P   UNL     1       0.815   9.584  19.101  0.00  0.00    +0.000 P 
ATOM     19  O   UNL     1       1.237  10.967  19.602  0.00  0.00    +0.000 OA
BRANCH  18  20
ATOM     20  O   UNL     1      -0.026   9.888  17.733  0.00  0.00    +0.000 OA
ATOM     21  H   UNL     1       0.478   9.614  16.945  0.00  0.00    +0.000 HD
ENDBRANCH  18  20
BRANCH  18  22
ATOM     22  O   UNL     1      -0.648   9.746  20.010  0.00  0.00    +0.000 OA
ATOM     23  H   UNL     1      -0.480  10.489  20.622  0.00  0.00    +0.000 HD
ENDBRANCH  18  22
ENDBRANCH  17  18
ENDBRANCH   9  17
TORSDOF 6
ENDMDL
MODEL 9
REMARK VINA RESULT:      -6.1      1.763      2.659
REMARK  Name = 
REMARK  7 active torsions:
REMARK  status: ('A' for Active; 'I' for Inactive)
REMARK    1  A    between atoms: C_1  and  N_2
REMARK    2  A    between atoms: C_9  and  C_10
REMARK    3  A    between atoms: C_10  and  P_11
REMARK    4  A    between atoms: P_11  and  O_13
REMARK    5  A    between atoms: P_11  and  O_14
REMARK    6  A    between atoms: C_17  and  C_18
REMARK    7  A    between atoms: C_18  and  O_20
REMARK                            x       y       z     vdW  Elec       q    Type
REMARK                         _______ _______ _______ _____ _____    ______ ____
ROOT
ATOM      1  C   UNL     1       3.727   1.838  21.372  0.00  0.00    +0.000 C 
ATOM      2  N   UNL     1       2.623   2.671  20.871  0.00  0.00    +0.000 NA
ATOM      3  C   UNL     1       2.982   4.100  20.978  0.00  0.00    +0.000 C 
ATOM      4  C   UNL     1       4.013   4.574  19.955  0.00  0.00    +0.000 C 
ATOM      5  C   UNL     1       3.551   4.314  18.505  0.00  0.00    +0.000 C 
ATOM      6  C   UNL     1       2.334   5.194  18.118  0.00  0.00    +0.000 C 
ATOM      7  C   UNL     1       2.655   6.684  18.067  0.00  0.00    +0.000 C 
ATOM      8  C   UNL     1       3.815   6.969  17.128  0.00  0.00    +0.000 C 
ATOM      9  C   UNL     1       5.048   6.118  17.462  0.00  0.00    +0.000 C 
ATOM     10  C   UNL     1       4.699   4.627  17.521  0.00  0.00    +0.000 C 
ATOM     11  C   UNL     1       3.214   2.808  18.383  0.00  0.00    +0.000 C 
ATOM     12  C   UNL     1       2.273   2.269  19.468  0.00  0.00    +0.000 C 
ENDROOT
BRANCH  12  13
ATOM     13  C   UNL     1       0.793   2.594  19.179  0.00  0.00    +0.000 C 
ATOM     14  O   UNL     1       0.180   2.266  18.179  0.00  0.00    +0.000 OA
BRANCH  13  15
ATOM     15  O   UNL     1       0.217   3.255  20.215  0.00  0.00    +0.000 OA
ATOM     16  H   UNL     1      -0.126   4.105  19.849  0.00  0.00    +0.000 HD
ENDBRANCH  13  15
ENDBRANCH  12  13
BRANCH   9  17
ATOM     17  C   UNL     1       6.133   6.338  16.418  0.00  0.00    +0.000 C 
BRANCH  17  18
ATOM     18  P   UNL     1       6.347   4.882  15.329  0.00  0.00    +0.000 P 
ATOM     19  O   UNL     1       5.306   5.421  14.345  0.00  0.00    +0.000 OA
BRANCH  18  20
ATOM     20  O   UNL     1       7.768   5.473  14.780  0.00  0.00    +0.000 OA
ATOM     21  H   UNL     1       7.641   5.975  13.954  0.00  0.00    +0.000 HD
ENDBRANCH  18  20
BRANCH  18  22
ATOM     22  O   UNL     1       6.548   3.506  14.300  0.00  0.00    +0.000 OA
ATOM     23  H   UNL     1       7.507   3.318  14.321  0.00  0.00    +0.000 HD
ENDBRANCH  18  22
ENDBRANCH  17  18
ENDBRANCH   9  17
TORSDOF 6
ENDMDL
