MODEL 1
REMARK VINA RESULT:      -6.8      0.000      0.000
REMARK  Name = 
REMARK  4 active torsions:
REMARK  status: ('A' for Active; 'I' for Inactive)
REMARK    1  A    between atoms: C_1  and  C_2
REMARK    2  A    between atoms: C_4  and  C_5
REMARK    3  A    between atoms: C_11  and  C_12
REMARK    4  A    between atoms: N_14  and  C_15
REMARK                            x       y       z     vdW  Elec       q    Type
REMARK                         _______ _______ _______ _____ _____    ______ ____
ROOT
ATOM      1  C   UNL     1       2.947   3.271  20.512  0.00  0.00    +0.000 C 
ATOM      2  C   UNL     1       3.315   4.279  19.476  0.00  0.00    +0.000 A 
ATOM      3  N   UNL     1       4.205   3.897  18.479  0.00  0.00    +0.000 NA
ATOM      4  C   UNL     1       4.425   4.895  17.647  0.00  0.00    +0.000 A 
ATOM      5  S   UNL     1       3.561   6.333  18.009  0.00  0.00    +0.000 S 
ATOM      6  C   UNL     1       2.863   5.587  19.382  0.00  0.00    +0.000 A 
ENDROOT
BRANCH   4   7
ATOM      7  C   UNL     1       5.330   4.767  16.527  0.00  0.00    +0.000 A 
ATOM      8  C   UNL     1       5.086   4.075  15.353  0.00  0.00    +0.000 A 
ATOM      9  C   UNL     1       6.179   4.126  14.439  0.00  0.00    +0.000 A 
ATOM     10  C   UNL     1       7.233   4.853  14.939  0.00  0.00    +0.000 A 
ATOM     11  S   UNL     1       6.900   5.473  16.494  0.00  0.00    +0.000 S 
ENDBRANCH   4   7
BRANCH   6  12
ATOM     12  C   UNL     1       1.934   6.290  20.249  0.00  0.00    +0.000 C 
ATOM     13  O   UNL     1       1.032   5.711  20.859  0.00  0.00    +0.000 OA
ATOM     14  N   UNL     1       2.087   7.665  20.322  0.00  0.00    +0.000 N 
ATOM     15  H   UNL     1       2.799   8.097  19.746  0.00  0.00    +0.000 HD
BRANCH  14  16
ATOM     16  C   UNL     1       1.063   8.489  20.928  0.00  0.00    +0.000 C 
ATOM     17  C   UNL     1       0.719   9.723  20.091  0.00  0.00    +0.000 C 
ATOM     18  C   UNL     1      -0.566  10.339  20.643  0.00  0.00    +0.000 C 
ATOM     19  C   UNL     1      -0.447  10.693  22.128  0.00  0.00    +0.000 C 
ATOM     20  C   UNL     1       0.172   9.583  22.985  0.00  0.00    +0.000 C 
ATOM     21  C   UNL     1       1.411   8.952  22.344  0.00  0.00    +0.000 C 
ENDBRANCH  14  16
ENDBRANCH   6  12
TORSDOF 3
ENDMDL
MODEL 2
REMARK VINA RESULT:      -6.8      2.169      7.826
REMARK  Name = 
REMARK  4 active torsions:
REMARK  status: ('A' for Active; 'I' for Inactive)
REMARK    1  A    between atoms: C_1  and  C_2
REMARK    2  A    between atoms: C_4  and  C_5
REMARK    3  A    between atoms: C_11  and  C_12
REMARK    4  A    between atoms: N_14  and  C_15
REMARK                            x       y       z     vdW  Elec       q    Type
REMARK                         _______ _______ _______ _____ _____    ______ ____
ROOT
ATOM      1  C   UNL     1       1.976   4.730  21.025  0.00  0.00    +0.000 C 
ATOM      2  C   UNL     1       1.822   6.129  20.533  0.00  0.00    +0.000 A 
ATOM      3  N   UNL     1       1.174   7.044  21.354  0.00  0.00    +0.000 NA
ATOM      4  C   UNL     1       1.120   8.228  20.777  0.00  0.00    +0.000 A 
ATOM      5  S   UNL     1       1.863   8.306  19.232  0.00  0.00    +0.000 S 
ATOM      6  C   UNL     1       2.261   6.644  19.322  0.00  0.00    +0.000 A 
ENDROOT
BRANCH   4   7
ATOM      7  C   UNL     1       0.480   9.357  21.414  0.00  0.00    +0.000 A 
ATOM      8  C   UNL     1      -0.257   9.325  22.586  0.00  0.00    +0.000 A 
ATOM      9  C   UNL     1      -0.770  10.604  22.955  0.00  0.00    +0.000 A 
ATOM     10  C   UNL     1      -0.415  11.579  22.054  0.00  0.00    +0.000 A 
ATOM     11  S   UNL     1       0.533  10.956  20.779  0.00  0.00    +0.000 S 
ENDBRANCH   4   7
BRANCH   6  12
ATOM     12  C   UNL     1       2.970   5.965  18.251  0.00  0.00    +0.000 C 
ATOM     13  O   UNL     1       2.484   5.012  17.638  0.00  0.00    +0.000 OA
ATOM     14  N   UNL     1       4.250   6.419  17.981  0.00  0.00    +0.000 N 
ATOM     15  H   UNL     1       4.627   7.159  18.563  0.00  0.00    +0.000 HD
BRANCH  14  16
ATOM     16  C   UNL     1       5.141   5.653  17.136  0.00  0.00    +0.000 C 
ATOM     17  C   UNL     1       6.580   5.625  17.658  0.00  0.00    +0.000 C 
ATOM     18  C   UNL     1       7.351   4.552  16.892  0.00  0.00    +0.000 C 
ATOM     19  C   UNL     1       7.316   4.783  15.378  0.00  0.00    +0.000 C 
ATOM     20  C   UNL     1       5.922   5.108  14.831  0.00  0.00    +0.000 C 
ATOM     21  C   UNL     1       5.167   6.132  15.684  0.00  0.00    +0.000 C 
ENDBRANCH  14  16
ENDBRANCH   6  12
TORSDOF 3
ENDMDL
MODEL 3
REMARK VINA RESULT:      -6.7      3.686      5.176
REMARK  Name = 
REMARK  4 active torsions:
REMARK  status: ('A' for Active; 'I' for Inactive)
REMARK    1  A    between atoms: C_1  and  C_2
REMARK    2  A    between atoms: C_4  and  C_5
REMARK    3  A    between atoms: C_11  and  C_12
REMARK    4  A    between atoms: N_14  and  C_15
REMARK                            x       y       z     vdW  Elec       q    Type
REMARK                         _______ _______ _______ _____ _____    ______ ____
ROOT
ATOM      1  C   UNL     1       7.596   6.944  17.991  0.00  0.00    +0.000 C 
ATOM      2  C   UNL     1       6.952   5.958  17.077  0.00  0.00    +0.000 A 
ATOM      3  N   UNL     1       7.396   5.898  15.761  0.00  0.00    +0.000 NA
ATOM      4  C   UNL     1       6.730   4.981  15.088  0.00  0.00    +0.000 A 
ATOM      5  S   UNL     1       5.554   4.131  16.006  0.00  0.00    +0.000 S 
ATOM      6  C   UNL     1       5.937   5.065  17.388  0.00  0.00    +0.000 A 
ENDROOT
BRANCH   4   7
ATOM      7  C   UNL     1       6.985   4.729  13.688  0.00  0.00    +0.000 A 
ATOM      8  C   UNL     1       7.842   5.446  12.870  0.00  0.00    +0.000 A 
ATOM      9  C   UNL     1       7.872   4.958  11.531  0.00  0.00    +0.000 A 
ATOM     10  C   UNL     1       7.034   3.881  11.358  0.00  0.00    +0.000 A 
ATOM     11  S   UNL     1       6.226   3.463  12.801  0.00  0.00    +0.000 S 
ENDBRANCH   4   7
BRANCH   6  12
ATOM     12  C   UNL     1       5.261   4.868  18.659  0.00  0.00    +0.000 C 
ATOM     13  O   UNL     1       5.869   4.829  19.732  0.00  0.00    +0.000 OA
ATOM     14  N   UNL     1       3.891   4.679  18.600  0.00  0.00    +0.000 N 
ATOM     15  H   UNL     1       3.452   4.649  17.687  0.00  0.00    +0.000 HD
BRANCH  14  16
ATOM     16  C   UNL     1       3.161   4.206  19.757  0.00  0.00    +0.000 C 
ATOM     17  C   UNL     1       3.468   2.745  20.098  0.00  0.00    +0.000 C 
ATOM     18  C   UNL     1       2.910   2.446  21.489  0.00  0.00    +0.000 C 
ATOM     19  C   UNL     1       1.409   2.733  21.585  0.00  0.00    +0.000 C 
ATOM     20  C   UNL     1       0.994   4.081  20.985  0.00  0.00    +0.000 C 
ATOM     21  C   UNL     1       1.645   4.359  19.627  0.00  0.00    +0.000 C 
ENDBRANCH  14  16
ENDBRANCH   6  12
TORSDOF 3
ENDMDL
MODEL 4
REMARK VINA RESULT:      -6.4      3.750      8.176
REMARK  Name = 
REMARK  4 active torsions:
REMARK  status: ('A' for Active; 'I' for Inactive)
REMARK    1  A    between atoms: C_1  and  C_2
REMARK    2  A    between atoms: C_4  and  C_5
REMARK    3  A    between atoms: C_11  and  C_12
REMARK    4  A    between atoms: N_14  and  C_15
REMARK                            x       y       z     vdW  Elec       q    Type
REMARK                         _______ _______ _______ _____ _____    ______ ____
ROOT
ATOM      1  C   UNL     1       1.759   9.608  17.753  0.00  0.00    +0.000 C 
ATOM      2  C   UNL     1       1.344   9.541  19.184  0.00  0.00    +0.000 A 
ATOM      3  N   UNL     1       0.677  10.634  19.723  0.00  0.00    +0.000 NA
ATOM      4  C   UNL     1       0.382  10.418  20.990  0.00  0.00    +0.000 A 
ATOM      5  S   UNL     1       0.871   8.886  21.588  0.00  0.00    +0.000 S 
ATOM      6  C   UNL     1       1.546   8.490  20.066  0.00  0.00    +0.000 A 
ENDROOT
BRANCH   4   7
ATOM      7  C   UNL     1      -0.299  11.409  21.793  0.00  0.00    +0.000 A 
ATOM      8  C   UNL     1      -1.195  11.156  22.817  0.00  0.00    +0.000 A 
ATOM      9  C   UNL     1      -1.707  12.346  23.415  0.00  0.00    +0.000 A 
ATOM     10  C   UNL     1      -1.191  13.477  22.829  0.00  0.00    +0.000 A 
ATOM     11  S   UNL     1      -0.096  13.105  21.575  0.00  0.00    +0.000 S 
ENDBRANCH   4   7
BRANCH   6  12
ATOM     12  C   UNL     1       2.198   7.214  19.824  0.00  0.00    +0.000 C 
ATOM     13  O   UNL     1       3.025   7.056  18.923  0.00  0.00    +0.000 OA
ATOM     14  N   UNL     1       1.804   6.163  20.635  0.00  0.00    +0.000 N 
ATOM     15  H   UNL     1       1.069   6.331  21.311  0.00  0.00    +0.000 HD
BRANCH  14  16
ATOM     16  C   UNL     1       2.176   4.802  20.309  0.00  0.00    +0.000 C 
ATOM     17  C   UNL     1       1.347   4.217  19.164  0.00  0.00    +0.000 C 
ATOM     18  C   UNL     1       2.017   2.926  18.694  0.00  0.00    +0.000 C 
ATOM     19  C   UNL     1       2.184   1.913  19.830  0.00  0.00    +0.000 C 
ATOM     20  C   UNL     1       2.749   2.515  21.122  0.00  0.00    +0.000 C 
ATOM     21  C   UNL     1       2.093   3.846  21.500  0.00  0.00    +0.000 C 
ENDBRANCH  14  16
ENDBRANCH   6  12
TORSDOF 3
ENDMDL
MODEL 5
REMARK VINA RESULT:      -6.4      2.279      8.122
REMARK  Name = 
REMARK  4 active torsions:
REMARK  status: ('A' for Active; 'I' for Inactive)
REMARK    1  A    between atoms: C_1  and  C_2
REMARK    2  A    between atoms: C_4  and  C_5
REMARK    3  A    between atoms: C_11  and  C_12
REMARK    4  A    between atoms: N_14  and  C_15
REMARK                            x       y       z     vdW  Elec       q    Type
REMARK                         _______ _______ _______ _____ _____    ______ ____
ROOT
ATOM      1  C   UNL     1       4.223   3.062  19.268  0.00  0.00    +0.000 C 
ATOM      2  C   UNL     1       3.987   4.467  18.828  0.00  0.00    +0.000 A 
ATOM      3  N   UNL     1       3.112   5.248  19.575  0.00  0.00    +0.000 NA
ATOM      4  C   UNL     1       3.013   6.456  19.057  0.00  0.00    +0.000 A 
ATOM      5  S   UNL     1       3.980   6.721  17.664  0.00  0.00    +0.000 S 
ATOM      6  C   UNL     1       4.551   5.109  17.736  0.00  0.00    +0.000 A 
ENDROOT
BRANCH   4   7
ATOM      7  C   UNL     1       2.150   7.463  19.634  0.00  0.00    +0.000 A 
ATOM      8  C   UNL     1       1.594   7.434  20.902  0.00  0.00    +0.000 A 
ATOM      9  C   UNL     1       0.778   8.572  21.177  0.00  0.00    +0.000 A 
ATOM     10  C   UNL     1       0.730   9.439  20.111  0.00  0.00    +0.000 A 
ATOM     11  S   UNL     1       1.665   8.886  18.795  0.00  0.00    +0.000 S 
ENDBRANCH   4   7
BRANCH   6  12
ATOM     12  C   UNL     1       5.497   4.586  16.765  0.00  0.00    +0.000 C 
ATOM     13  O   UNL     1       6.682   4.382  17.042  0.00  0.00    +0.000 OA
ATOM     14  N   UNL     1       5.007   4.370  15.488  0.00  0.00    +0.000 N 
ATOM     15  H   UNL     1       4.045   4.623  15.297  0.00  0.00    +0.000 HD
BRANCH  14  16
ATOM     16  C   UNL     1       5.910   4.117  14.386  0.00  0.00    +0.000 C 
ATOM     17  C   UNL     1       6.769   5.332  14.029  0.00  0.00    +0.000 C 
ATOM     18  C   UNL     1       7.887   4.875  13.091  0.00  0.00    +0.000 C 
ATOM     19  C   UNL     1       7.343   4.192  11.833  0.00  0.00    +0.000 C 
ATOM     20  C   UNL     1       6.251   3.153  12.111  0.00  0.00    +0.000 C 
ATOM     21  C   UNL     1       5.204   3.639  13.116  0.00  0.00    +0.000 C 
ENDBRANCH  14  16
ENDBRANCH   6  12
TORSDOF 3
ENDMDL
MODEL 6
REMARK VINA RESULT:      -6.3      1.599      1.891
REMARK  Name = 
REMARK  4 active torsions:
REMARK  status: ('A' for Active; 'I' for Inactive)
REMARK    1  A    between atoms: C_1  and  C_2
REMARK    2  A    between atoms: C_4  and  C_5
REMARK    3  A    between atoms: C_11  and  C_12
REMARK    4  A    between atoms: N_14  and  C_15
REMARK                            x       y       z     vdW  Elec       q    Type
REMARK                         _______ _______ _______ _____ _____    ______ ____
ROOT
ATOM      1  C   UNL     1       1.552   4.805  20.095  0.00  0.00    +0.000 C 
ATOM      2  C   UNL     1       2.454   5.567  19.185  0.00  0.00    +0.000 A 
ATOM      3  N   UNL     1       3.332   4.849  18.382  0.00  0.00    +0.000 NA
ATOM      4  C   UNL     1       4.055   5.664  17.641  0.00  0.00    +0.000 A 
ATOM      5  S   UNL     1       3.703   7.330  17.855  0.00  0.00    +0.000 S 
ATOM      6  C   UNL     1       2.525   6.944  19.035  0.00  0.00    +0.000 A 
ENDROOT
BRANCH   4   7
ATOM      7  C   UNL     1       5.062   5.172  16.727  0.00  0.00    +0.000 A 
ATOM      8  C   UNL     1       4.884   4.190  15.767  0.00  0.00    +0.000 A 
ATOM      9  C   UNL     1       6.072   3.917  15.025  0.00  0.00    +0.000 A 
ATOM     10  C   UNL     1       7.127   4.694  15.440  0.00  0.00    +0.000 A 
ATOM     11  S   UNL     1       6.684   5.747  16.708  0.00  0.00    +0.000 S 
ENDBRANCH   4   7
BRANCH   6  12
ATOM     12  C   UNL     1       1.752   7.971  19.712  0.00  0.00    +0.000 C 
ATOM     13  O   UNL     1       1.412   7.871  20.894  0.00  0.00    +0.000 OA
ATOM     14  N   UNL     1       1.373   9.058  18.943  0.00  0.00    +0.000 N 
ATOM     15  H   UNL     1       1.618   9.056  17.960  0.00  0.00    +0.000 HD
BRANCH  14  16
ATOM     16  C   UNL     1       0.382   9.995  19.429  0.00  0.00    +0.000 C 
ATOM     17  C   UNL     1      -0.604  10.434  18.344  0.00  0.00    +0.000 C 
ATOM     18  C   UNL     1      -1.774  11.152  19.016  0.00  0.00    +0.000 C 
ATOM     19  C   UNL     1      -1.313  12.344  19.860  0.00  0.00    +0.000 C 
ATOM     20  C   UNL     1      -0.118  12.038  20.770  0.00  0.00    +0.000 C 
ATOM     21  C   UNL     1       0.987  11.249  20.062  0.00  0.00    +0.000 C 
ENDBRANCH  14  16
ENDBRANCH   6  12
TORSDOF 3
ENDMDL
MODEL 7
REMARK VINA RESULT:      -6.3      3.531      8.136
REMARK  Name = 
REMARK  4 active torsions:
REMARK  status: ('A' for Active; 'I' for Inactive)
REMARK    1  A    between atoms: C_1  and  C_2
REMARK    2  A    between atoms: C_4  and  C_5
REMARK    3  A    between atoms: C_11  and  C_12
REMARK    4  A    between atoms: N_14  and  C_15
REMARK                            x       y       z     vdW  Elec       q    Type
REMARK                         _______ _______ _______ _____ _____    ______ ____
ROOT
ATOM      1  C   UNL     1       1.832   9.260  17.658  0.00  0.00    +0.000 C 
ATOM      2  C   UNL     1       1.449   9.298  19.098  0.00  0.00    +0.000 A 
ATOM      3  N   UNL     1       0.835  10.448  19.582  0.00  0.00    +0.000 NA
ATOM      4  C   UNL     1       0.561  10.322  20.865  0.00  0.00    +0.000 A 
ATOM      5  S   UNL     1       1.006   8.811  21.548  0.00  0.00    +0.000 S 
ATOM      6  C   UNL     1       1.631   8.297  20.040  0.00  0.00    +0.000 A 
ENDROOT
BRANCH   4   7
ATOM      7  C   UNL     1      -0.064  11.386  21.618  0.00  0.00    +0.000 A 
ATOM      8  C   UNL     1       0.142  12.743  21.440  0.00  0.00    +0.000 A 
ATOM      9  C   UNL     1      -0.616  13.544  22.346  0.00  0.00    +0.000 A 
ATOM     10  C   UNL     1      -1.377  12.777  23.195  0.00  0.00    +0.000 A 
ATOM     11  S   UNL     1      -1.184  11.108  22.896  0.00  0.00    +0.000 S 
ENDBRANCH   4   7
BRANCH   6  12
ATOM     12  C   UNL     1       2.229   6.984  19.864  0.00  0.00    +0.000 C 
ATOM     13  O   UNL     1       3.391   6.833  19.479  0.00  0.00    +0.000 OA
ATOM     14  N   UNL     1       1.404   5.899  20.111  0.00  0.00    +0.000 N 
ATOM     15  H   UNL     1       0.438   6.080  20.356  0.00  0.00    +0.000 HD
BRANCH  14  16
ATOM     16  C   UNL     1       1.801   4.566  19.709  0.00  0.00    +0.000 C 
ATOM     17  C   UNL     1       1.507   4.277  18.235  0.00  0.00    +0.000 C 
ATOM     18  C   UNL     1       2.238   2.995  17.839  0.00  0.00    +0.000 C 
ATOM     19  C   UNL     1       1.846   1.808  18.725  0.00  0.00    +0.000 C 
ATOM     20  C   UNL     1       1.840   2.126  20.224  0.00  0.00    +0.000 C 
ATOM     21  C   UNL     1       1.163   3.460  20.551  0.00  0.00    +0.000 C 
ENDBRANCH  14  16
ENDBRANCH   6  12
TORSDOF 3
ENDMDL
MODEL 8
REMARK VINA RESULT:      -6.2      3.270      8.105
REMARK  Name = 
REMARK  4 active torsions:
REMARK  status: ('A' for Active; 'I' for Inactive)
REMARK    1  A    between atoms: C_1  and  C_2
REMARK    2  A    between atoms: C_4  and  C_5
REMARK    3  A    between atoms: C_11  and  C_12
REMARK    4  A    between atoms: N_14  and  C_15
REMARK                            x       y       z     vdW  Elec       q    Type
REMARK                         _______ _______ _______ _____ _____    ______ ____
ROOT
ATOM      1  C   UNL     1       2.099   9.199  17.445  0.00  0.00    +0.000 C 
ATOM      2  C   UNL     1       1.609   8.974  18.835  0.00  0.00    +0.000 A 
ATOM      3  N   UNL     1       0.784   9.938  19.402  0.00  0.00    +0.000 NA
ATOM      4  C   UNL     1       0.440   9.591  20.627  0.00  0.00    +0.000 A 
ATOM      5  S   UNL     1       1.073   8.084  21.149  0.00  0.00    +0.000 S 
ATOM      6  C   UNL     1       1.883   7.889  19.654  0.00  0.00    +0.000 A 
ENDROOT
BRANCH   4   7
ATOM      7  C   UNL     1      -0.403  10.431  21.448  0.00  0.00    +0.000 A 
ATOM      8  C   UNL     1      -1.072  11.571  21.034  0.00  0.00    +0.000 A 
ATOM      9  C   UNL     1      -1.818  12.188  22.082  0.00  0.00    +0.000 A 
ATOM     10  C   UNL     1      -1.697  11.506  23.269  0.00  0.00    +0.000 A 
ATOM     11  S   UNL     1      -0.697  10.131  23.117  0.00  0.00    +0.000 S 
ENDBRANCH   4   7
BRANCH   6  12
ATOM     12  C   UNL     1       2.697   6.719  19.369  0.00  0.00    +0.000 C 
ATOM     13  O   UNL     1       3.832   6.805  18.896  0.00  0.00    +0.000 OA
ATOM     14  N   UNL     1       2.109   5.490  19.615  0.00  0.00    +0.000 N 
ATOM     15  H   UNL     1       1.148   5.476  19.936  0.00  0.00    +0.000 HD
BRANCH  14  16
ATOM     16  C   UNL     1       2.712   4.272  19.117  0.00  0.00    +0.000 C 
ATOM     17  C   UNL     1       1.783   3.484  18.190  0.00  0.00    +0.000 C 
ATOM     18  C   UNL     1       2.607   2.410  17.480  0.00  0.00    +0.000 C 
ATOM     19  C   UNL     1       3.322   1.482  18.467  0.00  0.00    +0.000 C 
ATOM     20  C   UNL     1       4.039   2.217  19.605  0.00  0.00    +0.000 C 
ATOM     21  C   UNL     1       3.193   3.333  20.224  0.00  0.00    +0.000 C 
ENDBRANCH  14  16
ENDBRANCH   6  12
TORSDOF 3
ENDMDL
MODEL 9
REMARK VINA RESULT:      -6.1      4.048      8.426
REMARK  Name = 
REMARK  4 active torsions:
REMARK  status: ('A' for Active; 'I' for Inactive)
REMARK    1  A    between atoms: C_1  and  C_2
REMARK    2  A    between atoms: C_4  and  C_5
REMARK    3  A    between atoms: C_11  and  C_12
REMARK    4  A    between atoms: N_14  and  C_15
REMARK                            x       y       z     vdW  Elec       q    Type
REMARK                         _______ _______ _______ _____ _____    ______ ____
ROOT
ATOM      1  C   UNL     1       7.320   5.735  19.214  0.00  0.00    +0.000 C 
ATOM      2  C   UNL     1       6.112   4.955  18.819  0.00  0.00    +0.000 A 
ATOM      3  N   UNL     1       5.089   4.818  19.750  0.00  0.00    +0.000 NA
ATOM      4  C   UNL     1       4.099   4.105  19.250  0.00  0.00    +0.000 A 
ATOM      5  S   UNL     1       4.339   3.582  17.633  0.00  0.00    +0.000 S 
ATOM      6  C   UNL     1       5.877   4.333  17.602  0.00  0.00    +0.000 A 
ENDROOT
BRANCH   4   7
ATOM      7  C   UNL     1       2.916   3.799  20.021  0.00  0.00    +0.000 A 
ATOM      8  C   UNL     1       1.679   4.409  19.899  0.00  0.00    +0.000 A 
ATOM      9  C   UNL     1       0.711   3.891  20.809  0.00  0.00    +0.000 A 
ATOM     10  C   UNL     1       1.234   2.902  21.607  0.00  0.00    +0.000 A 
ATOM     11  S   UNL     1       2.875   2.597  21.253  0.00  0.00    +0.000 S 
ENDBRANCH   4   7
BRANCH   6  12
ATOM     12  C   UNL     1       6.730   4.288  16.427  0.00  0.00    +0.000 C 
ATOM     13  O   UNL     1       7.911   4.640  16.454  0.00  0.00    +0.000 OA
ATOM     14  N   UNL     1       6.130   3.868  15.251  0.00  0.00    +0.000 N 
ATOM     15  H   UNL     1       5.139   3.658  15.270  0.00  0.00    +0.000 HD
BRANCH  14  16
ATOM     16  C   UNL     1       6.798   4.043  13.979  0.00  0.00    +0.000 C 
ATOM     17  C   UNL     1       7.181   5.499  13.704  0.00  0.00    +0.000 C 
ATOM     18  C   UNL     1       8.143   5.530  12.517  0.00  0.00    +0.000 C 
ATOM     19  C   UNL     1       7.546   4.869  11.271  0.00  0.00    +0.000 C 
ATOM     20  C   UNL     1       6.880   3.516  11.543  0.00  0.00    +0.000 C 
ATOM     21  C   UNL     1       5.990   3.526  12.789  0.00  0.00    +0.000 C 
ENDBRANCH  14  16
ENDBRANCH   6  12
TORSDOF 3
ENDMDL
