MODEL 1
REMARK VINA RESULT:      -6.9      0.000      0.000
REMARK  Name = 
REMARK  6 active torsions:
REMARK  status: ('A' for Active; 'I' for Inactive)
REMARK    1  A    between atoms: C_1  and  C_2
REMARK    2  A    between atoms: C_9  and  C_10
REMARK    3  A    between atoms: C_10  and  C_11
REMARK    4  A    between atoms: C_10  and  C_12
REMARK    5  A    between atoms: C_13  and  C_14
REMARK    6  A    between atoms: C_16  and  N_17
REMARK                            x       y       z     vdW  Elec       q    Type
REMARK                         _______ _______ _______ _____ _____    ______ ____
ROOT
ATOM      1  C   UNL     1       6.689   4.503  14.894  0.00  0.00    +0.000 C 
ATOM      2  C   UNL     1       5.864   5.022  16.024  0.00  0.00    +0.000 A 
ATOM      3  C   UNL     1       5.144   6.151  15.995  0.00  0.00    +0.000 A 
ATOM      4  C   UNL     1       4.302   6.468  17.114  0.00  0.00    +0.000 A 
ATOM      5  C   UNL     1       4.233   5.657  18.176  0.00  0.00    +0.000 A 
ATOM      6  C   UNL     1       5.230   4.576  18.314  0.00  0.00    +0.000 A 
ATOM      7  O   UNL     1       5.427   4.026  19.390  0.00  0.00    +0.000 OA
ATOM      8  O   UNL     1       5.908   4.214  17.184  0.00  0.00    +0.000 OA
ATOM      9  C   UNL     1       3.212   5.877  19.263  0.00  0.00    +0.000 C 
ATOM     10  C   UNL     1       2.619   7.292  19.156  0.00  0.00    +0.000 C 
ATOM     11  C   UNL     1       2.765   8.056  18.056  0.00  0.00    +0.000 C 
ATOM     12  O   UNL     1       3.531   7.609  16.977  0.00  0.00    +0.000 OA
ENDROOT
BRANCH   9  13
ATOM     13  C   UNL     1       2.055   4.799  19.265  0.00  0.00    +0.000 C 
ATOM     14  C   UNL     1       1.827   4.133  17.899  0.00  0.00    +0.000 C 
ATOM     15  C   UNL     1       2.202   3.704  20.331  0.00  0.00    +0.000 C 
ENDBRANCH   9  13
BRANCH  11  16
ATOM     16  N   UNL     1       2.179   9.279  17.849  0.00  0.00    +0.000 N 
ATOM     17  H   UNL     1       1.267   9.268  17.399  0.00  0.00    +0.000 HD
ATOM     18  H   UNL     1       2.220   9.877  18.670  0.00  0.00    +0.000 HD
ENDBRANCH  11  16
BRANCH  10  19
ATOM     19  C   UNL     1       1.718   7.682  20.316  0.00  0.00    +0.000 C 
ATOM     20  N   UNL     1       0.971   8.006  21.278  0.00  0.00    +0.000 NA
ENDBRANCH  10  19
TORSDOF 3
ENDMDL
MODEL 2
REMARK VINA RESULT:      -6.5      2.966      4.293
REMARK  Name = 
REMARK  6 active torsions:
REMARK  status: ('A' for Active; 'I' for Inactive)
REMARK    1  A    between atoms: C_1  and  C_2
REMARK    2  A    between atoms: C_9  and  C_10
REMARK    3  A    between atoms: C_10  and  C_11
REMARK    4  A    between atoms: C_10  and  C_12
REMARK    5  A    between atoms: C_13  and  C_14
REMARK    6  A    between atoms: C_16  and  N_17
REMARK                            x       y       z     vdW  Elec       q    Type
REMARK                         _______ _______ _______ _____ _____    ______ ____
ROOT
ATOM      1  C   UNL     1       8.529   8.071  18.217  0.00  0.00    +0.000 C 
ATOM      2  C   UNL     1       7.376   7.138  18.054  0.00  0.00    +0.000 A 
ATOM      3  C   UNL     1       7.201   6.003  18.745  0.00  0.00    +0.000 A 
ATOM      4  C   UNL     1       5.984   5.263  18.569  0.00  0.00    +0.000 A 
ATOM      5  C   UNL     1       5.033   5.688  17.729  0.00  0.00    +0.000 A 
ATOM      6  C   UNL     1       5.354   6.772  16.779  0.00  0.00    +0.000 A 
ATOM      7  O   UNL     1       4.664   6.975  15.789  0.00  0.00    +0.000 OA
ATOM      8  O   UNL     1       6.447   7.542  17.067  0.00  0.00    +0.000 OA
ATOM      9  C   UNL     1       3.678   5.029  17.682  0.00  0.00    +0.000 C 
ATOM     10  C   UNL     1       3.728   3.663  18.388  0.00  0.00    +0.000 C 
ATOM     11  C   UNL     1       4.744   3.302  19.196  0.00  0.00    +0.000 C 
ATOM     12  O   UNL     1       5.843   4.145  19.374  0.00  0.00    +0.000 OA
ENDROOT
BRANCH   9  13
ATOM     13  C   UNL     1       2.526   5.920  18.298  0.00  0.00    +0.000 C 
ATOM     14  C   UNL     1       2.453   5.865  19.832  0.00  0.00    +0.000 C 
ATOM     15  C   UNL     1       2.548   7.389  17.855  0.00  0.00    +0.000 C 
ENDBRANCH   9  13
BRANCH  11  16
ATOM     16  N   UNL     1       4.805   2.150  19.938  0.00  0.00    +0.000 N 
ATOM     17  H   UNL     1       4.888   1.284  19.413  0.00  0.00    +0.000 HD
ATOM     18  H   UNL     1       5.458   2.218  20.715  0.00  0.00    +0.000 HD
ENDBRANCH  11  16
BRANCH  10  19
ATOM     19  C   UNL     1       2.464   2.834  18.235  0.00  0.00    +0.000 C 
ATOM     20  N   UNL     1       1.415   2.145  18.108  0.00  0.00    +0.000 NA
ENDBRANCH  10  19
TORSDOF 3
ENDMDL
MODEL 3
REMARK VINA RESULT:      -6.3      2.879      5.096
REMARK  Name = 
REMARK  6 active torsions:
REMARK  status: ('A' for Active; 'I' for Inactive)
REMARK    1  A    between atoms: C_1  and  C_2
REMARK    2  A    between atoms: C_9  and  C_10
REMARK    3  A    between atoms: C_10  and  C_11
REMARK    4  A    between atoms: C_10  and  C_12
REMARK    5  A    between atoms: C_13  and  C_14
REMARK    6  A    between atoms: C_16  and  N_17
REMARK                            x       y       z     vdW  Elec       q    Type
REMARK                         _______ _______ _______ _____ _____    ______ ____
ROOT
ATOM      1  C   UNL     1       1.849   2.097  19.620  0.00  0.00    +0.000 C 
ATOM      2  C   UNL     1       2.772   3.215  19.266  0.00  0.00    +0.000 A 
ATOM      3  C   UNL     1       4.042   3.322  19.678  0.00  0.00    +0.000 A 
ATOM      4  C   UNL     1       4.852   4.391  19.163  0.00  0.00    +0.000 A 
ATOM      5  C   UNL     1       4.354   5.273  18.289  0.00  0.00    +0.000 A 
ATOM      6  C   UNL     1       2.895   5.309  18.066  0.00  0.00    +0.000 A 
ATOM      7  O   UNL     1       2.354   6.280  17.552  0.00  0.00    +0.000 OA
ATOM      8  O   UNL     1       2.184   4.205  18.446  0.00  0.00    +0.000 OA
ATOM      9  C   UNL     1       5.242   6.275  17.597  0.00  0.00    +0.000 C 
ATOM     10  C   UNL     1       6.597   6.371  18.319  0.00  0.00    +0.000 C 
ATOM     11  C   UNL     1       7.008   5.450  19.213  0.00  0.00    +0.000 C 
ATOM     12  O   UNL     1       6.174   4.389  19.573  0.00  0.00    +0.000 OA
ENDROOT
BRANCH   9  13
ATOM     13  C   UNL     1       5.462   5.964  16.063  0.00  0.00    +0.000 C 
ATOM     14  C   UNL     1       5.104   4.524  15.665  0.00  0.00    +0.000 C 
ATOM     15  C   UNL     1       4.754   6.933  15.106  0.00  0.00    +0.000 C 
ENDBRANCH   9  13
BRANCH  11  16
ATOM     16  N   UNL     1       8.240   5.413  19.815  0.00  0.00    +0.000 N 
ATOM     17  H   UNL     1       8.949   6.026  19.420  0.00  0.00    +0.000 HD
ATOM     18  H   UNL     1       8.182   5.459  20.829  0.00  0.00    +0.000 HD
ENDBRANCH  11  16
BRANCH  10  19
ATOM     19  C   UNL     1       7.497   7.487  17.815  0.00  0.00    +0.000 C 
ATOM     20  N   UNL     1       8.244   8.413  17.398  0.00  0.00    +0.000 NA
ENDBRANCH  10  19
TORSDOF 3
ENDMDL
MODEL 4
REMARK VINA RESULT:      -6.2      2.687      4.715
REMARK  Name = 
REMARK  6 active torsions:
REMARK  status: ('A' for Active; 'I' for Inactive)
REMARK    1  A    between atoms: C_1  and  C_2
REMARK    2  A    between atoms: C_9  and  C_10
REMARK    3  A    between atoms: C_10  and  C_11
REMARK    4  A    between atoms: C_10  and  C_12
REMARK    5  A    between atoms: C_13  and  C_14
REMARK    6  A    between atoms: C_16  and  N_17
REMARK                            x       y       z     vdW  Elec       q    Type
REMARK                         _______ _______ _______ _____ _____    ______ ____
ROOT
ATOM      1  C   UNL     1       1.585   9.386  17.880  0.00  0.00    +0.000 C 
ATOM      2  C   UNL     1       2.287   8.132  18.282  0.00  0.00    +0.000 A 
ATOM      3  C   UNL     1       1.899   7.317  19.272  0.00  0.00    +0.000 A 
ATOM      4  C   UNL     1       2.604   6.082  19.472  0.00  0.00    +0.000 A 
ATOM      5  C   UNL     1       3.636   5.742  18.691  0.00  0.00    +0.000 A 
ATOM      6  C   UNL     1       4.221   6.764  17.799  0.00  0.00    +0.000 A 
ATOM      7  O   UNL     1       5.340   6.625  17.321  0.00  0.00    +0.000 OA
ATOM      8  O   UNL     1       3.451   7.860  17.526  0.00  0.00    +0.000 OA
ATOM      9  C   UNL     1       4.255   4.370  18.764  0.00  0.00    +0.000 C 
ATOM     10  C   UNL     1       3.814   3.658  20.054  0.00  0.00    +0.000 C 
ATOM     11  C   UNL     1       2.779   4.088  20.801  0.00  0.00    +0.000 C 
ATOM     12  O   UNL     1       2.096   5.258  20.461  0.00  0.00    +0.000 OA
ENDROOT
BRANCH   9  13
ATOM     13  C   UNL     1       3.932   3.468  17.506  0.00  0.00    +0.000 C 
ATOM     14  C   UNL     1       2.463   3.530  17.059  0.00  0.00    +0.000 C 
ATOM     15  C   UNL     1       4.831   3.724  16.288  0.00  0.00    +0.000 C 
ENDBRANCH   9  13
BRANCH  11  16
ATOM     16  N   UNL     1       2.266   3.448  21.901  0.00  0.00    +0.000 N 
ATOM     17  H   UNL     1       1.402   2.932  21.756  0.00  0.00    +0.000 HD
ATOM     18  H   UNL     1       2.971   2.925  22.415  0.00  0.00    +0.000 HD
ENDBRANCH  11  16
BRANCH  10  19
ATOM     19  C   UNL     1       4.529   2.343  20.318  0.00  0.00    +0.000 C 
ATOM     20  N   UNL     1       5.122   1.252  20.537  0.00  0.00    +0.000 NA
ENDBRANCH  10  19
TORSDOF 3
ENDMDL
MODEL 5
REMARK VINA RESULT:      -6.1      2.091      4.693
REMARK  Name = 
REMARK  6 active torsions:
REMARK  status: ('A' for Active; 'I' for Inactive)
REMARK    1  A    between atoms: C_1  and  C_2
REMARK    2  A    between atoms: C_9  and  C_10
REMARK    3  A    between atoms: C_10  and  C_11
REMARK    4  A    between atoms: C_10  and  C_12
REMARK    5  A    between atoms: C_13  and  C_14
REMARK    6  A    between atoms: C_16  and  N_17
REMARK                            x       y       z     vdW  Elec       q    Type
REMARK                         _______ _______ _______ _____ _____    ______ ____
ROOT
ATOM      1  C   UNL     1       1.212   2.498  22.128  0.00  0.00    +0.000 C 
ATOM      2  C   UNL     1       1.875   3.096  20.932  0.00  0.00    +0.000 A 
ATOM      3  C   UNL     1       1.818   4.390  20.589  0.00  0.00    +0.000 A 
ATOM      4  C   UNL     1       2.602   4.849  19.477  0.00  0.00    +0.000 A 
ATOM      5  C   UNL     1       3.377   4.006  18.785  0.00  0.00    +0.000 A 
ATOM      6  C   UNL     1       3.215   2.553  18.995  0.00  0.00    +0.000 A 
ATOM      7  O   UNL     1       3.638   1.742  18.181  0.00  0.00    +0.000 OA
ATOM      8  O   UNL     1       2.583   2.161  20.142  0.00  0.00    +0.000 OA
ATOM      9  C   UNL     1       4.348   4.509  17.747  0.00  0.00    +0.000 C 
ATOM     10  C   UNL     1       4.014   5.961  17.367  0.00  0.00    +0.000 C 
ATOM     11  C   UNL     1       3.194   6.732  18.107  0.00  0.00    +0.000 C 
ATOM     12  O   UNL     1       2.552   6.210  19.232  0.00  0.00    +0.000 OA
ENDROOT
BRANCH   9  13
ATOM     13  C   UNL     1       5.860   4.396  18.196  0.00  0.00    +0.000 C 
ATOM     14  C   UNL     1       6.853   4.359  17.024  0.00  0.00    +0.000 C 
ATOM     15  C   UNL     1       6.313   5.472  19.194  0.00  0.00    +0.000 C 
ENDBRANCH   9  13
BRANCH  11  16
ATOM     16  N   UNL     1       2.933   8.062  17.889  0.00  0.00    +0.000 N 
ATOM     17  H   UNL     1       2.709   8.614  18.712  0.00  0.00    +0.000 HD
ATOM     18  H   UNL     1       3.619   8.500  17.279  0.00  0.00    +0.000 HD
ENDBRANCH  11  16
BRANCH  10  19
ATOM     19  C   UNL     1       4.814   6.501  16.194  0.00  0.00    +0.000 C 
ATOM     20  N   UNL     1       5.479   6.948  15.220  0.00  0.00    +0.000 NA
ENDBRANCH  10  19
TORSDOF 3
ENDMDL
MODEL 6
REMARK VINA RESULT:      -6.0      3.840      5.711
REMARK  Name = 
REMARK  6 active torsions:
REMARK  status: ('A' for Active; 'I' for Inactive)
REMARK    1  A    between atoms: C_1  and  C_2
REMARK    2  A    between atoms: C_9  and  C_10
REMARK    3  A    between atoms: C_10  and  C_11
REMARK    4  A    between atoms: C_10  and  C_12
REMARK    5  A    between atoms: C_13  and  C_14
REMARK    6  A    between atoms: C_16  and  N_17
REMARK                            x       y       z     vdW  Elec       q    Type
REMARK                         _______ _______ _______ _____ _____    ______ ____
ROOT
ATOM      1  C   UNL     1       2.670   2.818  19.728  0.00  0.00    +0.000 C 
ATOM      2  C   UNL     1       3.750   3.284  18.810  0.00  0.00    +0.000 A 
ATOM      3  C   UNL     1       3.757   3.112  17.481  0.00  0.00    +0.000 A 
ATOM      4  C   UNL     1       4.805   3.717  16.708  0.00  0.00    +0.000 A 
ATOM      5  C   UNL     1       5.766   4.440  17.294  0.00  0.00    +0.000 A 
ATOM      6  C   UNL     1       5.901   4.386  18.764  0.00  0.00    +0.000 A 
ATOM      7  O   UNL     1       6.932   4.742  19.321  0.00  0.00    +0.000 OA
ATOM      8  O   UNL     1       4.821   3.933  19.468  0.00  0.00    +0.000 OA
ATOM      9  C   UNL     1       6.753   5.237  16.480  0.00  0.00    +0.000 C 
ATOM     10  C   UNL     1       6.725   4.776  15.013  0.00  0.00    +0.000 C 
ATOM     11  C   UNL     1       5.729   4.020  14.511  0.00  0.00    +0.000 C 
ATOM     12  O   UNL     1       4.701   3.561  15.336  0.00  0.00    +0.000 OA
ENDROOT
BRANCH   9  13
ATOM     13  C   UNL     1       6.522   6.798  16.567  0.00  0.00    +0.000 C 
ATOM     14  C   UNL     1       5.084   7.192  16.941  0.00  0.00    +0.000 C 
ATOM     15  C   UNL     1       7.495   7.539  17.494  0.00  0.00    +0.000 C 
ENDBRANCH   9  13
BRANCH  11  16
ATOM     16  N   UNL     1       5.584   3.661  13.195  0.00  0.00    +0.000 N 
ATOM     17  H   UNL     1       4.884   4.174  12.666  0.00  0.00    +0.000 HD
ATOM     18  H   UNL     1       6.474   3.573  12.712  0.00  0.00    +0.000 HD
ENDBRANCH  11  16
BRANCH  10  19
ATOM     19  C   UNL     1       7.814   5.385  14.145  0.00  0.00    +0.000 C 
ATOM     20  N   UNL     1       8.718   5.889  13.425  0.00  0.00    +0.000 NA
ENDBRANCH  10  19
TORSDOF 3
ENDMDL
MODEL 7
REMARK VINA RESULT:      -5.8      2.807      4.109
REMARK  Name = 
REMARK  6 active torsions:
REMARK  status: ('A' for Active; 'I' for Inactive)
REMARK    1  A    between atoms: C_1  and  C_2
REMARK    2  A    between atoms: C_9  and  C_10
REMARK    3  A    between atoms: C_10  and  C_11
REMARK    4  A    between atoms: C_10  and  C_12
REMARK    5  A    between atoms: C_13  and  C_14
REMARK    6  A    between atoms: C_16  and  N_17
REMARK                            x       y       z     vdW  Elec       q    Type
REMARK                         _______ _______ _______ _____ _____    ______ ____
ROOT
ATOM      1  C   UNL     1       7.837   7.420  17.790  0.00  0.00    +0.000 C 
ATOM      2  C   UNL     1       6.553   6.659  17.804  0.00  0.00    +0.000 A 
ATOM      3  C   UNL     1       6.444   5.339  18.005  0.00  0.00    +0.000 A 
ATOM      4  C   UNL     1       5.135   4.758  18.110  0.00  0.00    +0.000 A 
ATOM      5  C   UNL     1       4.035   5.513  18.006  0.00  0.00    +0.000 A 
ATOM      6  C   UNL     1       4.165   6.898  17.511  0.00  0.00    +0.000 A 
ATOM      7  O   UNL     1       3.197   7.515  17.087  0.00  0.00    +0.000 OA
ATOM      8  O   UNL     1       5.411   7.458  17.563  0.00  0.00    +0.000 OA
ATOM      9  C   UNL     1       2.669   4.951  18.308  0.00  0.00    +0.000 C 
ATOM     10  C   UNL     1       2.721   3.414  18.334  0.00  0.00    +0.000 C 
ATOM     11  C   UNL     1       3.880   2.731  18.407  0.00  0.00    +0.000 C 
ATOM     12  O   UNL     1       5.104   3.404  18.395  0.00  0.00    +0.000 OA
ENDROOT
BRANCH   9  13
ATOM     13  C   UNL     1       2.049   5.499  19.655  0.00  0.00    +0.000 C 
ATOM     14  C   UNL     1       2.534   4.754  20.909  0.00  0.00    +0.000 C 
ATOM     15  C   UNL     1       2.229   7.007  19.875  0.00  0.00    +0.000 C 
ENDBRANCH   9  13
BRANCH  11  16
ATOM     16  N   UNL     1       3.999   1.370  18.540  0.00  0.00    +0.000 N 
ATOM     17  H   UNL     1       3.806   0.821  17.707  0.00  0.00    +0.000 HD
ATOM     18  H   UNL     1       4.854   1.096  19.017  0.00  0.00    +0.000 HD
ENDBRANCH  11  16
BRANCH  10  19
ATOM     19  C   UNL     1       1.362   2.743  18.444  0.00  0.00    +0.000 C 
ATOM     20  N   UNL     1       0.235   2.187  18.534  0.00  0.00    +0.000 NA
ENDBRANCH  10  19
TORSDOF 3
ENDMDL
MODEL 8
REMARK VINA RESULT:      -5.7      2.675      4.807
REMARK  Name = 
REMARK  6 active torsions:
REMARK  status: ('A' for Active; 'I' for Inactive)
REMARK    1  A    between atoms: C_1  and  C_2
REMARK    2  A    between atoms: C_9  and  C_10
REMARK    3  A    between atoms: C_10  and  C_11
REMARK    4  A    between atoms: C_10  and  C_12
REMARK    5  A    between atoms: C_13  and  C_14
REMARK    6  A    between atoms: C_16  and  N_17
REMARK                            x       y       z     vdW  Elec       q    Type
REMARK                         _______ _______ _______ _____ _____    ______ ____
ROOT
ATOM      1  C   UNL     1       1.172   9.876  18.435  0.00  0.00    +0.000 C 
ATOM      2  C   UNL     1       1.905   8.596  18.661  0.00  0.00    +0.000 A 
ATOM      3  C   UNL     1       1.618   7.705  19.619  0.00  0.00    +0.000 A 
ATOM      4  C   UNL     1       2.331   6.458  19.646  0.00  0.00    +0.000 A 
ATOM      5  C   UNL     1       3.272   6.183  18.735  0.00  0.00    +0.000 A 
ATOM      6  C   UNL     1       3.767   7.272  17.870  0.00  0.00    +0.000 A 
ATOM      7  O   UNL     1       4.828   7.173  17.267  0.00  0.00    +0.000 OA
ATOM      8  O   UNL     1       2.980   8.385  17.767  0.00  0.00    +0.000 OA
ATOM      9  C   UNL     1       3.885   4.810  18.635  0.00  0.00    +0.000 C 
ATOM     10  C   UNL     1       3.579   3.997  19.905  0.00  0.00    +0.000 C 
ATOM     11  C   UNL     1       2.632   4.367  20.789  0.00  0.00    +0.000 C 
ATOM     12  O   UNL     1       1.925   5.558  20.616  0.00  0.00    +0.000 OA
ENDROOT
BRANCH   9  13
ATOM     13  C   UNL     1       3.426   4.009  17.351  0.00  0.00    +0.000 C 
ATOM     14  C   UNL     1       4.590   3.443  16.524  0.00  0.00    +0.000 C 
ATOM     15  C   UNL     1       2.419   2.883  17.626  0.00  0.00    +0.000 C 
ENDBRANCH   9  13
BRANCH  11  16
ATOM     16  N   UNL     1       2.233   3.641  21.883  0.00  0.00    +0.000 N 
ATOM     17  H   UNL     1       1.253   3.724  22.142  0.00  0.00    +0.000 HD
ATOM     18  H   UNL     1       2.567   2.681  21.860  0.00  0.00    +0.000 HD
ENDBRANCH  11  16
BRANCH  10  19
ATOM     19  C   UNL     1       4.308   2.667  19.987  0.00  0.00    +0.000 C 
ATOM     20  N   UNL     1       4.913   1.563  20.056  0.00  0.00    +0.000 NA
ENDBRANCH  10  19
TORSDOF 3
ENDMDL
MODEL 9
REMARK VINA RESULT:      -5.7      2.827      3.969
REMARK  Name = 
REMARK  6 active torsions:
REMARK  status: ('A' for Active; 'I' for Inactive)
REMARK    1  A    between atoms: C_1  and  C_2
REMARK    2  A    between atoms: C_9  and  C_10
REMARK    3  A    between atoms: C_10  and  C_11
REMARK    4  A    between atoms: C_10  and  C_12
REMARK    5  A    between atoms: C_13  and  C_14
REMARK    6  A    between atoms: C_16  and  N_17
REMARK                            x       y       z     vdW  Elec       q    Type
REMARK                         _______ _______ _______ _____ _____    ______ ____
ROOT
ATOM      1  C   UNL     1       7.599   7.329  17.237  0.00  0.00    +0.000 C 
ATOM      2  C   UNL     1       6.322   6.588  17.453  0.00  0.00    +0.000 A 
ATOM      3  C   UNL     1       6.199   5.254  17.460  0.00  0.00    +0.000 A 
ATOM      4  C   UNL     1       4.929   4.675  17.799  0.00  0.00    +0.000 A 
ATOM      5  C   UNL     1       3.878   5.446  18.100  0.00  0.00    +0.000 A 
ATOM      6  C   UNL     1       3.951   6.893  17.817  0.00  0.00    +0.000 A 
ATOM      7  O   UNL     1       2.941   7.582  17.757  0.00  0.00    +0.000 OA
ATOM      8  O   UNL     1       5.198   7.426  17.641  0.00  0.00    +0.000 OA
ATOM      9  C   UNL     1       2.603   4.853  18.643  0.00  0.00    +0.000 C 
ATOM     10  C   UNL     1       2.582   3.333  18.408  0.00  0.00    +0.000 C 
ATOM     11  C   UNL     1       3.686   2.637  18.074  0.00  0.00    +0.000 C 
ATOM     12  O   UNL     1       4.901   3.292  17.861  0.00  0.00    +0.000 OA
ENDROOT
BRANCH   9  13
ATOM     13  C   UNL     1       2.365   5.172  20.174  0.00  0.00    +0.000 C 
ATOM     14  C   UNL     1       1.032   5.881  20.459  0.00  0.00    +0.000 C 
ATOM     15  C   UNL     1       2.490   3.959  21.106  0.00  0.00    +0.000 C 
ENDBRANCH   9  13
BRANCH  11  16
ATOM     16  N   UNL     1       3.765   1.273  17.952  0.00  0.00    +0.000 N 
ATOM     17  H   UNL     1       4.598   0.912  17.494  0.00  0.00    +0.000 HD
ATOM     18  H   UNL     1       3.534   0.788  18.815  0.00  0.00    +0.000 HD
ENDBRANCH  11  16
BRANCH  10  19
ATOM     19  C   UNL     1       1.260   2.666  18.749  0.00  0.00    +0.000 C 
ATOM     20  N   UNL     1       0.163   2.112  19.032  0.00  0.00    +0.000 NA
ENDBRANCH  10  19
TORSDOF 3
ENDMDL
