MODEL 1
REMARK VINA RESULT:      -7.0      0.000      0.000
REMARK  Name = 
REMARK  8 active torsions:
REMARK  status: ('A' for Active; 'I' for Inactive)
REMARK    1  A    between atoms: C_1  and  C_2
REMARK    2  A    between atoms: C_2  and  C_3
REMARK    3  A    between atoms: C_3  and  O_4
REMARK    4  A    between atoms: O_4  and  C_5
REMARK    5  A    between atoms: C_5  and  C_7
REMARK    6  A    between atoms: C_7  and  S_8
REMARK    7  A    between atoms: S_8  and  C_9
REMARK    8  A    between atoms: C_12  and  C_13
REMARK                            x       y       z     vdW  Elec       q    Type
REMARK                         _______ _______ _______ _____ _____    ______ ____
ROOT
ATOM      1  C   UNL     1       5.638   5.459  17.845  0.00  0.00    +0.000 A 
ATOM      2  N   UNL     1       6.492   4.677  18.474  0.00  0.00    +0.000 NA
ATOM      3  N   UNL     1       5.757   3.934  19.374  0.00  0.00    +0.000 NA
ATOM      4  C   UNL     1       4.501   4.307  19.230  0.00  0.00    +0.000 A 
ATOM      5  O   UNL     1       4.352   5.288  18.284  0.00  0.00    +0.000 OA
ENDROOT
BRANCH   4   6
ATOM      6  C   UNL     1       3.300   3.822  19.897  0.00  0.00    +0.000 A 
ATOM      7  C   UNL     1       2.065   4.439  19.636  0.00  0.00    +0.000 A 
ATOM      8  C   UNL     1       0.898   4.013  20.279  0.00  0.00    +0.000 A 
ATOM      9  C   UNL     1       0.952   2.965  21.194  0.00  0.00    +0.000 A 
ATOM     10  C   UNL     1       2.167   2.338  21.462  0.00  0.00    +0.000 A 
ATOM     11  C   UNL     1       3.333   2.763  20.817  0.00  0.00    +0.000 A 
ENDBRANCH   4   6
BRANCH   1  12
ATOM     12  S   UNL     1       6.070   6.565  16.574  0.00  0.00    +0.000 S 
BRANCH  12  13
ATOM     13  C   UNL     1       5.520   5.605  15.125  0.00  0.00    +0.000 C 
BRANCH  13  14
ATOM     14  C   UNL     1       6.686   4.897  14.465  0.00  0.00    +0.000 C 
ATOM     15  O   UNL     1       7.841   5.303  14.446  0.00  0.00    +0.000 OA
BRANCH  14  16
ATOM     16  O   UNL     1       6.254   3.750  13.865  0.00  0.00    +0.000 OA
BRANCH  16  17
ATOM     17  C   UNL     1       6.497   3.671  12.454  0.00  0.00    +0.000 C 
BRANCH  17  19
ATOM     18  C   UNL     1       4.256   3.239  11.439  0.00  0.00    +0.000 C 
ATOM     19  C   UNL     1       5.605   2.632  11.784  0.00  0.00    +0.000 C 
ENDBRANCH  17  19
ENDBRANCH  16  17
ENDBRANCH  14  16
ENDBRANCH  13  14
ENDBRANCH  12  13
ENDBRANCH   1  12
TORSDOF 7
ENDMDL
MODEL 2
REMARK VINA RESULT:      -6.9      2.039      7.198
REMARK  Name = 
REMARK  8 active torsions:
REMARK  status: ('A' for Active; 'I' for Inactive)
REMARK    1  A    between atoms: C_1  and  C_2
REMARK    2  A    between atoms: C_2  and  C_3
REMARK    3  A    between atoms: C_3  and  O_4
REMARK    4  A    between atoms: O_4  and  C_5
REMARK    5  A    between atoms: C_5  and  C_7
REMARK    6  A    between atoms: C_7  and  S_8
REMARK    7  A    between atoms: S_8  and  C_9
REMARK    8  A    between atoms: C_12  and  C_13
REMARK                            x       y       z     vdW  Elec       q    Type
REMARK                         _______ _______ _______ _____ _____    ______ ____
ROOT
ATOM      1  C   UNL     1       6.083   5.255  17.841  0.00  0.00    +0.000 A 
ATOM      2  N   UNL     1       6.950   6.239  17.711  0.00  0.00    +0.000 NA
ATOM      3  N   UNL     1       7.372   6.222  16.399  0.00  0.00    +0.000 NA
ATOM      4  C   UNL     1       6.729   5.234  15.811  0.00  0.00    +0.000 A 
ATOM      5  O   UNL     1       5.902   4.561  16.674  0.00  0.00    +0.000 OA
ENDROOT
BRANCH   4   6
ATOM      6  C   UNL     1       6.762   4.791  14.423  0.00  0.00    +0.000 A 
ATOM      7  C   UNL     1       5.863   3.802  13.988  0.00  0.00    +0.000 A 
ATOM      8  C   UNL     1       5.886   3.340  12.670  0.00  0.00    +0.000 A 
ATOM      9  C   UNL     1       6.810   3.858  11.766  0.00  0.00    +0.000 A 
ATOM     10  C   UNL     1       7.706   4.843  12.178  0.00  0.00    +0.000 A 
ATOM     11  C   UNL     1       7.681   5.307  13.497  0.00  0.00    +0.000 A 
ENDBRANCH   4   6
BRANCH   1  12
ATOM     12  S   UNL     1       5.230   4.884  19.310  0.00  0.00    +0.000 S 
BRANCH  12  13
ATOM     13  C   UNL     1       4.542   3.254  18.867  0.00  0.00    +0.000 C 
BRANCH  13  14
ATOM     14  C   UNL     1       4.354   2.388  20.097  0.00  0.00    +0.000 C 
ATOM     15  O   UNL     1       5.214   1.674  20.596  0.00  0.00    +0.000 OA
BRANCH  14  16
ATOM     16  O   UNL     1       3.072   2.497  20.551  0.00  0.00    +0.000 OA
BRANCH  16  17
ATOM     17  C   UNL     1       2.057   2.354  19.548  0.00  0.00    +0.000 C 
BRANCH  17  19
ATOM     18  C   UNL     1       1.282   4.510  20.540  0.00  0.00    +0.000 C 
ATOM     19  C   UNL     1       0.848   3.235  19.839  0.00  0.00    +0.000 C 
ENDBRANCH  17  19
ENDBRANCH  16  17
ENDBRANCH  14  16
ENDBRANCH  13  14
ENDBRANCH  12  13
ENDBRANCH   1  12
TORSDOF 7
ENDMDL
MODEL 3
REMARK VINA RESULT:      -6.9      1.817      7.133
REMARK  Name = 
REMARK  8 active torsions:
REMARK  status: ('A' for Active; 'I' for Inactive)
REMARK    1  A    between atoms: C_1  and  C_2
REMARK    2  A    between atoms: C_2  and  C_3
REMARK    3  A    between atoms: C_3  and  O_4
REMARK    4  A    between atoms: O_4  and  C_5
REMARK    5  A    between atoms: C_5  and  C_7
REMARK    6  A    between atoms: C_7  and  S_8
REMARK    7  A    between atoms: S_8  and  C_9
REMARK    8  A    between atoms: C_12  and  C_13
REMARK                            x       y       z     vdW  Elec       q    Type
REMARK                         _______ _______ _______ _____ _____    ______ ____
ROOT
ATOM      1  C   UNL     1       5.697   4.902  17.850  0.00  0.00    +0.000 A 
ATOM      2  N   UNL     1       6.963   4.679  18.144  0.00  0.00    +0.000 NA
ATOM      3  N   UNL     1       7.612   4.462  16.946  0.00  0.00    +0.000 NA
ATOM      4  C   UNL     1       6.702   4.575  16.000  0.00  0.00    +0.000 A 
ATOM      5  O   UNL     1       5.454   4.838  16.504  0.00  0.00    +0.000 OA
ENDROOT
BRANCH   4   6
ATOM      6  C   UNL     1       6.842   4.481  14.553  0.00  0.00    +0.000 A 
ATOM      7  C   UNL     1       7.714   5.354  13.882  0.00  0.00    +0.000 A 
ATOM      8  C   UNL     1       7.852   5.306  12.492  0.00  0.00    +0.000 A 
ATOM      9  C   UNL     1       7.116   4.384  11.752  0.00  0.00    +0.000 A 
ATOM     10  C   UNL     1       6.249   3.507  12.401  0.00  0.00    +0.000 A 
ATOM     11  C   UNL     1       6.114   3.554  13.791  0.00  0.00    +0.000 A 
ENDBRANCH   4   6
BRANCH   1  12
ATOM     12  S   UNL     1       4.467   5.272  19.022  0.00  0.00    +0.000 S 
BRANCH  12  13
ATOM     13  C   UNL     1       2.992   5.220  17.951  0.00  0.00    +0.000 C 
BRANCH  13  14
ATOM     14  C   UNL     1       2.391   3.828  17.917  0.00  0.00    +0.000 C 
ATOM     15  O   UNL     1       2.949   2.827  17.487  0.00  0.00    +0.000 OA
BRANCH  14  16
ATOM     16  O   UNL     1       1.119   3.860  18.409  0.00  0.00    +0.000 OA
BRANCH  16  17
ATOM     17  C   UNL     1       0.870   2.976  19.512  0.00  0.00    +0.000 C 
BRANCH  17  19
ATOM     18  C   UNL     1       2.350   2.752  21.510  0.00  0.00    +0.000 C 
ATOM     19  C   UNL     1       1.283   3.600  20.840  0.00  0.00    +0.000 C 
ENDBRANCH  17  19
ENDBRANCH  16  17
ENDBRANCH  14  16
ENDBRANCH  13  14
ENDBRANCH  12  13
ENDBRANCH   1  12
TORSDOF 7
ENDMDL
MODEL 4
REMARK VINA RESULT:      -6.9      3.072      4.767
REMARK  Name = 
REMARK  8 active torsions:
REMARK  status: ('A' for Active; 'I' for Inactive)
REMARK    1  A    between atoms: C_1  and  C_2
REMARK    2  A    between atoms: C_2  and  C_3
REMARK    3  A    between atoms: C_3  and  O_4
REMARK    4  A    between atoms: O_4  and  C_5
REMARK    5  A    between atoms: C_5  and  C_7
REMARK    6  A    between atoms: C_7  and  S_8
REMARK    7  A    between atoms: S_8  and  C_9
REMARK    8  A    between atoms: C_12  and  C_13
REMARK                            x       y       z     vdW  Elec       q    Type
REMARK                         _______ _______ _______ _____ _____    ______ ____
ROOT
ATOM      1  C   UNL     1       5.603   4.199  17.038  0.00  0.00    +0.000 A 
ATOM      2  N   UNL     1       4.657   4.023  16.137  0.00  0.00    +0.000 NA
ATOM      3  N   UNL     1       3.511   3.696  16.830  0.00  0.00    +0.000 NA
ATOM      4  C   UNL     1       3.830   3.700  18.108  0.00  0.00    +0.000 A 
ATOM      5  O   UNL     1       5.153   3.996  18.315  0.00  0.00    +0.000 OA
ENDROOT
BRANCH   4   6
ATOM      6  C   UNL     1       2.998   3.464  19.280  0.00  0.00    +0.000 A 
ATOM      7  C   UNL     1       1.723   4.050  19.357  0.00  0.00    +0.000 A 
ATOM      8  C   UNL     1       0.911   3.862  20.479  0.00  0.00    +0.000 A 
ATOM      9  C   UNL     1       1.364   3.085  21.542  0.00  0.00    +0.000 A 
ATOM     10  C   UNL     1       2.623   2.492  21.482  0.00  0.00    +0.000 A 
ATOM     11  C   UNL     1       3.434   2.679  20.359  0.00  0.00    +0.000 A 
ENDBRANCH   4   6
BRANCH   1  12
ATOM     12  S   UNL     1       7.237   4.669  16.669  0.00  0.00    +0.000 S 
BRANCH  12  13
ATOM     13  C   UNL     1       7.216   6.382  17.293  0.00  0.00    +0.000 C 
BRANCH  13  14
ATOM     14  C   UNL     1       7.916   6.483  18.634  0.00  0.00    +0.000 C 
ATOM     15  O   UNL     1       7.953   5.599  19.481  0.00  0.00    +0.000 OA
BRANCH  14  16
ATOM     16  O   UNL     1       8.476   7.719  18.774  0.00  0.00    +0.000 OA
BRANCH  16  17
ATOM     17  C   UNL     1       8.027   8.701  17.830  0.00  0.00    +0.000 C 
BRANCH  17  19
ATOM     18  C   UNL     1       9.273  10.107  19.476  0.00  0.00    +0.000 C 
ATOM     19  C   UNL     1       8.664  10.063  18.085  0.00  0.00    +0.000 C 
ENDBRANCH  17  19
ENDBRANCH  16  17
ENDBRANCH  14  16
ENDBRANCH  13  14
ENDBRANCH  12  13
ENDBRANCH   1  12
TORSDOF 7
ENDMDL
MODEL 5
REMARK VINA RESULT:      -6.8      1.729      1.762
REMARK  Name = 
REMARK  8 active torsions:
REMARK  status: ('A' for Active; 'I' for Inactive)
REMARK    1  A    between atoms: C_1  and  C_2
REMARK    2  A    between atoms: C_2  and  C_3
REMARK    3  A    between atoms: C_3  and  O_4
REMARK    4  A    between atoms: O_4  and  C_5
REMARK    5  A    between atoms: C_5  and  C_7
REMARK    6  A    between atoms: C_7  and  S_8
REMARK    7  A    between atoms: S_8  and  C_9
REMARK    8  A    between atoms: C_12  and  C_13
REMARK                            x       y       z     vdW  Elec       q    Type
REMARK                         _______ _______ _______ _____ _____    ______ ____
ROOT
ATOM      1  C   UNL     1       4.198   6.494  17.055  0.00  0.00    +0.000 A 
ATOM      2  N   UNL     1       3.619   7.526  17.636  0.00  0.00    +0.000 NA
ATOM      3  N   UNL     1       2.793   7.014  18.614  0.00  0.00    +0.000 NA
ATOM      4  C   UNL     1       2.928   5.704  18.571  0.00  0.00    +0.000 A 
ATOM      5  O   UNL     1       3.795   5.300  17.589  0.00  0.00    +0.000 OA
ENDROOT
BRANCH   4   6
ATOM      6  C   UNL     1       2.321   4.674  19.404  0.00  0.00    +0.000 A 
ATOM      7  C   UNL     1       1.456   3.732  18.822  0.00  0.00    +0.000 A 
ATOM      8  C   UNL     1       0.839   2.746  19.598  0.00  0.00    +0.000 A 
ATOM      9  C   UNL     1       1.078   2.690  20.969  0.00  0.00    +0.000 A 
ATOM     10  C   UNL     1       1.937   3.613  21.563  0.00  0.00    +0.000 A 
ATOM     11  C   UNL     1       2.555   4.597  20.785  0.00  0.00    +0.000 A 
ENDBRANCH   4   6
BRANCH   1  12
ATOM     12  S   UNL     1       5.370   6.617  15.775  0.00  0.00    +0.000 S 
BRANCH  12  13
ATOM     13  C   UNL     1       5.572   4.851  15.368  0.00  0.00    +0.000 C 
BRANCH  13  14
ATOM     14  C   UNL     1       6.707   4.644  14.384  0.00  0.00    +0.000 C 
ATOM     15  O   UNL     1       7.643   5.413  14.213  0.00  0.00    +0.000 OA
BRANCH  14  16
ATOM     16  O   UNL     1       6.514   3.485  13.691  0.00  0.00    +0.000 OA
BRANCH  16  17
ATOM     17  C   UNL     1       6.289   3.647  12.284  0.00  0.00    +0.000 C 
BRANCH  17  19
ATOM     18  C   UNL     1       4.067   3.223  11.224  0.00  0.00    +0.000 C 
ATOM     19  C   UNL     1       5.345   2.582  11.736  0.00  0.00    +0.000 C 
ENDBRANCH  17  19
ENDBRANCH  16  17
ENDBRANCH  14  16
ENDBRANCH  13  14
ENDBRANCH  12  13
ENDBRANCH   1  12
TORSDOF 7
ENDMDL
MODEL 6
REMARK VINA RESULT:      -6.8      1.916      7.093
REMARK  Name = 
REMARK  8 active torsions:
REMARK  status: ('A' for Active; 'I' for Inactive)
REMARK    1  A    between atoms: C_1  and  C_2
REMARK    2  A    between atoms: C_2  and  C_3
REMARK    3  A    between atoms: C_3  and  O_4
REMARK    4  A    between atoms: O_4  and  C_5
REMARK    5  A    between atoms: C_5  and  C_7
REMARK    6  A    between atoms: C_7  and  S_8
REMARK    7  A    between atoms: S_8  and  C_9
REMARK    8  A    between atoms: C_12  and  C_13
REMARK                            x       y       z     vdW  Elec       q    Type
REMARK                         _______ _______ _______ _____ _____    ______ ____
ROOT
ATOM      1  C   UNL     1       5.602   5.198  17.888  0.00  0.00    +0.000 A 
ATOM      2  N   UNL     1       6.711   5.901  17.995  0.00  0.00    +0.000 NA
ATOM      3  N   UNL     1       7.329   5.852  16.763  0.00  0.00    +0.000 NA
ATOM      4  C   UNL     1       6.552   5.128  15.982  0.00  0.00    +0.000 A 
ATOM      5  O   UNL     1       5.441   4.663  16.637  0.00  0.00    +0.000 OA
ENDROOT
BRANCH   4   6
ATOM      6  C   UNL     1       6.699   4.787  14.574  0.00  0.00    +0.000 A 
ATOM      7  C   UNL     1       5.878   3.797  14.009  0.00  0.00    +0.000 A 
ATOM      8  C   UNL     1       6.011   3.431  12.667  0.00  0.00    +0.000 A 
ATOM      9  C   UNL     1       6.970   4.050  11.869  0.00  0.00    +0.000 A 
ATOM     10  C   UNL     1       7.791   5.037  12.410  0.00  0.00    +0.000 A 
ATOM     11  C   UNL     1       7.656   5.404  13.752  0.00  0.00    +0.000 A 
ENDBRANCH   4   6
BRANCH   1  12
ATOM     12  S   UNL     1       4.443   4.988  19.168  0.00  0.00    +0.000 S 
BRANCH  12  13
ATOM     13  C   UNL     1       2.916   5.446  18.283  0.00  0.00    +0.000 C 
BRANCH  13  14
ATOM     14  C   UNL     1       2.103   4.217  17.926  0.00  0.00    +0.000 C 
ATOM     15  O   UNL     1       1.102   4.212  17.220  0.00  0.00    +0.000 OA
BRANCH  14  16
ATOM     16  O   UNL     1       2.633   3.116  18.533  0.00  0.00    +0.000 OA
BRANCH  16  17
ATOM     17  C   UNL     1       1.702   2.330  19.289  0.00  0.00    +0.000 C 
BRANCH  17  19
ATOM     18  C   UNL     1       2.043   2.944  21.686  0.00  0.00    +0.000 C 
ATOM     19  C   UNL     1       1.140   3.105  20.475  0.00  0.00    +0.000 C 
ENDBRANCH  17  19
ENDBRANCH  16  17
ENDBRANCH  14  16
ENDBRANCH  13  14
ENDBRANCH  12  13
ENDBRANCH   1  12
TORSDOF 7
ENDMDL
MODEL 7
REMARK VINA RESULT:      -6.7      2.146      7.217
REMARK  Name = 
REMARK  8 active torsions:
REMARK  status: ('A' for Active; 'I' for Inactive)
REMARK    1  A    between atoms: C_1  and  C_2
REMARK    2  A    between atoms: C_2  and  C_3
REMARK    3  A    between atoms: C_3  and  O_4
REMARK    4  A    between atoms: O_4  and  C_5
REMARK    5  A    between atoms: C_5  and  C_7
REMARK    6  A    between atoms: C_7  and  S_8
REMARK    7  A    between atoms: S_8  and  C_9
REMARK    8  A    between atoms: C_12  and  C_13
REMARK                            x       y       z     vdW  Elec       q    Type
REMARK                         _______ _______ _______ _____ _____    ______ ____
ROOT
ATOM      1  C   UNL     1       5.309   4.383  17.849  0.00  0.00    +0.000 A 
ATOM      2  N   UNL     1       5.688   5.645  17.863  0.00  0.00    +0.000 NA
ATOM      3  N   UNL     1       6.179   5.922  16.605  0.00  0.00    +0.000 NA
ATOM      4  C   UNL     1       6.061   4.813  15.903  0.00  0.00    +0.000 A 
ATOM      5  O   UNL     1       5.529   3.784  16.637  0.00  0.00    +0.000 OA
ENDROOT
BRANCH   4   6
ATOM      6  C   UNL     1       6.385   4.551  14.507  0.00  0.00    +0.000 A 
ATOM      7  C   UNL     1       7.440   5.250  13.896  0.00  0.00    +0.000 A 
ATOM      8  C   UNL     1       7.760   5.038  12.552  0.00  0.00    +0.000 A 
ATOM      9  C   UNL     1       7.028   4.124  11.799  0.00  0.00    +0.000 A 
ATOM     10  C   UNL     1       5.981   3.419  12.388  0.00  0.00    +0.000 A 
ATOM     11  C   UNL     1       5.663   3.629  13.733  0.00  0.00    +0.000 A 
ENDBRANCH   4   6
BRANCH   1  12
ATOM     12  S   UNL     1       4.579   3.560  19.197  0.00  0.00    +0.000 S 
BRANCH  12  13
ATOM     13  C   UNL     1       3.746   2.198  18.316  0.00  0.00    +0.000 C 
BRANCH  13  14
ATOM     14  C   UNL     1       2.344   2.596  17.898  0.00  0.00    +0.000 C 
ATOM     15  O   UNL     1       2.069   3.338  16.964  0.00  0.00    +0.000 OA
BRANCH  14  16
ATOM     16  O   UNL     1       1.430   2.028  18.737  0.00  0.00    +0.000 OA
BRANCH  16  17
ATOM     17  C   UNL     1       0.492   2.940  19.324  0.00  0.00    +0.000 C 
BRANCH  17  19
ATOM     18  C   UNL     1       1.542   2.724  21.579  0.00  0.00    +0.000 C 
ATOM     19  C   UNL     1       1.099   3.696  20.500  0.00  0.00    +0.000 C 
ENDBRANCH  17  19
ENDBRANCH  16  17
ENDBRANCH  14  16
ENDBRANCH  13  14
ENDBRANCH  12  13
ENDBRANCH   1  12
TORSDOF 7
ENDMDL
MODEL 8
REMARK VINA RESULT:      -6.7      0.961      1.438
REMARK  Name = 
REMARK  8 active torsions:
REMARK  status: ('A' for Active; 'I' for Inactive)
REMARK    1  A    between atoms: C_1  and  C_2
REMARK    2  A    between atoms: C_2  and  C_3
REMARK    3  A    between atoms: C_3  and  O_4
REMARK    4  A    between atoms: O_4  and  C_5
REMARK    5  A    between atoms: C_5  and  C_7
REMARK    6  A    between atoms: C_7  and  S_8
REMARK    7  A    between atoms: S_8  and  C_9
REMARK    8  A    between atoms: C_12  and  C_13
REMARK                            x       y       z     vdW  Elec       q    Type
REMARK                         _______ _______ _______ _____ _____    ______ ____
ROOT
ATOM      1  C   UNL     1       6.105   5.203  17.994  0.00  0.00    +0.000 A 
ATOM      2  N   UNL     1       6.553   5.004  19.217  0.00  0.00    +0.000 NA
ATOM      3  N   UNL     1       5.503   4.479  19.941  0.00  0.00    +0.000 NA
ATOM      4  C   UNL     1       4.484   4.386  19.110  0.00  0.00    +0.000 A 
ATOM      5  O   UNL     1       4.790   4.846  17.855  0.00  0.00    +0.000 OA
ENDROOT
BRANCH   4   6
ATOM      6  C   UNL     1       3.142   3.865  19.331  0.00  0.00    +0.000 A 
ATOM      7  C   UNL     1       2.746   3.494  20.627  0.00  0.00    +0.000 A 
ATOM      8  C   UNL     1       1.473   2.968  20.867  0.00  0.00    +0.000 A 
ATOM      9  C   UNL     1       0.578   2.803  19.813  0.00  0.00    +0.000 A 
ATOM     10  C   UNL     1       0.952   3.170  18.522  0.00  0.00    +0.000 A 
ATOM     11  C   UNL     1       2.224   3.698  18.283  0.00  0.00    +0.000 A 
ENDBRANCH   4   6
BRANCH   1  12
ATOM     12  S   UNL     1       7.067   5.819  16.683  0.00  0.00    +0.000 S 
BRANCH  12  13
ATOM     13  C   UNL     1       6.041   5.293  15.270  0.00  0.00    +0.000 C 
BRANCH  13  14
ATOM     14  C   UNL     1       6.902   4.809  14.120  0.00  0.00    +0.000 C 
ATOM     15  O   UNL     1       7.890   5.387  13.686  0.00  0.00    +0.000 OA
BRANCH  14  16
ATOM     16  O   UNL     1       6.394   3.647  13.617  0.00  0.00    +0.000 OA
BRANCH  16  17
ATOM     17  C   UNL     1       6.379   3.559  12.185  0.00  0.00    +0.000 C 
BRANCH  17  19
ATOM     18  C   UNL     1       6.315   1.266  11.197  0.00  0.00    +0.000 C 
ATOM     19  C   UNL     1       5.478   2.430  11.699  0.00  0.00    +0.000 C 
ENDBRANCH  17  19
ENDBRANCH  16  17
ENDBRANCH  14  16
ENDBRANCH  13  14
ENDBRANCH  12  13
ENDBRANCH   1  12
TORSDOF 7
ENDMDL
MODEL 9
REMARK VINA RESULT:      -6.6      0.866      1.062
REMARK  Name = 
REMARK  8 active torsions:
REMARK  status: ('A' for Active; 'I' for Inactive)
REMARK    1  A    between atoms: C_1  and  C_2
REMARK    2  A    between atoms: C_2  and  C_3
REMARK    3  A    between atoms: C_3  and  O_4
REMARK    4  A    between atoms: O_4  and  C_5
REMARK    5  A    between atoms: C_5  and  C_7
REMARK    6  A    between atoms: C_7  and  S_8
REMARK    7  A    between atoms: S_8  and  C_9
REMARK    8  A    between atoms: C_12  and  C_13
REMARK                            x       y       z     vdW  Elec       q    Type
REMARK                         _______ _______ _______ _____ _____    ______ ____
ROOT
ATOM      1  C   UNL     1       5.386   5.026  17.130  0.00  0.00    +0.000 A 
ATOM      2  N   UNL     1       6.349   4.639  17.942  0.00  0.00    +0.000 NA
ATOM      3  N   UNL     1       5.733   4.112  19.058  0.00  0.00    +0.000 NA
ATOM      4  C   UNL     1       4.436   4.205  18.851  0.00  0.00    +0.000 A 
ATOM      5  O   UNL     1       4.140   4.794  17.648  0.00  0.00    +0.000 OA
ENDROOT
BRANCH   4   6
ATOM      6  C   UNL     1       3.322   3.767  19.682  0.00  0.00    +0.000 A 
ATOM      7  C   UNL     1       2.064   4.373  19.532  0.00  0.00    +0.000 A 
ATOM      8  C   UNL     1       0.982   3.992  20.331  0.00  0.00    +0.000 A 
ATOM      9  C   UNL     1       1.144   2.999  21.293  0.00  0.00    +0.000 A 
ATOM     10  C   UNL     1       2.383   2.382  21.453  0.00  0.00    +0.000 A 
ATOM     11  C   UNL     1       3.464   2.763  20.652  0.00  0.00    +0.000 A 
ENDBRANCH   4   6
BRANCH   1  12
ATOM     12  S   UNL     1       5.647   5.724  15.558  0.00  0.00    +0.000 S 
BRANCH  12  13
ATOM     13  C   UNL     1       6.542   4.354  14.754  0.00  0.00    +0.000 C 
BRANCH  13  14
ATOM     14  C   UNL     1       7.314   4.843  13.544  0.00  0.00    +0.000 C 
ATOM     15  O   UNL     1       8.180   5.707  13.559  0.00  0.00    +0.000 OA
BRANCH  14  16
ATOM     16  O   UNL     1       6.878   4.197  12.424  0.00  0.00    +0.000 OA
BRANCH  16  17
ATOM     17  C   UNL     1       6.016   3.075  12.664  0.00  0.00    +0.000 C 
BRANCH  17  19
ATOM     18  C   UNL     1       6.268   1.105  11.150  0.00  0.00    +0.000 C 
ATOM     19  C   UNL     1       5.555   2.429  11.363  0.00  0.00    +0.000 C 
ENDBRANCH  17  19
ENDBRANCH  16  17
ENDBRANCH  14  16
ENDBRANCH  13  14
ENDBRANCH  12  13
ENDBRANCH   1  12
TORSDOF 7
ENDMDL
