MODEL 1
REMARK VINA RESULT:      -7.7      0.000      0.000
REMARK  Name = 
REMARK  14 active torsions:
REMARK  status: ('A' for Active; 'I' for Inactive)
REMARK    1  A    between atoms: N_5  and  O_6
REMARK    2  A    between atoms: N_9  and  C_10
REMARK    3  A    between atoms: C_12  and  O_13
REMARK    4  A    between atoms: C_14  and  C_15
REMARK    5  A    between atoms: C_15  and  O_16
REMARK    6  A    between atoms: O_16  and  P_17
REMARK    7  A    between atoms: P_17  and  O_19
REMARK    8  A    between atoms: P_17  and  O_20
REMARK    9  A    between atoms: O_20  and  P_21
REMARK   10  A    between atoms: P_21  and  O_23
REMARK   11  A    between atoms: P_21  and  O_24
REMARK   12  A    between atoms: O_24  and  P_25
REMARK   13  A    between atoms: P_25  and  O_27
REMARK   14  A    between atoms: P_25  and  O_28
REMARK                            x       y       z     vdW  Elec       q    Type
REMARK                         _______ _______ _______ _____ _____    ______ ____
ROOT
ATOM      1  C   UNL     1       2.010   5.685  20.522  0.00  0.00    +0.000 C 
ATOM      2  C   UNL     1       3.189   4.733  20.693  0.00  0.00    +0.000 C 
ATOM      3  C   UNL     1       2.485   3.390  20.693  0.00  0.00    +0.000 C 
ATOM      4  C   UNL     1       1.439   3.586  19.604  0.00  0.00    +0.000 C 
ATOM      5  O   UNL     1       1.000   4.953  19.767  0.00  0.00    +0.000 OA
ENDROOT
BRANCH   1  13
ATOM      6  O   UNL     1       1.042   8.007  21.668  0.00  0.00    +0.000 OA
ATOM      7  C   UNL     1       1.482   8.086  20.525  0.00  0.00    +0.000 A 
ATOM      8  N   UNL     1       1.216   9.188  19.738  0.00  0.00    +0.000 NA
ATOM      9  C   UNL     1       1.559   9.211  18.486  0.00  0.00    +0.000 A 
ATOM     10  N   UNL     1       1.131  10.247  17.680  0.00  0.00    +0.000 N 
ATOM     11  C   UNL     1       2.377   8.151  17.873  0.00  0.00    +0.000 A 
ATOM     12  C   UNL     1       2.639   7.105  18.650  0.00  0.00    +0.000 A 
ATOM     13  N   UNL     1       2.186   7.015  19.956  0.00  0.00    +0.000 N 
ATOM     14  H   UNL     1       1.559  10.370  16.766  0.00  0.00    +0.000 HD
BRANCH  10  15
ATOM     15  O   UNL     1       0.889  11.442  18.362  0.00  0.00    +0.000 OA
ATOM     16  H   UNL     1       1.768  11.882  18.344  0.00  0.00    +0.000 HD
ENDBRANCH  10  15
ENDBRANCH   1  13
BRANCH   3  17
ATOM     17  O   UNL     1       1.859   3.181  21.968  0.00  0.00    +0.000 OA
ATOM     18  H   UNL     1       2.208   2.366  22.371  0.00  0.00    +0.000 HD
ENDBRANCH   3  17
BRANCH   4  19
ATOM     19  C   UNL     1       1.999   3.422  18.187  0.00  0.00    +0.000 C 
BRANCH  19  20
ATOM     20  O   UNL     1       3.149   2.587  18.167  0.00  0.00    +0.000 OA
BRANCH  20  21
ATOM     21  P   UNL     1       4.389   3.213  17.136  0.00  0.00    +0.000 P 
ATOM     22  O   UNL     1       3.655   4.553  17.076  0.00  0.00    +0.000 OA
BRANCH  21  23
ATOM     23  O   UNL     1       5.359   3.314  18.443  0.00  0.00    +0.000 OA
ATOM     24  H   UNL     1       5.038   4.051  18.996  0.00  0.00    +0.000 HD
ENDBRANCH  21  23
BRANCH  21  25
ATOM     25  O   UNL     1       5.628   3.840  16.105  0.00  0.00    +0.000 OA
BRANCH  25  26
ATOM     26  P   UNL     1       6.881   4.806  16.452  0.00  0.00    +0.000 P 
ATOM     27  O   UNL     1       7.621   5.280  15.241  0.00  0.00    +0.000 OA
BRANCH  26  28
ATOM     28  O   UNL     1       5.981   5.972  17.075  0.00  0.00    +0.000 OA
ATOM     29  H   UNL     1       6.511   6.402  17.778  0.00  0.00    +0.000 HD
ENDBRANCH  26  28
BRANCH  26  30
ATOM     30  O   UNL     1       7.854   4.656  17.744  0.00  0.00    +0.000 OA
BRANCH  30  31
ATOM     31  P   UNL     1       7.758   5.585  19.081  0.00  0.00    +0.000 P 
ATOM     32  O   UNL     1       6.402   5.664  19.715  0.00  0.00    +0.000 OA
BRANCH  31  33
ATOM     33  O   UNL     1       8.785   5.115  20.221  0.00  0.00    +0.000 OA
ATOM     34  H   UNL     1       9.062   4.180  20.094  0.00  0.00    +0.000 HD
ENDBRANCH  31  33
BRANCH  31  35
ATOM     35  O   UNL     1       8.224   7.094  18.782  0.00  0.00    +0.000 OA
ATOM     36  H   UNL     1       8.806   7.410  19.483  0.00  0.00    +0.000 HD
ENDBRANCH  31  35
ENDBRANCH  30  31
ENDBRANCH  26  30
ENDBRANCH  25  26
ENDBRANCH  21  25
ENDBRANCH  20  21
ENDBRANCH  19  20
ENDBRANCH   4  19
TORSDOF 14
ENDMDL
MODEL 2
REMARK VINA RESULT:      -6.8      4.639      7.186
REMARK  Name = 
REMARK  14 active torsions:
REMARK  status: ('A' for Active; 'I' for Inactive)
REMARK    1  A    between atoms: N_5  and  O_6
REMARK    2  A    between atoms: N_9  and  C_10
REMARK    3  A    between atoms: C_12  and  O_13
REMARK    4  A    between atoms: C_14  and  C_15
REMARK    5  A    between atoms: C_15  and  O_16
REMARK    6  A    between atoms: O_16  and  P_17
REMARK    7  A    between atoms: P_17  and  O_19
REMARK    8  A    between atoms: P_17  and  O_20
REMARK    9  A    between atoms: O_20  and  P_21
REMARK   10  A    between atoms: P_21  and  O_23
REMARK   11  A    between atoms: P_21  and  O_24
REMARK   12  A    between atoms: O_24  and  P_25
REMARK   13  A    between atoms: P_25  and  O_27
REMARK   14  A    between atoms: P_25  and  O_28
REMARK                            x       y       z     vdW  Elec       q    Type
REMARK                         _______ _______ _______ _____ _____    ______ ____
ROOT
ATOM      1  C   UNL     1       6.960   5.765  15.892  0.00  0.00    +0.000 C 
ATOM      2  C   UNL     1       6.985   4.891  17.141  0.00  0.00    +0.000 C 
ATOM      3  C   UNL     1       6.766   5.925  18.229  0.00  0.00    +0.000 C 
ATOM      4  C   UNL     1       5.715   6.827  17.594  0.00  0.00    +0.000 C 
ATOM      5  O   UNL     1       6.092   6.895  16.202  0.00  0.00    +0.000 OA
ENDROOT
BRANCH   1  13
ATOM      6  O   UNL     1       4.805   4.098  15.428  0.00  0.00    +0.000 OA
ATOM      7  C   UNL     1       5.620   4.228  14.520  0.00  0.00    +0.000 A 
ATOM      8  N   UNL     1       5.640   3.350  13.455  0.00  0.00    +0.000 NA
ATOM      9  C   UNL     1       6.588   3.400  12.569  0.00  0.00    +0.000 A 
ATOM     10  N   UNL     1       6.683   2.406  11.614  0.00  0.00    +0.000 N 
ATOM     11  C   UNL     1       7.597   4.472  12.553  0.00  0.00    +0.000 A 
ATOM     12  C   UNL     1       7.553   5.319  13.575  0.00  0.00    +0.000 A 
ATOM     13  N   UNL     1       6.615   5.214  14.590  0.00  0.00    +0.000 N 
ATOM     14  H   UNL     1       7.290   2.550  10.812  0.00  0.00    +0.000 HD
BRANCH  10  15
ATOM     15  O   UNL     1       5.468   1.789  11.306  0.00  0.00    +0.000 OA
ATOM     16  H   UNL     1       5.196   2.249  10.482  0.00  0.00    +0.000 HD
ENDBRANCH  10  15
ENDBRANCH   1  13
BRANCH   3  17
ATOM     17  O   UNL     1       7.987   6.646  18.452  0.00  0.00    +0.000 OA
ATOM     18  H   UNL     1       7.876   7.247  19.210  0.00  0.00    +0.000 HD
ENDBRANCH   3  17
BRANCH   4  19
ATOM     19  C   UNL     1       4.294   6.262  17.686  0.00  0.00    +0.000 C 
BRANCH  19  20
ATOM     20  O   UNL     1       3.524   6.932  18.676  0.00  0.00    +0.000 OA
BRANCH  20  21
ATOM     21  P   UNL     1       2.804   5.827  19.795  0.00  0.00    +0.000 P 
ATOM     22  O   UNL     1       1.838   6.922  20.248  0.00  0.00    +0.000 OA
BRANCH  21  23
ATOM     23  O   UNL     1       2.068   5.102  18.533  0.00  0.00    +0.000 OA
ATOM     24  H   UNL     1       2.716   4.503  18.115  0.00  0.00    +0.000 HD
ENDBRANCH  21  23
BRANCH  21  25
ATOM     25  O   UNL     1       2.083   4.722  20.915  0.00  0.00    +0.000 OA
BRANCH  25  26
ATOM     26  P   UNL     1       1.840   3.126  20.793  0.00  0.00    +0.000 P 
ATOM     27  O   UNL     1       1.924   2.409  22.103  0.00  0.00    +0.000 OA
BRANCH  26  28
ATOM     28  O   UNL     1       0.326   3.258  20.299  0.00  0.00    +0.000 OA
ATOM     29  H   UNL     1      -0.230   2.763  20.935  0.00  0.00    +0.000 HD
ENDBRANCH  26  28
BRANCH  26  30
ATOM     30  O   UNL     1       2.325   2.194  19.553  0.00  0.00    +0.000 OA
BRANCH  30  31
ATOM     31  P   UNL     1       3.885   1.937  19.151  0.00  0.00    +0.000 P 
ATOM     32  O   UNL     1       4.868   2.048  20.278  0.00  0.00    +0.000 OA
BRANCH  31  33
ATOM     33  O   UNL     1       4.107   0.500  18.472  0.00  0.00    +0.000 OA
ATOM     34  H   UNL     1       4.488   0.581  17.569  0.00  0.00    +0.000 HD
ENDBRANCH  31  33
BRANCH  31  35
ATOM     35  O   UNL     1       4.371   2.952  18.003  0.00  0.00    +0.000 OA
ATOM     36  H   UNL     1       3.735   2.968  17.279  0.00  0.00    +0.000 HD
ENDBRANCH  31  35
ENDBRANCH  30  31
ENDBRANCH  26  30
ENDBRANCH  25  26
ENDBRANCH  21  25
ENDBRANCH  20  21
ENDBRANCH  19  20
ENDBRANCH   4  19
TORSDOF 14
ENDMDL
MODEL 3
REMARK VINA RESULT:      -6.7      0.569      1.006
REMARK  Name = 
REMARK  14 active torsions:
REMARK  status: ('A' for Active; 'I' for Inactive)
REMARK    1  A    between atoms: N_5  and  O_6
REMARK    2  A    between atoms: N_9  and  C_10
REMARK    3  A    between atoms: C_12  and  O_13
REMARK    4  A    between atoms: C_14  and  C_15
REMARK    5  A    between atoms: C_15  and  O_16
REMARK    6  A    between atoms: O_16  and  P_17
REMARK    7  A    between atoms: P_17  and  O_19
REMARK    8  A    between atoms: P_17  and  O_20
REMARK    9  A    between atoms: O_20  and  P_21
REMARK   10  A    between atoms: P_21  and  O_23
REMARK   11  A    between atoms: P_21  and  O_24
REMARK   12  A    between atoms: O_24  and  P_25
REMARK   13  A    between atoms: P_25  and  O_27
REMARK   14  A    between atoms: P_25  and  O_28
REMARK                            x       y       z     vdW  Elec       q    Type
REMARK                         _______ _______ _______ _____ _____    ______ ____
ROOT
ATOM      1  C   UNL     1       1.950   5.700  20.390  0.00  0.00    +0.000 C 
ATOM      2  C   UNL     1       3.061   4.683  20.635  0.00  0.00    +0.000 C 
ATOM      3  C   UNL     1       2.287   3.381  20.576  0.00  0.00    +0.000 C 
ATOM      4  C   UNL     1       1.330   3.639  19.420  0.00  0.00    +0.000 C 
ATOM      5  O   UNL     1       0.956   5.027  19.564  0.00  0.00    +0.000 OA
ENDROOT
BRANCH   1  13
ATOM      6  O   UNL     1       1.075   8.070  21.512  0.00  0.00    +0.000 OA
ATOM      7  C   UNL     1       1.575   8.129  20.394  0.00  0.00    +0.000 A 
ATOM      8  N   UNL     1       1.418   9.251  19.606  0.00  0.00    +0.000 NA
ATOM      9  C   UNL     1       1.824   9.262  18.372  0.00  0.00    +0.000 A 
ATOM     10  N   UNL     1       1.501  10.329  17.557  0.00  0.00    +0.000 N 
ATOM     11  C   UNL     1       2.602   8.157  17.789  0.00  0.00    +0.000 A 
ATOM     12  C   UNL     1       2.760   7.091  18.566  0.00  0.00    +0.000 A 
ATOM     13  N   UNL     1       2.238   7.019  19.848  0.00  0.00    +0.000 N 
ATOM     14  H   UNL     1       1.981  10.431  16.666  0.00  0.00    +0.000 HD
BRANCH  10  15
ATOM     15  O   UNL     1       1.302  11.532  18.239  0.00  0.00    +0.000 OA
ATOM     16  H   UNL     1       1.551  11.300  19.161  0.00  0.00    +0.000 HD
ENDBRANCH  10  15
ENDBRANCH   1  13
BRANCH   3  17
ATOM     17  O   UNL     1       1.564   3.202  21.804  0.00  0.00    +0.000 OA
ATOM     18  H   UNL     1       1.628   2.272  22.086  0.00  0.00    +0.000 HD
ENDBRANCH   3  17
BRANCH   4  19
ATOM     19  C   UNL     1       1.975   3.450  18.043  0.00  0.00    +0.000 C 
BRANCH  19  20
ATOM     20  O   UNL     1       3.293   2.925  18.146  0.00  0.00    +0.000 OA
BRANCH  20  21
ATOM     21  P   UNL     1       4.352   3.593  16.953  0.00  0.00    +0.000 P 
ATOM     22  O   UNL     1       3.762   4.979  17.211  0.00  0.00    +0.000 OA
BRANCH  21  23
ATOM     23  O   UNL     1       5.575   3.441  18.022  0.00  0.00    +0.000 OA
ATOM     24  H   UNL     1       5.197   3.523  18.919  0.00  0.00    +0.000 HD
ENDBRANCH  21  23
BRANCH  21  25
ATOM     25  O   UNL     1       5.412   4.262  15.760  0.00  0.00    +0.000 OA
BRANCH  25  26
ATOM     26  P   UNL     1       6.416   5.528  15.853  0.00  0.00    +0.000 P 
ATOM     27  O   UNL     1       7.597   5.421  14.940  0.00  0.00    +0.000 OA
BRANCH  26  28
ATOM     28  O   UNL     1       5.351   6.584  15.300  0.00  0.00    +0.000 OA
ATOM     29  H   UNL     1       5.492   7.421  15.789  0.00  0.00    +0.000 HD
ENDBRANCH  26  28
BRANCH  26  30
ATOM     30  O   UNL     1       6.763   6.355  17.208  0.00  0.00    +0.000 OA
BRANCH  30  31
ATOM     31  P   UNL     1       7.447   5.700  18.536  0.00  0.00    +0.000 P 
ATOM     32  O   UNL     1       8.183   4.412  18.313  0.00  0.00    +0.000 OA
BRANCH  31  33
ATOM     33  O   UNL     1       8.469   6.709  19.252  0.00  0.00    +0.000 OA
ATOM     34  H   UNL     1       8.414   6.644  20.232  0.00  0.00    +0.000 HD
ENDBRANCH  31  33
BRANCH  31  35
ATOM     35  O   UNL     1       6.356   5.424  19.683  0.00  0.00    +0.000 OA
ATOM     36  H   UNL     1       5.558   5.039  19.301  0.00  0.00    +0.000 HD
ENDBRANCH  31  35
ENDBRANCH  30  31
ENDBRANCH  26  30
ENDBRANCH  25  26
ENDBRANCH  21  25
ENDBRANCH  20  21
ENDBRANCH  19  20
ENDBRANCH   4  19
TORSDOF 14
ENDMDL
MODEL 4
REMARK VINA RESULT:      -6.6      4.081      7.667
REMARK  Name = 
REMARK  14 active torsions:
REMARK  status: ('A' for Active; 'I' for Inactive)
REMARK    1  A    between atoms: N_5  and  O_6
REMARK    2  A    between atoms: N_9  and  C_10
REMARK    3  A    between atoms: C_12  and  O_13
REMARK    4  A    between atoms: C_14  and  C_15
REMARK    5  A    between atoms: C_15  and  O_16
REMARK    6  A    between atoms: O_16  and  P_17
REMARK    7  A    between atoms: P_17  and  O_19
REMARK    8  A    between atoms: P_17  and  O_20
REMARK    9  A    between atoms: O_20  and  P_21
REMARK   10  A    between atoms: P_21  and  O_23
REMARK   11  A    between atoms: P_21  and  O_24
REMARK   12  A    between atoms: O_24  and  P_25
REMARK   13  A    between atoms: P_25  and  O_27
REMARK   14  A    between atoms: P_25  and  O_28
REMARK                            x       y       z     vdW  Elec       q    Type
REMARK                         _______ _______ _______ _____ _____    ______ ____
ROOT
ATOM      1  C   UNL     1       3.015   4.324  19.065  0.00  0.00    +0.000 C 
ATOM      2  C   UNL     1       1.531   3.996  18.942  0.00  0.00    +0.000 C 
ATOM      3  C   UNL     1       1.072   4.159  20.378  0.00  0.00    +0.000 C 
ATOM      4  C   UNL     1       1.845   5.397  20.813  0.00  0.00    +0.000 C 
ATOM      5  O   UNL     1       3.135   5.259  20.177  0.00  0.00    +0.000 OA
ENDROOT
BRANCH   1  13
ATOM      6  O   UNL     1       4.335   2.686  17.272  0.00  0.00    +0.000 OA
ATOM      7  C   UNL     1       4.565   3.889  17.207  0.00  0.00    +0.000 A 
ATOM      8  N   UNL     1       5.653   4.366  16.506  0.00  0.00    +0.000 NA
ATOM      9  C   UNL     1       5.978   5.623  16.553  0.00  0.00    +0.000 A 
ATOM     10  N   UNL     1       7.166   6.043  15.987  0.00  0.00    +0.000 N 
ATOM     11  C   UNL     1       5.135   6.630  17.218  0.00  0.00    +0.000 A 
ATOM     12  C   UNL     1       4.081   6.157  17.874  0.00  0.00    +0.000 A 
ATOM     13  N   UNL     1       3.781   4.805  17.925  0.00  0.00    +0.000 N 
ATOM     14  H   UNL     1       7.321   7.038  15.849  0.00  0.00    +0.000 HD
BRANCH  10  15
ATOM     15  O   UNL     1       7.611   5.244  14.931  0.00  0.00    +0.000 OA
ATOM     16  H   UNL     1       8.475   5.653  14.701  0.00  0.00    +0.000 HD
ENDBRANCH  10  15
ENDBRANCH   1  13
BRANCH   3  17
ATOM     17  O   UNL     1       1.479   3.012  21.140  0.00  0.00    +0.000 OA
ATOM     18  H   UNL     1       2.231   3.251  21.710  0.00  0.00    +0.000 HD
ENDBRANCH   3  17
BRANCH   4  19
ATOM     19  C   UNL     1       1.208   6.708  20.340  0.00  0.00    +0.000 C 
BRANCH  19  20
ATOM     20  O   UNL     1       1.252   7.709  21.349  0.00  0.00    +0.000 OA
BRANCH  20  21
ATOM     21  P   UNL     1       1.171   9.304  20.685  0.00  0.00    +0.000 P 
ATOM     22  O   UNL     1       1.671   8.766  19.344  0.00  0.00    +0.000 OA
BRANCH  21  23
ATOM     23  O   UNL     1      -0.451   9.148  20.631  0.00  0.00    +0.000 OA
ATOM     24  H   UNL     1      -0.699   8.414  21.224  0.00  0.00    +0.000 HD
ENDBRANCH  21  23
BRANCH  21  25
ATOM     25  O   UNL     1       1.090  10.899  20.019  0.00  0.00    +0.000 OA
BRANCH  25  26
ATOM     26  P   UNL     1      -0.010  11.561  19.033  0.00  0.00    +0.000 P 
ATOM     27  O   UNL     1       0.375  12.919  18.537  0.00  0.00    +0.000 OA
BRANCH  26  28
ATOM     28  O   UNL     1       0.155  10.457  17.889  0.00  0.00    +0.000 OA
ATOM     29  H   UNL     1       0.409   9.620  18.329  0.00  0.00    +0.000 HD
ENDBRANCH  26  28
BRANCH  26  30
ATOM     30  O   UNL     1      -1.620  11.395  19.176  0.00  0.00    +0.000 OA
BRANCH  30  31
ATOM     31  P   UNL     1      -2.643  11.234  17.915  0.00  0.00    +0.000 P 
ATOM     32  O   UNL     1      -3.061   9.829  17.601  0.00  0.00    +0.000 OA
BRANCH  31  33
ATOM     33  O   UNL     1      -3.984  12.093  18.110  0.00  0.00    +0.000 OA
ATOM     34  H   UNL     1      -3.813  13.057  18.019  0.00  0.00    +0.000 HD
ENDBRANCH  31  33
BRANCH  31  35
ATOM     35  O   UNL     1      -2.018  11.850  16.569  0.00  0.00    +0.000 OA
ATOM     36  H   UNL     1      -1.637  11.150  16.026  0.00  0.00    +0.000 HD
ENDBRANCH  31  35
ENDBRANCH  30  31
ENDBRANCH  26  30
ENDBRANCH  25  26
ENDBRANCH  21  25
ENDBRANCH  20  21
ENDBRANCH  19  20
ENDBRANCH   4  19
TORSDOF 14
ENDMDL
MODEL 5
REMARK VINA RESULT:      -6.6      2.017      3.817
REMARK  Name = 
REMARK  14 active torsions:
REMARK  status: ('A' for Active; 'I' for Inactive)
REMARK    1  A    between atoms: N_5  and  O_6
REMARK    2  A    between atoms: N_9  and  C_10
REMARK    3  A    between atoms: C_12  and  O_13
REMARK    4  A    between atoms: C_14  and  C_15
REMARK    5  A    between atoms: C_15  and  O_16
REMARK    6  A    between atoms: O_16  and  P_17
REMARK    7  A    between atoms: P_17  and  O_19
REMARK    8  A    between atoms: P_17  and  O_20
REMARK    9  A    between atoms: O_20  and  P_21
REMARK   10  A    between atoms: P_21  and  O_23
REMARK   11  A    between atoms: P_21  and  O_24
REMARK   12  A    between atoms: O_24  and  P_25
REMARK   13  A    between atoms: P_25  and  O_27
REMARK   14  A    between atoms: P_25  and  O_28
REMARK                            x       y       z     vdW  Elec       q    Type
REMARK                         _______ _______ _______ _____ _____    ______ ____
ROOT
ATOM      1  C   UNL     1       1.957   8.370  19.390  0.00  0.00    +0.000 C 
ATOM      2  C   UNL     1       1.800   7.857  17.962  0.00  0.00    +0.000 C 
ATOM      3  C   UNL     1       2.923   6.841  17.889  0.00  0.00    +0.000 C 
ATOM      4  C   UNL     1       2.838   6.183  19.260  0.00  0.00    +0.000 C 
ATOM      5  O   UNL     1       2.518   7.266  20.160  0.00  0.00    +0.000 OA
ENDROOT
BRANCH   1  13
ATOM      6  O   UNL     1       1.068  10.962  19.030  0.00  0.00    +0.000 OA
ATOM      7  C   UNL     1       0.610  10.339  19.983  0.00  0.00    +0.000 A 
ATOM      8  N   UNL     1      -0.057  10.990  21.000  0.00  0.00    +0.000 NA
ATOM      9  C   UNL     1      -0.417  10.354  22.074  0.00  0.00    +0.000 A 
ATOM     10  N   UNL     1      -0.926  11.060  23.147  0.00  0.00    +0.000 N 
ATOM     11  C   UNL     1      -0.281   8.895  22.210  0.00  0.00    +0.000 A 
ATOM     12  C   UNL     1       0.349   8.281  21.213  0.00  0.00    +0.000 A 
ATOM     13  N   UNL     1       0.838   8.960  20.109  0.00  0.00    +0.000 N 
ATOM     14  H   UNL     1      -1.388  10.552  23.896  0.00  0.00    +0.000 HD
BRANCH  10  15
ATOM     15  O   UNL     1      -1.554  12.258  22.799  0.00  0.00    +0.000 OA
ATOM     16  H   UNL     1      -1.309  12.853  23.541  0.00  0.00    +0.000 HD
ENDBRANCH  10  15
ENDBRANCH   1  13
BRANCH   3  17
ATOM     17  O   UNL     1       4.174   7.527  17.730  0.00  0.00    +0.000 OA
ATOM     18  H   UNL     1       4.018   8.394  17.316  0.00  0.00    +0.000 HD
ENDBRANCH   3  17
BRANCH   4  19
ATOM     19  C   UNL     1       1.734   5.126  19.360  0.00  0.00    +0.000 C 
BRANCH  19  20
ATOM     20  O   UNL     1       2.260   3.806  19.294  0.00  0.00    +0.000 OA
BRANCH  20  21
ATOM     21  P   UNL     1       3.988   3.800  19.224  0.00  0.00    +0.000 P 
ATOM     22  O   UNL     1       4.019   2.622  20.199  0.00  0.00    +0.000 OA
BRANCH  21  23
ATOM     23  O   UNL     1       3.878   3.126  17.742  0.00  0.00    +0.000 OA
ATOM     24  H   UNL     1       3.943   3.844  17.084  0.00  0.00    +0.000 HD
ENDBRANCH  21  23
BRANCH  21  25
ATOM     25  O   UNL     1       5.717   3.792  19.153  0.00  0.00    +0.000 OA
BRANCH  25  26
ATOM     26  P   UNL     1       6.747   4.971  18.740  0.00  0.00    +0.000 P 
ATOM     27  O   UNL     1       7.403   5.627  19.914  0.00  0.00    +0.000 OA
BRANCH  26  28
ATOM     28  O   UNL     1       7.763   3.999  17.978  0.00  0.00    +0.000 OA
ATOM     29  H   UNL     1       8.612   4.478  17.892  0.00  0.00    +0.000 HD
ENDBRANCH  26  28
BRANCH  26  30
ATOM     30  O   UNL     1       6.552   5.996  17.495  0.00  0.00    +0.000 OA
BRANCH  30  31
ATOM     31  P   UNL     1       6.366   5.533  15.942  0.00  0.00    +0.000 P 
ATOM     32  O   UNL     1       7.628   5.464  15.135  0.00  0.00    +0.000 OA
BRANCH  31  33
ATOM     33  O   UNL     1       5.649   4.103  15.819  0.00  0.00    +0.000 OA
ATOM     34  H   UNL     1       4.690   4.160  16.030  0.00  0.00    +0.000 HD
ENDBRANCH  31  33
BRANCH  31  35
ATOM     35  O   UNL     1       5.358   6.506  15.155  0.00  0.00    +0.000 OA
ATOM     36  H   UNL     1       4.490   6.094  15.072  0.00  0.00    +0.000 HD
ENDBRANCH  31  35
ENDBRANCH  30  31
ENDBRANCH  26  30
ENDBRANCH  25  26
ENDBRANCH  21  25
ENDBRANCH  20  21
ENDBRANCH  19  20
ENDBRANCH   4  19
TORSDOF 14
ENDMDL
MODEL 6
REMARK VINA RESULT:      -6.6      0.816      1.123
REMARK  Name = 
REMARK  14 active torsions:
REMARK  status: ('A' for Active; 'I' for Inactive)
REMARK    1  A    between atoms: N_5  and  O_6
REMARK    2  A    between atoms: N_9  and  C_10
REMARK    3  A    between atoms: C_12  and  O_13
REMARK    4  A    between atoms: C_14  and  C_15
REMARK    5  A    between atoms: C_15  and  O_16
REMARK    6  A    between atoms: O_16  and  P_17
REMARK    7  A    between atoms: P_17  and  O_19
REMARK    8  A    between atoms: P_17  and  O_20
REMARK    9  A    between atoms: O_20  and  P_21
REMARK   10  A    between atoms: P_21  and  O_23
REMARK   11  A    between atoms: P_21  and  O_24
REMARK   12  A    between atoms: O_24  and  P_25
REMARK   13  A    between atoms: P_25  and  O_27
REMARK   14  A    between atoms: P_25  and  O_28
REMARK                            x       y       z     vdW  Elec       q    Type
REMARK                         _______ _______ _______ _____ _____    ______ ____
ROOT
ATOM      1  C   UNL     1       1.709   5.315  20.416  0.00  0.00    +0.000 C 
ATOM      2  C   UNL     1       2.590   4.569  21.413  0.00  0.00    +0.000 C 
ATOM      3  C   UNL     1       2.148   3.137  21.182  0.00  0.00    +0.000 C 
ATOM      4  C   UNL     1       2.005   3.096  19.666  0.00  0.00    +0.000 C 
ATOM      5  O   UNL     1       1.456   4.386  19.321  0.00  0.00    +0.000 OA
ENDROOT
BRANCH   1  13
ATOM      6  O   UNL     1       1.079   7.731  21.601  0.00  0.00    +0.000 OA
ATOM      7  C   UNL     1       1.551   7.767  20.470  0.00  0.00    +0.000 A 
ATOM      8  N   UNL     1       1.472   8.914  19.705  0.00  0.00    +0.000 NA
ATOM      9  C   UNL     1       1.843   8.911  18.461  0.00  0.00    +0.000 A 
ATOM     10  N   UNL     1       1.594  10.018  17.673  0.00  0.00    +0.000 N 
ATOM     11  C   UNL     1       2.504   7.754  17.837  0.00  0.00    +0.000 A 
ATOM     12  C   UNL     1       2.588   6.663  18.592  0.00  0.00    +0.000 A 
ATOM     13  N   UNL     1       2.097   6.614  19.887  0.00  0.00    +0.000 N 
ATOM     14  H   UNL     1       2.056  10.094  16.770  0.00  0.00    +0.000 HD
BRANCH  10  15
ATOM     15  O   UNL     1       1.521  11.221  18.379  0.00  0.00    +0.000 OA
ATOM     16  H   UNL     1       2.416  11.289  18.781  0.00  0.00    +0.000 HD
ENDBRANCH  10  15
ENDBRANCH   1  13
BRANCH   3  17
ATOM     17  O   UNL     1       0.880   2.922  21.819  0.00  0.00    +0.000 OA
ATOM     18  H   UNL     1       0.533   2.048  21.565  0.00  0.00    +0.000 HD
ENDBRANCH   3  17
BRANCH   4  19
ATOM     19  C   UNL     1       3.339   2.923  18.933  0.00  0.00    +0.000 C 
BRANCH  19  20
ATOM     20  O   UNL     1       3.150   2.567  17.570  0.00  0.00    +0.000 OA
BRANCH  20  21
ATOM     21  P   UNL     1       4.450   3.115  16.569  0.00  0.00    +0.000 P 
ATOM     22  O   UNL     1       3.678   4.403  16.281  0.00  0.00    +0.000 OA
BRANCH  21  23
ATOM     23  O   UNL     1       5.302   3.420  17.926  0.00  0.00    +0.000 OA
ATOM     24  H   UNL     1       5.608   2.565  18.283  0.00  0.00    +0.000 HD
ENDBRANCH  21  23
BRANCH  21  25
ATOM     25  O   UNL     1       5.750   3.664  15.568  0.00  0.00    +0.000 OA
BRANCH  25  26
ATOM     26  P   UNL     1       6.748   4.924  15.757  0.00  0.00    +0.000 P 
ATOM     27  O   UNL     1       7.417   5.350  14.488  0.00  0.00    +0.000 OA
BRANCH  26  28
ATOM     28  O   UNL     1       5.594   5.947  16.176  0.00  0.00    +0.000 OA
ATOM     29  H   UNL     1       4.765   5.635  15.759  0.00  0.00    +0.000 HD
ENDBRANCH  26  28
BRANCH  26  30
ATOM     30  O   UNL     1       7.678   5.199  17.061  0.00  0.00    +0.000 OA
BRANCH  30  31
ATOM     31  P   UNL     1       7.385   6.357  18.172  0.00  0.00    +0.000 P 
ATOM     32  O   UNL     1       7.464   7.767  17.667  0.00  0.00    +0.000 OA
BRANCH  31  33
ATOM     33  O   UNL     1       5.949   6.183  18.865  0.00  0.00    +0.000 OA
ATOM     34  H   UNL     1       5.838   6.796  19.626  0.00  0.00    +0.000 HD
ENDBRANCH  31  33
BRANCH  31  35
ATOM     35  O   UNL     1       8.397   6.248  19.416  0.00  0.00    +0.000 OA
ATOM     36  H   UNL     1       8.506   7.108  19.836  0.00  0.00    +0.000 HD
ENDBRANCH  31  35
ENDBRANCH  30  31
ENDBRANCH  26  30
ENDBRANCH  25  26
ENDBRANCH  21  25
ENDBRANCH  20  21
ENDBRANCH  19  20
ENDBRANCH   4  19
TORSDOF 14
ENDMDL
MODEL 7
REMARK VINA RESULT:      -6.5      0.814      1.052
REMARK  Name = 
REMARK  14 active torsions:
REMARK  status: ('A' for Active; 'I' for Inactive)
REMARK    1  A    between atoms: N_5  and  O_6
REMARK    2  A    between atoms: N_9  and  C_10
REMARK    3  A    between atoms: C_12  and  O_13
REMARK    4  A    between atoms: C_14  and  C_15
REMARK    5  A    between atoms: C_15  and  O_16
REMARK    6  A    between atoms: O_16  and  P_17
REMARK    7  A    between atoms: P_17  and  O_19
REMARK    8  A    between atoms: P_17  and  O_20
REMARK    9  A    between atoms: O_20  and  P_21
REMARK   10  A    between atoms: P_21  and  O_23
REMARK   11  A    between atoms: P_21  and  O_24
REMARK   12  A    between atoms: O_24  and  P_25
REMARK   13  A    between atoms: P_25  and  O_27
REMARK   14  A    between atoms: P_25  and  O_28
REMARK                            x       y       z     vdW  Elec       q    Type
REMARK                         _______ _______ _______ _____ _____    ______ ____
ROOT
ATOM      1  C   UNL     1       1.840   5.300  20.829  0.00  0.00    +0.000 C 
ATOM      2  C   UNL     1       2.889   4.206  20.998  0.00  0.00    +0.000 C 
ATOM      3  C   UNL     1       2.014   2.972  21.099  0.00  0.00    +0.000 C 
ATOM      4  C   UNL     1       0.950   3.258  20.048  0.00  0.00    +0.000 C 
ATOM      5  O   UNL     1       0.705   4.677  20.159  0.00  0.00    +0.000 OA
ENDROOT
BRANCH   1  13
ATOM      6  O   UNL     1       1.007   7.770  21.749  0.00  0.00    +0.000 OA
ATOM      7  C   UNL     1       1.520   7.729  20.635  0.00  0.00    +0.000 A 
ATOM      8  N   UNL     1       1.397   8.789  19.759  0.00  0.00    +0.000 NA
ATOM      9  C   UNL     1       1.816   8.692  18.534  0.00  0.00    +0.000 A 
ATOM     10  N   UNL     1       1.526   9.698  17.632  0.00  0.00    +0.000 N 
ATOM     11  C   UNL     1       2.575   7.528  18.049  0.00  0.00    +0.000 A 
ATOM     12  C   UNL     1       2.700   6.524  18.911  0.00  0.00    +0.000 A 
ATOM     13  N   UNL     1       2.163   6.566  20.187  0.00  0.00    +0.000 N 
ATOM     14  H   UNL     1       2.017   9.719  16.743  0.00  0.00    +0.000 HD
BRANCH  10  15
ATOM     15  O   UNL     1       1.347  10.955  18.214  0.00  0.00    +0.000 OA
ATOM     16  H   UNL     1       1.356  10.751  19.175  0.00  0.00    +0.000 HD
ENDBRANCH  10  15
ENDBRANCH   1  13
BRANCH   3  17
ATOM     17  O   UNL     1       1.431   2.908  22.409  0.00  0.00    +0.000 OA
ATOM     18  H   UNL     1       0.647   2.331  22.388  0.00  0.00    +0.000 HD
ENDBRANCH   3  17
BRANCH   4  19
ATOM     19  C   UNL     1       1.410   2.955  18.618  0.00  0.00    +0.000 C 
BRANCH  19  20
ATOM     20  O   UNL     1       2.766   2.530  18.579  0.00  0.00    +0.000 OA
BRANCH  20  21
ATOM     21  P   UNL     1       3.736   3.545  17.569  0.00  0.00    +0.000 P 
ATOM     22  O   UNL     1       4.512   2.318  17.089  0.00  0.00    +0.000 OA
BRANCH  21  23
ATOM     23  O   UNL     1       2.463   3.671  16.556  0.00  0.00    +0.000 OA
ATOM     24  H   UNL     1       2.475   4.569  16.174  0.00  0.00    +0.000 HD
ENDBRANCH  21  23
BRANCH  21  25
ATOM     25  O   UNL     1       4.705   4.560  16.557  0.00  0.00    +0.000 OA
BRANCH  25  26
ATOM     26  P   UNL     1       6.309   4.581  16.335  0.00  0.00    +0.000 P 
ATOM     27  O   UNL     1       6.753   3.817  15.128  0.00  0.00    +0.000 OA
BRANCH  26  28
ATOM     28  O   UNL     1       6.387   6.158  16.084  0.00  0.00    +0.000 OA
ATOM     29  H   UNL     1       6.576   6.291  15.132  0.00  0.00    +0.000 HD
ENDBRANCH  26  28
BRANCH  26  30
ATOM     30  O   UNL     1       7.422   4.558  17.519  0.00  0.00    +0.000 OA
BRANCH  30  31
ATOM     31  P   UNL     1       7.415   5.560  18.806  0.00  0.00    +0.000 P 
ATOM     32  O   UNL     1       6.115   5.646  19.549  0.00  0.00    +0.000 OA
BRANCH  31  33
ATOM     33  O   UNL     1       8.546   5.175  19.878  0.00  0.00    +0.000 OA
ATOM     34  H   UNL     1       9.400   5.621  19.678  0.00  0.00    +0.000 HD
ENDBRANCH  31  33
BRANCH  31  35
ATOM     35  O   UNL     1       7.816   7.058  18.387  0.00  0.00    +0.000 OA
ATOM     36  H   UNL     1       8.639   7.318  18.817  0.00  0.00    +0.000 HD
ENDBRANCH  31  35
ENDBRANCH  30  31
ENDBRANCH  26  30
ENDBRANCH  25  26
ENDBRANCH  21  25
ENDBRANCH  20  21
ENDBRANCH  19  20
ENDBRANCH   4  19
TORSDOF 14
ENDMDL
MODEL 8
REMARK VINA RESULT:      -6.4      1.414      2.720
REMARK  Name = 
REMARK  14 active torsions:
REMARK  status: ('A' for Active; 'I' for Inactive)
REMARK    1  A    between atoms: N_5  and  O_6
REMARK    2  A    between atoms: N_9  and  C_10
REMARK    3  A    between atoms: C_12  and  O_13
REMARK    4  A    between atoms: C_14  and  C_15
REMARK    5  A    between atoms: C_15  and  O_16
REMARK    6  A    between atoms: O_16  and  P_17
REMARK    7  A    between atoms: P_17  and  O_19
REMARK    8  A    between atoms: P_17  and  O_20
REMARK    9  A    between atoms: O_20  and  P_21
REMARK   10  A    between atoms: P_21  and  O_23
REMARK   11  A    between atoms: P_21  and  O_24
REMARK   12  A    between atoms: O_24  and  P_25
REMARK   13  A    between atoms: P_25  and  O_27
REMARK   14  A    between atoms: P_25  and  O_28
REMARK                            x       y       z     vdW  Elec       q    Type
REMARK                         _______ _______ _______ _____ _____    ______ ____
ROOT
ATOM      1  C   UNL     1       1.690   5.287  20.011  0.00  0.00    +0.000 C 
ATOM      2  C   UNL     1       2.348   4.572  21.187  0.00  0.00    +0.000 C 
ATOM      3  C   UNL     1       2.036   3.123  20.862  0.00  0.00    +0.000 C 
ATOM      4  C   UNL     1       2.251   3.089  19.355  0.00  0.00    +0.000 C 
ATOM      5  O   UNL     1       1.740   4.358  18.889  0.00  0.00    +0.000 OA
ENDROOT
BRANCH   1  13
ATOM      6  O   UNL     1       1.122   7.632  21.360  0.00  0.00    +0.000 OA
ATOM      7  C   UNL     1       1.616   7.733  20.242  0.00  0.00    +0.000 A 
ATOM      8  N   UNL     1       1.590   8.934  19.562  0.00  0.00    +0.000 NA
ATOM      9  C   UNL     1       1.984   9.009  18.327  0.00  0.00    +0.000 A 
ATOM     10  N   UNL     1       1.787  10.178  17.617  0.00  0.00    +0.000 N 
ATOM     11  C   UNL     1       2.616   7.876  17.630  0.00  0.00    +0.000 A 
ATOM     12  C   UNL     1       2.648   6.732  18.305  0.00  0.00    +0.000 A 
ATOM     13  N   UNL     1       2.133   6.606  19.585  0.00  0.00    +0.000 N 
ATOM     14  H   UNL     1       2.268  10.302  16.730  0.00  0.00    +0.000 HD
BRANCH  10  15
ATOM     15  O   UNL     1       1.743  11.328  18.409  0.00  0.00    +0.000 OA
ATOM     16  H   UNL     1       1.448  10.979  19.279  0.00  0.00    +0.000 HD
ENDBRANCH  10  15
ENDBRANCH   1  13
BRANCH   3  17
ATOM     17  O   UNL     1       0.666   2.848  21.188  0.00  0.00    +0.000 OA
ATOM     18  H   UNL     1       0.106   3.587  20.890  0.00  0.00    +0.000 HD
ENDBRANCH   3  17
BRANCH   4  19
ATOM     19  C   UNL     1       3.725   2.982  18.952  0.00  0.00    +0.000 C 
BRANCH  19  20
ATOM     20  O   UNL     1       4.578   3.603  19.906  0.00  0.00    +0.000 OA
BRANCH  20  21
ATOM     21  P   UNL     1       5.468   4.918  19.220  0.00  0.00    +0.000 P 
ATOM     22  O   UNL     1       6.587   4.685  20.235  0.00  0.00    +0.000 OA
BRANCH  21  23
ATOM     23  O   UNL     1       5.828   3.954  17.955  0.00  0.00    +0.000 OA
ATOM     24  H   UNL     1       6.759   4.118  17.713  0.00  0.00    +0.000 HD
ENDBRANCH  21  23
BRANCH  21  25
ATOM     25  O   UNL     1       6.358   6.234  18.535  0.00  0.00    +0.000 OA
BRANCH  25  26
ATOM     26  P   UNL     1       6.776   6.519  16.997  0.00  0.00    +0.000 P 
ATOM     27  O   UNL     1       7.378   7.872  16.784  0.00  0.00    +0.000 OA
BRANCH  26  28
ATOM     28  O   UNL     1       7.891   5.374  16.948  0.00  0.00    +0.000 OA
ATOM     29  H   UNL     1       8.738   5.805  16.711  0.00  0.00    +0.000 HD
ENDBRANCH  26  28
BRANCH  26  30
ATOM     30  O   UNL     1       5.963   5.999  15.690  0.00  0.00    +0.000 OA
BRANCH  30  31
ATOM     31  P   UNL     1       6.497   4.839  14.676  0.00  0.00    +0.000 P 
ATOM     32  O   UNL     1       7.753   5.169  13.925  0.00  0.00    +0.000 OA
BRANCH  31  33
ATOM     33  O   UNL     1       6.751   3.445  15.429  0.00  0.00    +0.000 OA
ATOM     34  H   UNL     1       7.601   3.450  15.923  0.00  0.00    +0.000 HD
ENDBRANCH  31  33
BRANCH  31  35
ATOM     35  O   UNL     1       5.384   4.455  13.582  0.00  0.00    +0.000 OA
ATOM     36  H   UNL     1       4.873   5.235  13.337  0.00  0.00    +0.000 HD
ENDBRANCH  31  35
ENDBRANCH  30  31
ENDBRANCH  26  30
ENDBRANCH  25  26
ENDBRANCH  21  25
ENDBRANCH  20  21
ENDBRANCH  19  20
ENDBRANCH   4  19
TORSDOF 14
ENDMDL
MODEL 9
REMARK VINA RESULT:      -6.4      2.757      4.755
REMARK  Name = 
REMARK  14 active torsions:
REMARK  status: ('A' for Active; 'I' for Inactive)
REMARK    1  A    between atoms: N_5  and  O_6
REMARK    2  A    between atoms: N_9  and  C_10
REMARK    3  A    between atoms: C_12  and  O_13
REMARK    4  A    between atoms: C_14  and  C_15
REMARK    5  A    between atoms: C_15  and  O_16
REMARK    6  A    between atoms: O_16  and  P_17
REMARK    7  A    between atoms: P_17  and  O_19
REMARK    8  A    between atoms: P_17  and  O_20
REMARK    9  A    between atoms: O_20  and  P_21
REMARK   10  A    between atoms: P_21  and  O_23
REMARK   11  A    between atoms: P_21  and  O_24
REMARK   12  A    between atoms: O_24  and  P_25
REMARK   13  A    between atoms: P_25  and  O_27
REMARK   14  A    between atoms: P_25  and  O_28
REMARK                            x       y       z     vdW  Elec       q    Type
REMARK                         _______ _______ _______ _____ _____    ______ ____
ROOT
ATOM      1  C   UNL     1      -0.466  10.432  20.755  0.00  0.00    +0.000 C 
ATOM      2  C   UNL     1       0.847  10.891  21.379  0.00  0.00    +0.000 C 
ATOM      3  C   UNL     1       1.049   9.836  22.449  0.00  0.00    +0.000 C 
ATOM      4  C   UNL     1       0.614   8.570  21.724  0.00  0.00    +0.000 C 
ATOM      5  O   UNL     1      -0.512   8.984  20.919  0.00  0.00    +0.000 OA
ENDROOT
BRANCH   1  13
ATOM      6  O   UNL     1      -2.169  12.502  20.078  0.00  0.00    +0.000 OA
ATOM      7  C   UNL     1      -1.843  11.727  19.184  0.00  0.00    +0.000 A 
ATOM      8  N   UNL     1      -2.535  11.693  17.990  0.00  0.00    +0.000 NA
ATOM      9  C   UNL     1      -2.284  10.780  17.101  0.00  0.00    +0.000 A 
ATOM     10  N   UNL     1      -3.103  10.661  15.995  0.00  0.00    +0.000 N 
ATOM     11  C   UNL     1      -1.163   9.836  17.235  0.00  0.00    +0.000 A 
ATOM     12  C   UNL     1      -0.496   9.894  18.383  0.00  0.00    +0.000 A 
ATOM     13  N   UNL     1      -0.821  10.789  19.389  0.00  0.00    +0.000 N 
ATOM     14  H   UNL     1      -2.794  10.091  15.212  0.00  0.00    +0.000 HD
BRANCH  10  15
ATOM     15  O   UNL     1      -3.737  11.849  15.620  0.00  0.00    +0.000 OA
ATOM     16  H   UNL     1      -3.169  12.173  14.887  0.00  0.00    +0.000 HD
ENDBRANCH  10  15
ENDBRANCH   1  13
BRANCH   3  17
ATOM     17  O   UNL     1       0.181  10.111  23.559  0.00  0.00    +0.000 OA
ATOM     18  H   UNL     1      -0.613   9.551  23.496  0.00  0.00    +0.000 HD
ENDBRANCH   3  17
BRANCH   4  19
ATOM     19  C   UNL     1       1.691   7.999  20.796  0.00  0.00    +0.000 C 
BRANCH  19  20
ATOM     20  O   UNL     1       1.255   6.810  20.150  0.00  0.00    +0.000 OA
BRANCH  20  21
ATOM     21  P   UNL     1       2.556   5.702  19.882  0.00  0.00    +0.000 P 
ATOM     22  O   UNL     1       1.548   4.621  19.491  0.00  0.00    +0.000 OA
BRANCH  21  23
ATOM     23  O   UNL     1       2.887   6.500  18.499  0.00  0.00    +0.000 OA
ATOM     24  H   UNL     1       2.613   5.931  17.755  0.00  0.00    +0.000 HD
ENDBRANCH  21  23
BRANCH  21  25
ATOM     25  O   UNL     1       3.857   4.594  19.614  0.00  0.00    +0.000 OA
BRANCH  25  26
ATOM     26  P   UNL     1       5.282   4.820  18.881  0.00  0.00    +0.000 P 
ATOM     27  O   UNL     1       6.292   5.511  19.742  0.00  0.00    +0.000 OA
BRANCH  26  28
ATOM     28  O   UNL     1       5.609   3.261  18.741  0.00  0.00    +0.000 OA
ATOM     29  H   UNL     1       6.552   3.184  18.489  0.00  0.00    +0.000 HD
ENDBRANCH  26  28
BRANCH  26  30
ATOM     30  O   UNL     1       5.485   5.161  17.305  0.00  0.00    +0.000 OA
BRANCH  30  31
ATOM     31  P   UNL     1       6.777   4.699  16.423  0.00  0.00    +0.000 P 
ATOM     32  O   UNL     1       7.339   5.745  15.507  0.00  0.00    +0.000 OA
BRANCH  31  33
ATOM     33  O   UNL     1       7.984   4.179  17.343  0.00  0.00    +0.000 OA
ATOM     34  H   UNL     1       8.770   3.933  16.804  0.00  0.00    +0.000 HD
ENDBRANCH  31  33
BRANCH  31  35
ATOM     35  O   UNL     1       6.441   3.414  15.517  0.00  0.00    +0.000 OA
ATOM     36  H   UNL     1       7.161   3.241  14.900  0.00  0.00    +0.000 HD
ENDBRANCH  31  35
ENDBRANCH  30  31
ENDBRANCH  26  30
ENDBRANCH  25  26
ENDBRANCH  21  25
ENDBRANCH  20  21
ENDBRANCH  19  20
ENDBRANCH   4  19
TORSDOF 14
ENDMDL
