MODEL 1
REMARK VINA RESULT:      -8.3      0.000      0.000
REMARK  Name = 
REMARK  7 active torsions:
REMARK  status: ('A' for Active; 'I' for Inactive)
REMARK    1  A    between atoms: C_1  and  N_2
REMARK    2  A    between atoms: N_11  and  C_12
REMARK    3  A    between atoms: C_17  and  C_18
REMARK    4  A    between atoms: C_22  and  O_23
REMARK    5  A    between atoms: O_23  and  C_24
REMARK    6  A    between atoms: C_26  and  O_27
REMARK    7  A    between atoms: O_27  and  C_28
REMARK                            x       y       z     vdW  Elec       q    Type
REMARK                         _______ _______ _______ _____ _____    ______ ____
ROOT
ATOM      1  C   UNL     1       0.071  10.029  20.775  0.00  0.00    +0.000 A 
ATOM      2  C   UNL     1       0.095   9.003  21.833  0.00  0.00    +0.000 A 
ATOM      3  C   UNL     1       0.784   7.865  21.663  0.00  0.00    +0.000 A 
ATOM      4  N   UNL     1       1.467   7.666  20.471  0.00  0.00    +0.000 N 
ATOM      5  C   UNL     1       2.259   6.615  20.091  0.00  0.00    +0.000 A 
ATOM      6  C   UNL     1       2.726   6.928  18.827  0.00  0.00    +0.000 A 
ATOM      7  N   UNL     1       2.196   8.133  18.414  0.00  0.00    +0.000 NA
ATOM      8  C   UNL     1       1.459   8.566  19.421  0.00  0.00    +0.000 A 
ATOM      9  C   UNL     1       0.719   9.770  19.612  0.00  0.00    +0.000 A 
ENDROOT
BRANCH   1  20
ATOM     10  C   UNL     1      -4.665  17.354  25.190  0.00  0.00    +0.000 C 
ATOM     11  N   UNL     1      -3.773  16.330  24.701  0.00  0.00    +0.000 N 
ATOM     12  C   UNL     1      -3.780  15.958  23.364  0.00  0.00    +0.000 A 
ATOM     13  C   UNL     1      -4.129  16.809  22.344  0.00  0.00    +0.000 A 
ATOM     14  C   UNL     1      -4.028  16.306  21.072  0.00  0.00    +0.000 A 
ATOM     15  N   UNL     1      -3.593  15.068  20.792  0.00  0.00    +0.000 NA
ATOM     16  C   UNL     1      -3.246  14.293  21.827  0.00  0.00    +0.000 A 
ATOM     17  N   UNL     1      -2.765  13.039  21.592  0.00  0.00    +0.000 N 
ATOM     18  C   UNL     1      -2.551  12.552  20.225  0.00  0.00    +0.000 C 
ATOM     19  C   UNL     1      -1.069  12.171  20.002  0.00  0.00    +0.000 C 
ATOM     20  N   UNL     1      -0.608  11.223  21.041  0.00  0.00    +0.000 N 
ATOM     21  C   UNL     1      -0.801  11.761  22.413  0.00  0.00    +0.000 C 
ATOM     22  C   UNL     1      -2.270  12.176  22.664  0.00  0.00    +0.000 C 
ATOM     23  N   UNL     1      -3.348  14.712  23.105  0.00  0.00    +0.000 NA
ATOM     24  H   UNL     1      -3.675  15.494  25.271  0.00  0.00    +0.000 HD
ENDBRANCH   1  20
BRANCH   6  25
ATOM     25  C   UNL     1       3.646   6.088  18.055  0.00  0.00    +0.000 A 
ATOM     26  C   UNL     1       4.957   6.557  17.834  0.00  0.00    +0.000 A 
ATOM     27  C   UNL     1       5.890   5.856  17.053  0.00  0.00    +0.000 A 
ATOM     28 CL   UNL     1       7.422   6.635  16.873  0.00  0.00    +0.000 Cl
ATOM     29  C   UNL     1       5.529   4.638  16.480  0.00  0.00    +0.000 A 
ATOM     30  C   UNL     1       4.232   4.156  16.719  0.00  0.00    +0.000 A 
ATOM     31  C   UNL     1       3.290   4.848  17.500  0.00  0.00    +0.000 A 
BRANCH  29  32
ATOM     32  O   UNL     1       6.225   3.779  15.678  0.00  0.00    +0.000 OA
ATOM     33  C   UNL     1       6.354   4.020  14.291  0.00  0.00    +0.000 C 
ENDBRANCH  29  32
BRANCH  31  34
ATOM     34  O   UNL     1       2.009   4.383  17.663  0.00  0.00    +0.000 OA
ATOM     35  C   UNL     1       1.872   3.097  18.264  0.00  0.00    +0.000 C 
ENDBRANCH  31  34
ENDBRANCH   6  25
TORSDOF 4
ENDMDL
MODEL 2
REMARK VINA RESULT:      -8.0      1.108      1.988
REMARK  Name = 
REMARK  7 active torsions:
REMARK  status: ('A' for Active; 'I' for Inactive)
REMARK    1  A    between atoms: C_1  and  N_2
REMARK    2  A    between atoms: N_11  and  C_12
REMARK    3  A    between atoms: C_17  and  C_18
REMARK    4  A    between atoms: C_22  and  O_23
REMARK    5  A    between atoms: O_23  and  C_24
REMARK    6  A    between atoms: C_26  and  O_27
REMARK    7  A    between atoms: O_27  and  C_28
REMARK                            x       y       z     vdW  Elec       q    Type
REMARK                         _______ _______ _______ _____ _____    ______ ____
ROOT
ATOM      1  C   UNL     1       0.074  10.187  20.663  0.00  0.00    +0.000 A 
ATOM      2  C   UNL     1       0.080   9.196  21.753  0.00  0.00    +0.000 A 
ATOM      3  C   UNL     1       0.747   8.039  21.617  0.00  0.00    +0.000 A 
ATOM      4  N   UNL     1       1.423   7.789  20.432  0.00  0.00    +0.000 N 
ATOM      5  C   UNL     1       2.193   6.711  20.084  0.00  0.00    +0.000 A 
ATOM      6  C   UNL     1       2.664   6.974  18.811  0.00  0.00    +0.000 A 
ATOM      7  N   UNL     1       2.157   8.176  18.361  0.00  0.00    +0.000 NA
ATOM      8  C   UNL     1       1.430   8.655  19.354  0.00  0.00    +0.000 A 
ATOM      9  C   UNL     1       0.715   9.879  19.508  0.00  0.00    +0.000 A 
ENDROOT
BRANCH   1  20
ATOM     10  C   UNL     1      -4.729  18.625  19.520  0.00  0.00    +0.000 C 
ATOM     11  N   UNL     1      -4.228  17.272  19.578  0.00  0.00    +0.000 N 
ATOM     12  C   UNL     1      -3.416  16.857  20.625  0.00  0.00    +0.000 A 
ATOM     13  C   UNL     1      -3.476  17.396  21.887  0.00  0.00    +0.000 A 
ATOM     14  C   UNL     1      -2.647  16.837  22.825  0.00  0.00    +0.000 A 
ATOM     15  N   UNL     1      -1.828  15.803  22.576  0.00  0.00    +0.000 NA
ATOM     16  C   UNL     1      -1.831  15.307  21.332  0.00  0.00    +0.000 A 
ATOM     17  N   UNL     1      -1.042  14.234  21.038  0.00  0.00    +0.000 N 
ATOM     18  C   UNL     1      -0.247  13.570  22.076  0.00  0.00    +0.000 C 
ATOM     19  C   UNL     1      -0.645  12.082  22.205  0.00  0.00    +0.000 C 
ATOM     20  N   UNL     1      -0.579  11.403  20.892  0.00  0.00    +0.000 N 
ATOM     21  C   UNL     1      -1.425  12.076  19.873  0.00  0.00    +0.000 C 
ATOM     22  C   UNL     1      -1.071  13.575  19.733  0.00  0.00    +0.000 C 
ATOM     23  N   UNL     1      -2.599  15.827  20.352  0.00  0.00    +0.000 NA
ATOM     24  H   UNL     1      -3.873  16.875  18.713  0.00  0.00    +0.000 HD
ENDBRANCH   1  20
BRANCH   6  25
ATOM     25  C   UNL     1       3.566   6.092  18.065  0.00  0.00    +0.000 A 
ATOM     26  C   UNL     1       4.902   6.502  17.878  0.00  0.00    +0.000 A 
ATOM     27  C   UNL     1       5.823   5.757  17.123  0.00  0.00    +0.000 A 
ATOM     28 CL   UNL     1       7.393   6.467  16.983  0.00  0.00    +0.000 Cl
ATOM     29  C   UNL     1       5.423   4.556  16.542  0.00  0.00    +0.000 A 
ATOM     30  C   UNL     1       4.100   4.132  16.747  0.00  0.00    +0.000 A 
ATOM     31  C   UNL     1       3.169   4.868  17.502  0.00  0.00    +0.000 A 
BRANCH  29  32
ATOM     32  O   UNL     1       6.101   3.664  15.761  0.00  0.00    +0.000 OA
ATOM     33  C   UNL     1       6.208   3.855  14.363  0.00  0.00    +0.000 C 
ENDBRANCH  29  32
BRANCH  31  34
ATOM     34  O   UNL     1       1.866   4.461  17.632  0.00  0.00    +0.000 OA
ATOM     35  C   UNL     1       1.627   3.363  18.511  0.00  0.00    +0.000 C 
ENDBRANCH  31  34
ENDBRANCH   6  25
TORSDOF 4
ENDMDL
MODEL 3
REMARK VINA RESULT:      -7.8      4.796     12.201
REMARK  Name = 
REMARK  7 active torsions:
REMARK  status: ('A' for Active; 'I' for Inactive)
REMARK    1  A    between atoms: C_1  and  N_2
REMARK    2  A    between atoms: N_11  and  C_12
REMARK    3  A    between atoms: C_17  and  C_18
REMARK    4  A    between atoms: C_22  and  O_23
REMARK    5  A    between atoms: O_23  and  C_24
REMARK    6  A    between atoms: C_26  and  O_27
REMARK    7  A    between atoms: O_27  and  C_28
REMARK                            x       y       z     vdW  Elec       q    Type
REMARK                         _______ _______ _______ _____ _____    ______ ____
ROOT
ATOM      1  C   UNL     1       0.143  10.047  19.576  0.00  0.00    +0.000 A 
ATOM      2  C   UNL     1      -0.765  10.381  18.465  0.00  0.00    +0.000 A 
ATOM      3  C   UNL     1      -1.765  11.258  18.642  0.00  0.00    +0.000 A 
ATOM      4  N   UNL     1      -1.935  11.839  19.891  0.00  0.00    +0.000 N 
ATOM      5  C   UNL     1      -2.847  12.777  20.293  0.00  0.00    +0.000 A 
ATOM      6  C   UNL     1      -2.563  13.040  21.621  0.00  0.00    +0.000 A 
ATOM      7  N   UNL     1      -1.519  12.245  22.045  0.00  0.00    +0.000 NA
ATOM      8  C   UNL     1      -1.146  11.545  20.989  0.00  0.00    +0.000 A 
ATOM      9  C   UNL     1      -0.089  10.609  20.789  0.00  0.00    +0.000 A 
ENDROOT
BRANCH   1  20
ATOM     10  C   UNL     1       7.083   4.791  15.128  0.00  0.00    +0.000 C 
ATOM     11  N   UNL     1       6.182   5.772  15.686  0.00  0.00    +0.000 N 
ATOM     12  C   UNL     1       5.572   5.562  16.914  0.00  0.00    +0.000 A 
ATOM     13  C   UNL     1       6.131   4.807  17.917  0.00  0.00    +0.000 A 
ATOM     14  C   UNL     1       5.428   4.744  19.093  0.00  0.00    +0.000 A 
ATOM     15  N   UNL     1       4.271   5.388  19.305  0.00  0.00    +0.000 NA
ATOM     16  C   UNL     1       3.788   6.126  18.298  0.00  0.00    +0.000 A 
ATOM     17  N   UNL     1       2.632   6.828  18.477  0.00  0.00    +0.000 N 
ATOM     18  C   UNL     1       1.950   6.847  19.776  0.00  0.00    +0.000 C 
ATOM     19  C   UNL     1       1.833   8.291  20.314  0.00  0.00    +0.000 C 
ATOM     20  N   UNL     1       1.208   9.180  19.310  0.00  0.00    +0.000 N 
ATOM     21  C   UNL     1       1.944   9.169  18.019  0.00  0.00    +0.000 C 
ATOM     22  C   UNL     1       2.101   7.735  17.460  0.00  0.00    +0.000 C 
ATOM     23  N   UNL     1       4.411   6.209  17.105  0.00  0.00    +0.000 NA
ATOM     24  H   UNL     1       5.505   6.187  15.052  0.00  0.00    +0.000 HD
ENDBRANCH   1  20
BRANCH   6  25
ATOM     25  C   UNL     1      -3.280  14.021  22.440  0.00  0.00    +0.000 A 
ATOM     26  C   UNL     1      -2.653  15.255  22.711  0.00  0.00    +0.000 A 
ATOM     27  C   UNL     1      -3.230  16.231  23.539  0.00  0.00    +0.000 A 
ATOM     28 CL   UNL     1      -2.270  17.649  23.773  0.00  0.00    +0.000 Cl
ATOM     29  C   UNL     1      -4.479  15.996  24.110  0.00  0.00    +0.000 A 
ATOM     30  C   UNL     1      -5.117  14.779  23.823  0.00  0.00    +0.000 A 
ATOM     31  C   UNL     1      -4.550  13.794  22.995  0.00  0.00    +0.000 A 
BRANCH  29  32
ATOM     32  O   UNL     1      -5.242  16.756  24.950  0.00  0.00    +0.000 OA
ATOM     33  C   UNL     1      -5.692  18.040  24.564  0.00  0.00    +0.000 C 
ENDBRANCH  29  32
BRANCH  31  34
ATOM     34  O   UNL     1      -5.169  12.588  22.784  0.00  0.00    +0.000 OA
ATOM     35  C   UNL     1      -6.458  12.633  22.175  0.00  0.00    +0.000 C 
ENDBRANCH  31  34
ENDBRANCH   6  25
TORSDOF 4
ENDMDL
MODEL 4
REMARK VINA RESULT:      -7.8      4.997     12.328
REMARK  Name = 
REMARK  7 active torsions:
REMARK  status: ('A' for Active; 'I' for Inactive)
REMARK    1  A    between atoms: C_1  and  N_2
REMARK    2  A    between atoms: N_11  and  C_12
REMARK    3  A    between atoms: C_17  and  C_18
REMARK    4  A    between atoms: C_22  and  O_23
REMARK    5  A    between atoms: O_23  and  C_24
REMARK    6  A    between atoms: C_26  and  O_27
REMARK    7  A    between atoms: O_27  and  C_28
REMARK                            x       y       z     vdW  Elec       q    Type
REMARK                         _______ _______ _______ _____ _____    ______ ____
ROOT
ATOM      1  C   UNL     1       0.348   9.986  19.957  0.00  0.00    +0.000 A 
ATOM      2  C   UNL     1      -0.612  10.383  18.913  0.00  0.00    +0.000 A 
ATOM      3  C   UNL     1      -1.567  11.289  19.174  0.00  0.00    +0.000 A 
ATOM      4  N   UNL     1      -1.638  11.840  20.445  0.00  0.00    +0.000 N 
ATOM      5  C   UNL     1      -2.490  12.798  20.928  0.00  0.00    +0.000 A 
ATOM      6  C   UNL     1      -2.115  13.014  22.242  0.00  0.00    +0.000 A 
ATOM      7  N   UNL     1      -1.077  12.171  22.580  0.00  0.00    +0.000 NA
ATOM      8  C   UNL     1      -0.795  11.488  21.484  0.00  0.00    +0.000 A 
ATOM      9  C   UNL     1       0.211  10.521  21.196  0.00  0.00    +0.000 A 
ENDROOT
BRANCH   1  20
ATOM     10  C   UNL     1       6.990   4.808  14.990  0.00  0.00    +0.000 C 
ATOM     11  N   UNL     1       6.145   5.779  15.645  0.00  0.00    +0.000 N 
ATOM     12  C   UNL     1       5.519   5.482  16.848  0.00  0.00    +0.000 A 
ATOM     13  C   UNL     1       6.029   4.599  17.769  0.00  0.00    +0.000 A 
ATOM     14  C   UNL     1       5.319   4.460  18.934  0.00  0.00    +0.000 A 
ATOM     15  N   UNL     1       4.200   5.145  19.212  0.00  0.00    +0.000 NA
ATOM     16  C   UNL     1       3.765   6.008  18.285  0.00  0.00    +0.000 A 
ATOM     17  N   UNL     1       2.651   6.754  18.536  0.00  0.00    +0.000 N 
ATOM     18  C   UNL     1       1.966   6.682  19.831  0.00  0.00    +0.000 C 
ATOM     19  C   UNL     1       1.932   8.070  20.512  0.00  0.00    +0.000 C 
ATOM     20  N   UNL     1       1.363   9.089  19.603  0.00  0.00    +0.000 N 
ATOM     21  C   UNL     1       2.102   9.165  18.316  0.00  0.00    +0.000 C 
ATOM     22  C   UNL     1       2.178   7.788  17.616  0.00  0.00    +0.000 C 
ATOM     23  N   UNL     1       4.396   6.174  17.105  0.00  0.00    +0.000 NA
ATOM     24  H   UNL     1       5.496   6.294  15.058  0.00  0.00    +0.000 HD
ENDBRANCH   1  20
BRANCH   6  25
ATOM     25  C   UNL     1      -2.744  13.996  23.129  0.00  0.00    +0.000 A 
ATOM     26  C   UNL     1      -4.152  14.062  23.165  0.00  0.00    +0.000 A 
ATOM     27  C   UNL     1      -4.846  15.013  23.932  0.00  0.00    +0.000 A 
ATOM     28 CL   UNL     1      -6.567  14.947  23.792  0.00  0.00    +0.000 Cl
ATOM     29  C   UNL     1      -4.131  15.921  24.710  0.00  0.00    +0.000 A 
ATOM     30  C   UNL     1      -2.729  15.842  24.696  0.00  0.00    +0.000 A 
ATOM     31  C   UNL     1      -2.024  14.895  23.932  0.00  0.00    +0.000 A 
BRANCH  29  32
ATOM     32  O   UNL     1      -4.550  16.939  25.519  0.00  0.00    +0.000 OA
ATOM     33  C   UNL     1      -5.241  18.053  24.989  0.00  0.00    +0.000 C 
ENDBRANCH  29  32
BRANCH  31  34
ATOM     34  O   UNL     1      -0.653  14.882  23.890  0.00  0.00    +0.000 OA
ATOM     35  C   UNL     1      -0.027  15.970  23.212  0.00  0.00    +0.000 C 
ENDBRANCH  31  34
ENDBRANCH   6  25
TORSDOF 4
ENDMDL
MODEL 5
REMARK VINA RESULT:      -7.7      1.259      1.548
REMARK  Name = 
REMARK  7 active torsions:
REMARK  status: ('A' for Active; 'I' for Inactive)
REMARK    1  A    between atoms: C_1  and  N_2
REMARK    2  A    between atoms: N_11  and  C_12
REMARK    3  A    between atoms: C_17  and  C_18
REMARK    4  A    between atoms: C_22  and  O_23
REMARK    5  A    between atoms: O_23  and  C_24
REMARK    6  A    between atoms: C_26  and  O_27
REMARK    7  A    between atoms: O_27  and  C_28
REMARK                            x       y       z     vdW  Elec       q    Type
REMARK                         _______ _______ _______ _____ _____    ______ ____
ROOT
ATOM      1  C   UNL     1       0.320  10.591  20.621  0.00  0.00    +0.000 A 
ATOM      2  C   UNL     1       0.306   9.643  21.748  0.00  0.00    +0.000 A 
ATOM      3  C   UNL     1       0.900   8.444  21.638  0.00  0.00    +0.000 A 
ATOM      4  N   UNL     1       1.520   8.111  20.442  0.00  0.00    +0.000 N 
ATOM      5  C   UNL     1       2.215   6.978  20.113  0.00  0.00    +0.000 A 
ATOM      6  C   UNL     1       2.656   7.165  18.815  0.00  0.00    +0.000 A 
ATOM      7  N   UNL     1       2.204   8.376  18.334  0.00  0.00    +0.000 NA
ATOM      8  C   UNL     1       1.540   8.934  19.330  0.00  0.00    +0.000 A 
ATOM      9  C   UNL     1       0.902  10.203  19.459  0.00  0.00    +0.000 A 
ENDROOT
BRANCH   1  20
ATOM     10  C   UNL     1      -6.017  17.911  21.985  0.00  0.00    +0.000 C 
ATOM     11  N   UNL     1      -5.179  16.735  22.003  0.00  0.00    +0.000 N 
ATOM     12  C   UNL     1      -3.885  16.774  21.503  0.00  0.00    +0.000 A 
ATOM     13  C   UNL     1      -3.110  17.908  21.498  0.00  0.00    +0.000 A 
ATOM     14  C   UNL     1      -1.831  17.768  21.022  0.00  0.00    +0.000 A 
ATOM     15  N   UNL     1      -1.316  16.603  20.601  0.00  0.00    +0.000 NA
ATOM     16  C   UNL     1      -2.113  15.528  20.651  0.00  0.00    +0.000 A 
ATOM     17  N   UNL     1      -1.624  14.315  20.266  0.00  0.00    +0.000 N 
ATOM     18  C   UNL     1      -0.221  14.153  19.869  0.00  0.00    +0.000 C 
ATOM     19  C   UNL     1       0.493  13.127  20.779  0.00  0.00    +0.000 C 
ATOM     20  N   UNL     1      -0.255  11.851  20.823  0.00  0.00    +0.000 N 
ATOM     21  C   UNL     1      -1.661  12.042  21.265  0.00  0.00    +0.000 C 
ATOM     22  C   UNL     1      -2.401  13.082  20.392  0.00  0.00    +0.000 C 
ATOM     23  N   UNL     1      -3.390  15.599  21.079  0.00  0.00    +0.000 NA
ATOM     24  H   UNL     1      -5.610  15.858  21.724  0.00  0.00    +0.000 HD
ENDBRANCH   1  20
BRANCH   6  25
ATOM     25  C   UNL     1       3.480   6.204  18.076  0.00  0.00    +0.000 A 
ATOM     26  C   UNL     1       4.826   6.534  17.817  0.00  0.00    +0.000 A 
ATOM     27  C   UNL     1       5.675   5.710  17.061  0.00  0.00    +0.000 A 
ATOM     28 CL   UNL     1       7.271   6.329  16.825  0.00  0.00    +0.000 Cl
ATOM     29  C   UNL     1       5.191   4.505  16.555  0.00  0.00    +0.000 A 
ATOM     30  C   UNL     1       3.858   4.162  16.832  0.00  0.00    +0.000 A 
ATOM     31  C   UNL     1       2.998   4.978  17.588  0.00  0.00    +0.000 A 
BRANCH  29  32
ATOM     32  O   UNL     1       5.789   3.545  15.789  0.00  0.00    +0.000 OA
ATOM     33  C   UNL     1       6.211   3.825  14.469  0.00  0.00    +0.000 C 
ENDBRANCH  29  32
BRANCH  31  34
ATOM     34  O   UNL     1       1.683   4.646  17.789  0.00  0.00    +0.000 OA
ATOM     35  C   UNL     1       1.426   3.330  18.274  0.00  0.00    +0.000 C 
ENDBRANCH  31  34
ENDBRANCH   6  25
TORSDOF 4
ENDMDL
MODEL 6
REMARK VINA RESULT:      -7.7      2.244      3.382
REMARK  Name = 
REMARK  7 active torsions:
REMARK  status: ('A' for Active; 'I' for Inactive)
REMARK    1  A    between atoms: C_1  and  N_2
REMARK    2  A    between atoms: N_11  and  C_12
REMARK    3  A    between atoms: C_17  and  C_18
REMARK    4  A    between atoms: C_22  and  O_23
REMARK    5  A    between atoms: O_23  and  C_24
REMARK    6  A    between atoms: C_26  and  O_27
REMARK    7  A    between atoms: O_27  and  C_28
REMARK                            x       y       z     vdW  Elec       q    Type
REMARK                         _______ _______ _______ _____ _____    ______ ____
ROOT
ATOM      1  C   UNL     1      -0.449  11.389  20.959  0.00  0.00    +0.000 A 
ATOM      2  C   UNL     1      -0.004  11.740  19.599  0.00  0.00    +0.000 A 
ATOM      3  C   UNL     1       0.731  10.879  18.879  0.00  0.00    +0.000 A 
ATOM      4  N   UNL     1       1.072   9.656  19.440  0.00  0.00    +0.000 N 
ATOM      5  C   UNL     1       1.772   8.615  18.890  0.00  0.00    +0.000 A 
ATOM      6  C   UNL     1       1.801   7.624  19.853  0.00  0.00    +0.000 A 
ATOM      7  N   UNL     1       1.166   8.061  20.998  0.00  0.00    +0.000 NA
ATOM      8  C   UNL     1       0.722   9.274  20.723  0.00  0.00    +0.000 A 
ATOM      9  C   UNL     1      -0.055  10.200  21.479  0.00  0.00    +0.000 A 
ENDROOT
BRANCH   1  20
ATOM     10  C   UNL     1      -7.545  17.712  23.251  0.00  0.00    +0.000 C 
ATOM     11  N   UNL     1      -6.690  16.611  22.875  0.00  0.00    +0.000 N 
ATOM     12  C   UNL     1      -5.429  16.463  23.436  0.00  0.00    +0.000 A 
ATOM     13  C   UNL     1      -5.105  16.905  24.695  0.00  0.00    +0.000 A 
ATOM     14  C   UNL     1      -3.833  16.631  25.126  0.00  0.00    +0.000 A 
ATOM     15  N   UNL     1      -2.932  15.949  24.404  0.00  0.00    +0.000 NA
ATOM     16  C   UNL     1      -3.313  15.524  23.193  0.00  0.00    +0.000 A 
ATOM     17  N   UNL     1      -2.445  14.796  22.434  0.00  0.00    +0.000 N 
ATOM     18  C   UNL     1      -1.128  14.408  22.951  0.00  0.00    +0.000 C 
ATOM     19  C   UNL     1      -0.973  12.870  22.963  0.00  0.00    +0.000 C 
ATOM     20  N   UNL     1      -1.272  12.300  21.631  0.00  0.00    +0.000 N 
ATOM     21  C   UNL     1      -2.627  12.678  21.152  0.00  0.00    +0.000 C 
ATOM     22  C   UNL     1      -2.827  14.212  21.149  0.00  0.00    +0.000 C 
ATOM     23  N   UNL     1      -4.539  15.784  22.693  0.00  0.00    +0.000 NA
ATOM     24  H   UNL     1      -6.635  16.389  21.885  0.00  0.00    +0.000 HD
ENDBRANCH   1  20
BRANCH   6  25
ATOM     25  C   UNL     1       2.422   6.310  19.668  0.00  0.00    +0.000 A 
ATOM     26  C   UNL     1       2.035   5.258  20.525  0.00  0.00    +0.000 A 
ATOM     27  C   UNL     1       2.620   3.983  20.469  0.00  0.00    +0.000 A 
ATOM     28 CL   UNL     1       2.032   2.859  21.643  0.00  0.00    +0.000 Cl
ATOM     29  C   UNL     1       3.610   3.722  19.524  0.00  0.00    +0.000 A 
ATOM     30  C   UNL     1       3.980   4.759  18.652  0.00  0.00    +0.000 A 
ATOM     31  C   UNL     1       3.401   6.040  18.698  0.00  0.00    +0.000 A 
BRANCH  29  32
ATOM     32  O   UNL     1       4.340   2.595  19.272  0.00  0.00    +0.000 OA
ATOM     33  C   UNL     1       3.747   1.464  18.663  0.00  0.00    +0.000 C 
ENDBRANCH  29  32
BRANCH  31  34
ATOM     34  O   UNL     1       3.827   7.051  17.875  0.00  0.00    +0.000 OA
ATOM     35  C   UNL     1       4.748   6.691  16.848  0.00  0.00    +0.000 C 
ENDBRANCH  31  34
ENDBRANCH   6  25
TORSDOF 4
ENDMDL
MODEL 7
REMARK VINA RESULT:      -7.5      2.299      3.124
REMARK  Name = 
REMARK  7 active torsions:
REMARK  status: ('A' for Active; 'I' for Inactive)
REMARK    1  A    between atoms: C_1  and  N_2
REMARK    2  A    between atoms: N_11  and  C_12
REMARK    3  A    between atoms: C_17  and  C_18
REMARK    4  A    between atoms: C_22  and  O_23
REMARK    5  A    between atoms: O_23  and  C_24
REMARK    6  A    between atoms: C_26  and  O_27
REMARK    7  A    between atoms: O_27  and  C_28
REMARK                            x       y       z     vdW  Elec       q    Type
REMARK                         _______ _______ _______ _____ _____    ______ ____
ROOT
ATOM      1  C   UNL     1       0.334  10.701  19.769  0.00  0.00    +0.000 A 
ATOM      2  C   UNL     1       0.893  10.785  18.408  0.00  0.00    +0.000 A 
ATOM      3  C   UNL     1       1.639   9.785  17.915  0.00  0.00    +0.000 A 
ATOM      4  N   UNL     1       1.882   8.674  18.711  0.00  0.00    +0.000 N 
ATOM      5  C   UNL     1       2.573   7.530  18.413  0.00  0.00    +0.000 A 
ATOM      6  C   UNL     1       2.486   6.729  19.538  0.00  0.00    +0.000 A 
ATOM      7  N   UNL     1       1.790   7.387  20.531  0.00  0.00    +0.000 NA
ATOM      8  C   UNL     1       1.423   8.543  20.009  0.00  0.00    +0.000 A 
ATOM      9  C   UNL     1       0.635   9.614  20.523  0.00  0.00    +0.000 A 
ENDROOT
BRANCH   1  20
ATOM     10  C   UNL     1      -4.472  17.229  25.234  0.00  0.00    +0.000 C 
ATOM     11  N   UNL     1      -3.549  16.377  24.523  0.00  0.00    +0.000 N 
ATOM     12  C   UNL     1      -3.857  15.891  23.259  0.00  0.00    +0.000 A 
ATOM     13  C   UNL     1      -4.672  16.552  22.373  0.00  0.00    +0.000 A 
ATOM     14  C   UNL     1      -4.831  15.967  21.143  0.00  0.00    +0.000 A 
ATOM     15  N   UNL     1      -4.223  14.830  20.773  0.00  0.00    +0.000 NA
ATOM     16  C   UNL     1      -3.423  14.244  21.673  0.00  0.00    +0.000 A 
ATOM     17  N   UNL     1      -2.756  13.104  21.333  0.00  0.00    +0.000 N 
ATOM     18  C   UNL     1      -2.841  12.551  19.977  0.00  0.00    +0.000 C 
ATOM     19  C   UNL     1      -1.441  12.473  19.326  0.00  0.00    +0.000 C 
ATOM     20  N   UNL     1      -0.493  11.744  20.199  0.00  0.00    +0.000 N 
ATOM     21  C   UNL     1      -0.400  12.352  21.552  0.00  0.00    +0.000 C 
ATOM     22  C   UNL     1      -1.787  12.468  22.226  0.00  0.00    +0.000 C 
ATOM     23  N   UNL     1      -3.244  14.747  22.912  0.00  0.00    +0.000 NA
ATOM     24  H   UNL     1      -3.101  15.637  25.056  0.00  0.00    +0.000 HD
ENDBRANCH   1  20
BRANCH   6  25
ATOM     25  C   UNL     1       3.059   5.384  19.641  0.00  0.00    +0.000 A 
ATOM     26  C   UNL     1       2.394   4.431  20.440  0.00  0.00    +0.000 A 
ATOM     27  C   UNL     1       2.899   3.139  20.653  0.00  0.00    +0.000 A 
ATOM     28 CL   UNL     1       1.948   2.149  21.705  0.00  0.00    +0.000 Cl
ATOM     29  C   UNL     1       4.093   2.758  20.045  0.00  0.00    +0.000 A 
ATOM     30  C   UNL     1       4.745   3.697  19.229  0.00  0.00    +0.000 A 
ATOM     31  C   UNL     1       4.250   4.993  19.007  0.00  0.00    +0.000 A 
BRANCH  29  32
ATOM     32  O   UNL     1       4.799   1.591  20.099  0.00  0.00    +0.000 OA
ATOM     33  C   UNL     1       5.383   1.148  21.309  0.00  0.00    +0.000 C 
ENDBRANCH  29  32
BRANCH  31  34
ATOM     34  O   UNL     1       4.941   5.909  18.255  0.00  0.00    +0.000 OA
ATOM     35  C   UNL     1       6.361   5.774  18.236  0.00  0.00    +0.000 C 
ENDBRANCH  31  34
ENDBRANCH   6  25
TORSDOF 4
ENDMDL
MODEL 8
REMARK VINA RESULT:      -7.5      1.752      2.653
REMARK  Name = 
REMARK  7 active torsions:
REMARK  status: ('A' for Active; 'I' for Inactive)
REMARK    1  A    between atoms: C_1  and  N_2
REMARK    2  A    between atoms: N_11  and  C_12
REMARK    3  A    between atoms: C_17  and  C_18
REMARK    4  A    between atoms: C_22  and  O_23
REMARK    5  A    between atoms: O_23  and  C_24
REMARK    6  A    between atoms: C_26  and  O_27
REMARK    7  A    between atoms: O_27  and  C_28
REMARK                            x       y       z     vdW  Elec       q    Type
REMARK                         _______ _______ _______ _____ _____    ______ ____
ROOT
ATOM      1  C   UNL     1      -0.109  11.332  20.403  0.00  0.00    +0.000 A 
ATOM      2  C   UNL     1       0.382  11.831  19.106  0.00  0.00    +0.000 A 
ATOM      3  C   UNL     1       1.141  11.052  18.319  0.00  0.00    +0.000 A 
ATOM      4  N   UNL     1       1.461   9.773  18.750  0.00  0.00    +0.000 N 
ATOM      5  C   UNL     1       2.178   8.797  18.111  0.00  0.00    +0.000 A 
ATOM      6  C   UNL     1       2.174   7.704  18.958  0.00  0.00    +0.000 A 
ATOM      7  N   UNL     1       1.502   8.013  20.122  0.00  0.00    +0.000 NA
ATOM      8  C   UNL     1       1.068   9.251  19.970  0.00  0.00    +0.000 A 
ATOM      9  C   UNL     1       0.267  10.090  20.799  0.00  0.00    +0.000 A 
ENDROOT
BRANCH   1  20
ATOM     10  C   UNL     1      -7.196  17.491  23.126  0.00  0.00    +0.000 C 
ATOM     11  N   UNL     1      -6.344  16.427  22.651  0.00  0.00    +0.000 N 
ATOM     12  C   UNL     1      -5.125  16.164  23.261  0.00  0.00    +0.000 A 
ATOM     13  C   UNL     1      -4.873  16.417  24.587  0.00  0.00    +0.000 A 
ATOM     14  C   UNL     1      -3.637  16.046  25.052  0.00  0.00    +0.000 A 
ATOM     15  N   UNL     1      -2.707  15.443  24.297  0.00  0.00    +0.000 NA
ATOM     16  C   UNL     1      -3.019  15.203  23.017  0.00  0.00    +0.000 A 
ATOM     17  N   UNL     1      -2.119  14.561  22.219  0.00  0.00    +0.000 N 
ATOM     18  C   UNL     1      -0.847  14.064  22.754  0.00  0.00    +0.000 C 
ATOM     19  C   UNL     1      -0.728  12.536  22.560  0.00  0.00    +0.000 C 
ATOM     20  N   UNL     1      -0.953  12.165  21.145  0.00  0.00    +0.000 N 
ATOM     21  C   UNL     1      -2.265  12.648  20.643  0.00  0.00    +0.000 C 
ATOM     22  C   UNL     1      -2.431  14.173  20.843  0.00  0.00    +0.000 C 
ATOM     23  N   UNL     1      -4.204  15.567  22.486  0.00  0.00    +0.000 NA
ATOM     24  H   UNL     1      -6.229  16.344  21.645  0.00  0.00    +0.000 HD
ENDBRANCH   1  20
BRANCH   6  25
ATOM     25  C   UNL     1       2.800   6.416  18.647  0.00  0.00    +0.000 A 
ATOM     26  C   UNL     1       3.722   6.358  17.582  0.00  0.00    +0.000 A 
ATOM     27  C   UNL     1       4.323   5.159  17.166  0.00  0.00    +0.000 A 
ATOM     28 CL   UNL     1       5.385   5.308  15.810  0.00  0.00    +0.000 Cl
ATOM     29  C   UNL     1       4.023   3.973  17.833  0.00  0.00    +0.000 A 
ATOM     30  C   UNL     1       3.125   4.030  18.910  0.00  0.00    +0.000 A 
ATOM     31  C   UNL     1       2.517   5.225  19.336  0.00  0.00    +0.000 A 
BRANCH  29  32
ATOM     32  O   UNL     1       4.447   2.691  17.625  0.00  0.00    +0.000 OA
ATOM     33  C   UNL     1       3.708   1.590  18.116  0.00  0.00    +0.000 C 
ENDBRANCH  29  32
BRANCH  31  34
ATOM     34  O   UNL     1       1.594   5.240  20.351  0.00  0.00    +0.000 OA
ATOM     35  C   UNL     1       1.070   3.976  20.754  0.00  0.00    +0.000 C 
ENDBRANCH  31  34
ENDBRANCH   6  25
TORSDOF 4
ENDMDL
MODEL 9
REMARK VINA RESULT:      -7.5      2.294      3.107
REMARK  Name = 
REMARK  7 active torsions:
REMARK  status: ('A' for Active; 'I' for Inactive)
REMARK    1  A    between atoms: C_1  and  N_2
REMARK    2  A    between atoms: N_11  and  C_12
REMARK    3  A    between atoms: C_17  and  C_18
REMARK    4  A    between atoms: C_22  and  O_23
REMARK    5  A    between atoms: O_23  and  C_24
REMARK    6  A    between atoms: C_26  and  O_27
REMARK    7  A    between atoms: O_27  and  C_28
REMARK                            x       y       z     vdW  Elec       q    Type
REMARK                         _______ _______ _______ _____ _____    ______ ____
ROOT
ATOM      1  C   UNL     1      -0.316  11.455  20.446  0.00  0.00    +0.000 A 
ATOM      2  C   UNL     1       0.311  11.769  19.150  0.00  0.00    +0.000 A 
ATOM      3  C   UNL     1       1.097  10.870  18.538  0.00  0.00    +0.000 A 
ATOM      4  N   UNL     1       1.316   9.644  19.150  0.00  0.00    +0.000 N 
ATOM      5  C   UNL     1       2.038   8.570  18.703  0.00  0.00    +0.000 A 
ATOM      6  C   UNL     1       1.906   7.592  19.673  0.00  0.00    +0.000 A 
ATOM      7  N   UNL     1       1.150   8.070  20.723  0.00  0.00    +0.000 NA
ATOM      8  C   UNL     1       0.792   9.295  20.381  0.00  0.00    +0.000 A 
ATOM      9  C   UNL     1      -0.038  10.260  21.023  0.00  0.00    +0.000 A 
ENDROOT
BRANCH   1  20
ATOM     10  C   UNL     1      -4.153  18.631  25.866  0.00  0.00    +0.000 C 
ATOM     11  N   UNL     1      -3.415  17.750  24.992  0.00  0.00    +0.000 N 
ATOM     12  C   UNL     1      -4.056  16.735  24.296  0.00  0.00    +0.000 A 
ATOM     13  C   UNL     1      -5.371  16.801  23.903  0.00  0.00    +0.000 A 
ATOM     14  C   UNL     1      -5.840  15.739  23.172  0.00  0.00    +0.000 A 
ATOM     15  N   UNL     1      -5.086  14.688  22.816  0.00  0.00    +0.000 NA
ATOM     16  C   UNL     1      -3.806  14.691  23.209  0.00  0.00    +0.000 A 
ATOM     17  N   UNL     1      -2.991  13.662  22.843  0.00  0.00    +0.000 N 
ATOM     18  C   UNL     1      -3.471  12.590  21.964  0.00  0.00    +0.000 C 
ATOM     19  C   UNL     1      -2.621  12.514  20.675  0.00  0.00    +0.000 C 
ATOM     20  N   UNL     1      -1.181  12.407  20.998  0.00  0.00    +0.000 N 
ATOM     21  C   UNL     1      -0.717  13.527  21.857  0.00  0.00    +0.000 C 
ATOM     22  C   UNL     1      -1.560  13.649  23.147  0.00  0.00    +0.000 C 
ATOM     23  N   UNL     1      -3.286  15.688  23.955  0.00  0.00    +0.000 NA
ATOM     24  H   UNL     1      -2.526  17.398  25.337  0.00  0.00    +0.000 HD
ENDBRANCH   1  20
BRANCH   6  25
ATOM     25  C   UNL     1       2.493   6.253  19.581  0.00  0.00    +0.000 A 
ATOM     26  C   UNL     1       2.036   5.258  20.469  0.00  0.00    +0.000 A 
ATOM     27  C   UNL     1       2.583   3.964  20.503  0.00  0.00    +0.000 A 
ATOM     28 CL   UNL     1       1.907   2.918  21.701  0.00  0.00    +0.000 Cl
ATOM     29  C   UNL     1       3.606   3.628  19.619  0.00  0.00    +0.000 A 
ATOM     30  C   UNL     1       4.047   4.609  18.716  0.00  0.00    +0.000 A 
ATOM     31  C   UNL     1       3.507   5.906  18.672  0.00  0.00    +0.000 A 
BRANCH  29  32
ATOM     32  O   UNL     1       4.311   2.469  19.457  0.00  0.00    +0.000 OA
ATOM     33  C   UNL     1       3.810   1.418  18.653  0.00  0.00    +0.000 C 
ENDBRANCH  29  32
BRANCH  31  34
ATOM     34  O   UNL     1       4.001   6.863  17.822  0.00  0.00    +0.000 OA
ATOM     35  C   UNL     1       5.152   6.504  17.061  0.00  0.00    +0.000 C 
ENDBRANCH  31  34
ENDBRANCH   6  25
TORSDOF 4
ENDMDL
