MODEL 1
REMARK VINA RESULT:      -8.7      0.000      0.000
REMARK  Name = 
REMARK  8 active torsions:
REMARK  status: ('A' for Active; 'I' for Inactive)
REMARK    1  A    between atoms: C_1  and  C_2
REMARK    2  A    between atoms: C_6  and  C_7
REMARK    3  A    between atoms: C_8  and  O_9
REMARK    4  A    between atoms: O_9  and  C_10
REMARK    5  A    between atoms: C_10  and  C_11
REMARK    6  A    between atoms: C_11  and  N_12
REMARK    7  A    between atoms: C_13  and  C_14
REMARK    8  A    between atoms: N_18  and  C_19
REMARK                            x       y       z     vdW  Elec       q    Type
REMARK                         _______ _______ _______ _____ _____    ______ ____
ROOT
ATOM      1  N   UNL     1       3.027   5.239  19.113  0.00  0.00    +0.000 N 
ATOM      2  C   UNL     1       3.972   4.829  18.175  0.00  0.00    +0.000 A 
ATOM      3  N   UNL     1       3.641   3.660  17.663  0.00  0.00    +0.000 NA
ATOM      4  C   UNL     1       2.547   3.232  18.357  0.00  0.00    +0.000 A 
ATOM      5  C   UNL     1       1.868   2.006  18.256  0.00  0.00    +0.000 A 
ATOM      6  C   UNL     1       0.792   1.747  19.109  0.00  0.00    +0.000 A 
ATOM      7  C   UNL     1       0.397   2.698  20.044  0.00  0.00    +0.000 A 
ATOM      8  C   UNL     1       1.066   3.922  20.158  0.00  0.00    +0.000 A 
ATOM      9  C   UNL     1       2.144   4.184  19.295  0.00  0.00    +0.000 A 
ENDROOT
BRANCH   2  10
ATOM     10  C   UNL     1       5.246   5.563  17.841  0.00  0.00    +0.000 C 
ATOM     11  C   UNL     1       4.989   6.907  17.180  0.00  0.00    +0.000 C 
ATOM     12  C   UNL     1       5.193   6.666  15.704  0.00  0.00    +0.000 C 
ATOM     13  O   UNL     1       4.906   7.508  14.865  0.00  0.00    +0.000 OA
ATOM     14  N   UNL     1       5.830   5.433  15.534  0.00  0.00    +0.000 N 
ATOM     15  C   UNL     1       6.112   4.819  16.814  0.00  0.00    +0.000 C 
BRANCH  14  16
ATOM     16  C   UNL     1       6.216   4.851  14.290  0.00  0.00    +0.000 A 
ATOM     17  C   UNL     1       7.468   5.116  13.716  0.00  0.00    +0.000 A 
ATOM     18  C   UNL     1       7.839   4.574  12.477  0.00  0.00    +0.000 A 
ATOM     19  C   UNL     1       6.961   3.745  11.789  0.00  0.00    +0.000 A 
ATOM     20  C   UNL     1       5.720   3.462  12.351  0.00  0.00    +0.000 A 
ATOM     21 CL   UNL     1       4.631   2.424  11.506  0.00  0.00    +0.000 Cl
ATOM     22  C   UNL     1       5.346   4.005  13.583  0.00  0.00    +0.000 A 
ENDBRANCH  14  16
ENDBRANCH   2  10
BRANCH   1  23
ATOM     23  C   UNL     1       3.053   6.514  19.831  0.00  0.00    +0.000 C 
BRANCH  23  24
ATOM     24  C   UNL     1       1.707   6.992  20.387  0.00  0.00    +0.000 C 
BRANCH  24  25
ATOM     25  O   UNL     1       1.762   8.319  20.903  0.00  0.00    +0.000 OA
BRANCH  25  33
ATOM     26  C   UNL     1       1.814   9.287  17.860  0.00  0.00    +0.000 C 
ATOM     27  C   UNL     1       0.961   9.777  19.004  0.00  0.00    +0.000 A 
ATOM     28  C   UNL     1       0.082  10.830  18.659  0.00  0.00    +0.000 A 
ATOM     29  C   UNL     1      -0.790  11.391  19.582  0.00  0.00    +0.000 A 
ATOM     30  C   UNL     1      -0.818  10.900  20.875  0.00  0.00    +0.000 A 
ATOM     31  C   UNL     1       0.040   9.857  21.261  0.00  0.00    +0.000 A 
ATOM     32  C   UNL     1      -0.067   9.345  22.673  0.00  0.00    +0.000 C 
ATOM     33  C   UNL     1       0.959   9.292  20.334  0.00  0.00    +0.000 A 
ENDBRANCH  25  33
ENDBRANCH  24  25
ENDBRANCH  23  24
ENDBRANCH   1  23
TORSDOF 6
ENDMDL
MODEL 2
REMARK VINA RESULT:      -8.5      0.230      1.540
REMARK  Name = 
REMARK  8 active torsions:
REMARK  status: ('A' for Active; 'I' for Inactive)
REMARK    1  A    between atoms: C_1  and  C_2
REMARK    2  A    between atoms: C_6  and  C_7
REMARK    3  A    between atoms: C_8  and  O_9
REMARK    4  A    between atoms: O_9  and  C_10
REMARK    5  A    between atoms: C_10  and  C_11
REMARK    6  A    between atoms: C_11  and  N_12
REMARK    7  A    between atoms: C_13  and  C_14
REMARK    8  A    between atoms: N_18  and  C_19
REMARK                            x       y       z     vdW  Elec       q    Type
REMARK                         _______ _______ _______ _____ _____    ______ ____
ROOT
ATOM      1  N   UNL     1       3.090   5.081  19.219  0.00  0.00    +0.000 N 
ATOM      2  C   UNL     1       3.990   4.762  18.205  0.00  0.00    +0.000 A 
ATOM      3  N   UNL     1       3.624   3.655  17.591  0.00  0.00    +0.000 NA
ATOM      4  C   UNL     1       2.555   3.167  18.283  0.00  0.00    +0.000 A 
ATOM      5  C   UNL     1       1.858   1.962  18.088  0.00  0.00    +0.000 A 
ATOM      6  C   UNL     1       0.815   1.626  18.954  0.00  0.00    +0.000 A 
ATOM      7  C   UNL     1       0.470   2.479  19.997  0.00  0.00    +0.000 A 
ATOM      8  C   UNL     1       1.158   3.680  20.206  0.00  0.00    +0.000 A 
ATOM      9  C   UNL     1       2.202   4.021  19.330  0.00  0.00    +0.000 A 
ENDROOT
BRANCH   2  10
ATOM     10  C   UNL     1       5.258   5.517  17.894  0.00  0.00    +0.000 C 
ATOM     11  C   UNL     1       4.990   6.868  17.252  0.00  0.00    +0.000 C 
ATOM     12  C   UNL     1       5.209   6.653  15.774  0.00  0.00    +0.000 C 
ATOM     13  O   UNL     1       4.920   7.504  14.945  0.00  0.00    +0.000 OA
ATOM     14  N   UNL     1       5.864   5.430  15.591  0.00  0.00    +0.000 N 
ATOM     15  C   UNL     1       6.142   4.800  16.863  0.00  0.00    +0.000 C 
BRANCH  14  16
ATOM     16  C   UNL     1       6.267   4.873  14.341  0.00  0.00    +0.000 A 
ATOM     17  C   UNL     1       7.505   5.191  13.764  0.00  0.00    +0.000 A 
ATOM     18  C   UNL     1       7.893   4.672  12.520  0.00  0.00    +0.000 A 
ATOM     19  C   UNL     1       7.046   3.815  11.830  0.00  0.00    +0.000 A 
ATOM     20  C   UNL     1       5.819   3.479  12.394  0.00  0.00    +0.000 A 
ATOM     21 CL   UNL     1       4.769   2.405  11.545  0.00  0.00    +0.000 Cl
ATOM     22  C   UNL     1       5.429   3.999  13.631  0.00  0.00    +0.000 A 
ENDBRANCH  14  16
ENDBRANCH   2  10
BRANCH   1  23
ATOM     23  C   UNL     1       3.161   6.276  20.062  0.00  0.00    +0.000 C 
BRANCH  23  24
ATOM     24  C   UNL     1       1.863   7.083  20.181  0.00  0.00    +0.000 C 
BRANCH  24  25
ATOM     25  O   UNL     1       2.093   8.485  20.295  0.00  0.00    +0.000 OA
BRANCH  25  33
ATOM     26  C   UNL     1       0.116   9.368  22.642  0.00  0.00    +0.000 C 
ATOM     27  C   UNL     1       0.097   9.751  21.183  0.00  0.00    +0.000 A 
ATOM     28  C   UNL     1      -0.971  10.607  20.824  0.00  0.00    +0.000 A 
ATOM     29  C   UNL     1      -1.133  11.074  19.528  0.00  0.00    +0.000 A 
ATOM     30  C   UNL     1      -0.218  10.711  18.555  0.00  0.00    +0.000 A 
ATOM     31  C   UNL     1       0.856   9.861  18.868  0.00  0.00    +0.000 A 
ATOM     32  C   UNL     1       1.836   9.534  17.772  0.00  0.00    +0.000 C 
ATOM     33  C   UNL     1       1.018   9.350  20.185  0.00  0.00    +0.000 A 
ENDBRANCH  25  33
ENDBRANCH  24  25
ENDBRANCH  23  24
ENDBRANCH   1  23
TORSDOF 6
ENDMDL
MODEL 3
REMARK VINA RESULT:      -8.1      1.186      1.834
REMARK  Name = 
REMARK  8 active torsions:
REMARK  status: ('A' for Active; 'I' for Inactive)
REMARK    1  A    between atoms: C_1  and  C_2
REMARK    2  A    between atoms: C_6  and  C_7
REMARK    3  A    between atoms: C_8  and  O_9
REMARK    4  A    between atoms: O_9  and  C_10
REMARK    5  A    between atoms: C_10  and  C_11
REMARK    6  A    between atoms: C_11  and  N_12
REMARK    7  A    between atoms: C_13  and  C_14
REMARK    8  A    between atoms: N_18  and  C_19
REMARK                            x       y       z     vdW  Elec       q    Type
REMARK                         _______ _______ _______ _____ _____    ______ ____
ROOT
ATOM      1  N   UNL     1       3.247   5.441  18.756  0.00  0.00    +0.000 N 
ATOM      2  C   UNL     1       4.563   5.004  18.622  0.00  0.00    +0.000 A 
ATOM      3  N   UNL     1       4.710   3.804  19.147  0.00  0.00    +0.000 NA
ATOM      4  C   UNL     1       3.523   3.499  19.747  0.00  0.00    +0.000 A 
ATOM      5  C   UNL     1       3.194   2.374  20.522  0.00  0.00    +0.000 A 
ATOM      6  C   UNL     1       1.923   2.284  21.094  0.00  0.00    +0.000 A 
ATOM      7  C   UNL     1       0.993   3.298  20.894  0.00  0.00    +0.000 A 
ATOM      8  C   UNL     1       1.307   4.426  20.127  0.00  0.00    +0.000 A 
ATOM      9  C   UNL     1       2.584   4.513  19.546  0.00  0.00    +0.000 A 
ENDROOT
BRANCH   2  10
ATOM     10  C   UNL     1       5.696   5.812  18.041  0.00  0.00    +0.000 C 
ATOM     11  C   UNL     1       5.214   7.068  17.334  0.00  0.00    +0.000 C 
ATOM     12  C   UNL     1       5.215   6.719  15.865  0.00  0.00    +0.000 C 
ATOM     13  O   UNL     1       4.725   7.459  15.024  0.00  0.00    +0.000 OA
ATOM     14  N   UNL     1       5.936   5.535  15.686  0.00  0.00    +0.000 N 
ATOM     15  C   UNL     1       6.465   5.059  16.946  0.00  0.00    +0.000 C 
BRANCH  14  16
ATOM     16  C   UNL     1       6.184   4.884  14.441  0.00  0.00    +0.000 A 
ATOM     17  C   UNL     1       7.459   4.884  13.857  0.00  0.00    +0.000 A 
ATOM     18  C   UNL     1       7.702   4.274  12.618  0.00  0.00    +0.000 A 
ATOM     19  C   UNL     1       6.667   3.642  11.939  0.00  0.00    +0.000 A 
ATOM     20  C   UNL     1       5.399   3.621  12.510  0.00  0.00    +0.000 A 
ATOM     21 CL   UNL     1       4.113   2.828  11.677  0.00  0.00    +0.000 Cl
ATOM     22  C   UNL     1       5.154   4.233  13.743  0.00  0.00    +0.000 A 
ENDBRANCH  14  16
ENDBRANCH   2  10
BRANCH   1  23
ATOM     23  C   UNL     1       2.723   6.704  18.234  0.00  0.00    +0.000 C 
BRANCH  23  24
ATOM     24  C   UNL     1       2.358   7.758  19.286  0.00  0.00    +0.000 C 
BRANCH  24  25
ATOM     25  O   UNL     1       1.359   8.668  18.832  0.00  0.00    +0.000 OA
BRANCH  25  33
ATOM     26  C   UNL     1      -0.280   8.284  21.544  0.00  0.00    +0.000 C 
ATOM     27  C   UNL     1       0.179   9.557  20.879  0.00  0.00    +0.000 A 
ATOM     28  C   UNL     1      -0.202  10.736  21.561  0.00  0.00    +0.000 A 
ATOM     29  C   UNL     1       0.151  11.997  21.101  0.00  0.00    +0.000 A 
ATOM     30  C   UNL     1       0.912  12.113  19.951  0.00  0.00    +0.000 A 
ATOM     31  C   UNL     1       1.309  10.967  19.241  0.00  0.00    +0.000 A 
ATOM     32  C   UNL     1       2.166  11.161  18.017  0.00  0.00    +0.000 C 
ATOM     33  C   UNL     1       0.930   9.670  19.684  0.00  0.00    +0.000 A 
ENDBRANCH  25  33
ENDBRANCH  24  25
ENDBRANCH  23  24
ENDBRANCH   1  23
TORSDOF 6
ENDMDL
MODEL 4
REMARK VINA RESULT:      -7.9      4.190      7.191
REMARK  Name = 
REMARK  8 active torsions:
REMARK  status: ('A' for Active; 'I' for Inactive)
REMARK    1  A    between atoms: C_1  and  C_2
REMARK    2  A    between atoms: C_6  and  C_7
REMARK    3  A    between atoms: C_8  and  O_9
REMARK    4  A    between atoms: O_9  and  C_10
REMARK    5  A    between atoms: C_10  and  C_11
REMARK    6  A    between atoms: C_11  and  N_12
REMARK    7  A    between atoms: C_13  and  C_14
REMARK    8  A    between atoms: N_18  and  C_19
REMARK                            x       y       z     vdW  Elec       q    Type
REMARK                         _______ _______ _______ _____ _____    ______ ____
ROOT
ATOM      1  N   UNL     1      -0.490  10.972  19.289  0.00  0.00    +0.000 N 
ATOM      2  C   UNL     1       0.355  10.022  18.719  0.00  0.00    +0.000 A 
ATOM      3  N   UNL     1      -0.186   9.513  17.630  0.00  0.00    +0.000 NA
ATOM      4  C   UNL     1      -1.446  10.028  17.550  0.00  0.00    +0.000 A 
ATOM      5  C   UNL     1      -2.460   9.729  16.624  0.00  0.00    +0.000 A 
ATOM      6  C   UNL     1      -3.710  10.338  16.756  0.00  0.00    +0.000 A 
ATOM      7  C   UNL     1      -3.945  11.233  17.794  0.00  0.00    +0.000 A 
ATOM      8  C   UNL     1      -2.947  11.538  18.726  0.00  0.00    +0.000 A 
ATOM      9  C   UNL     1      -1.687  10.931  18.588  0.00  0.00    +0.000 A 
ENDROOT
BRANCH   2  10
ATOM     10  C   UNL     1       1.669   9.564  19.299  0.00  0.00    +0.000 C 
ATOM     11  C   UNL     1       2.751   9.407  18.243  0.00  0.00    +0.000 C 
ATOM     12  C   UNL     1       2.802   7.928  17.947  0.00  0.00    +0.000 C 
ATOM     13  O   UNL     1       3.459   7.475  17.021  0.00  0.00    +0.000 OA
ATOM     14  N   UNL     1       2.096   7.246  18.944  0.00  0.00    +0.000 N 
ATOM     15  C   UNL     1       1.586   8.169  19.936  0.00  0.00    +0.000 C 
BRANCH  14  16
ATOM     16  C   UNL     1       1.927   5.833  19.035  0.00  0.00    +0.000 A 
ATOM     17  C   UNL     1       1.733   5.044  17.892  0.00  0.00    +0.000 A 
ATOM     18  C   UNL     1       1.533   3.658  17.979  0.00  0.00    +0.000 A 
ATOM     19  C   UNL     1       1.531   3.032  19.219  0.00  0.00    +0.000 A 
ATOM     20  C   UNL     1       1.736   3.798  20.362  0.00  0.00    +0.000 A 
ATOM     21 CL   UNL     1       1.746   3.023  21.904  0.00  0.00    +0.000 Cl
ATOM     22  C   UNL     1       1.930   5.179  20.279  0.00  0.00    +0.000 A 
ENDBRANCH  14  16
ENDBRANCH   2  10
BRANCH   1  23
ATOM     23  C   UNL     1      -0.178  11.774  20.473  0.00  0.00    +0.000 C 
BRANCH  23  24
ATOM     24  C   UNL     1      -0.167  13.293  20.263  0.00  0.00    +0.000 C 
BRANCH  24  25
ATOM     25  O   UNL     1       0.103  13.661  18.913  0.00  0.00    +0.000 OA
BRANCH  25  33
ATOM     26  C   UNL     1      -0.798  16.718  19.121  0.00  0.00    +0.000 C 
ATOM     27  C   UNL     1       0.536  16.141  18.717  0.00  0.00    +0.000 A 
ATOM     28  C   UNL     1       1.503  17.111  18.364  0.00  0.00    +0.000 A 
ATOM     29  C   UNL     1       2.791  16.761  17.984  0.00  0.00    +0.000 A 
ATOM     30  C   UNL     1       3.154  15.425  17.964  0.00  0.00    +0.000 A 
ATOM     31  C   UNL     1       2.224  14.429  18.305  0.00  0.00    +0.000 A 
ATOM     32  C   UNL     1       2.693  12.998  18.297  0.00  0.00    +0.000 C 
ATOM     33  C   UNL     1       0.892  14.771  18.668  0.00  0.00    +0.000 A 
ENDBRANCH  25  33
ENDBRANCH  24  25
ENDBRANCH  23  24
ENDBRANCH   1  23
TORSDOF 6
ENDMDL
MODEL 5
REMARK VINA RESULT:      -7.9      3.088      7.939
REMARK  Name = 
REMARK  8 active torsions:
REMARK  status: ('A' for Active; 'I' for Inactive)
REMARK    1  A    between atoms: C_1  and  C_2
REMARK    2  A    between atoms: C_6  and  C_7
REMARK    3  A    between atoms: C_8  and  O_9
REMARK    4  A    between atoms: O_9  and  C_10
REMARK    5  A    between atoms: C_10  and  C_11
REMARK    6  A    between atoms: C_11  and  N_12
REMARK    7  A    between atoms: C_13  and  C_14
REMARK    8  A    between atoms: N_18  and  C_19
REMARK                            x       y       z     vdW  Elec       q    Type
REMARK                         _______ _______ _______ _____ _____    ______ ____
ROOT
ATOM      1  N   UNL     1       2.099   6.597  18.683  0.00  0.00    +0.000 N 
ATOM      2  C   UNL     1       1.968   7.176  19.944  0.00  0.00    +0.000 A 
ATOM      3  N   UNL     1       1.696   6.258  20.850  0.00  0.00    +0.000 NA
ATOM      4  C   UNL     1       1.516   5.089  20.171  0.00  0.00    +0.000 A 
ATOM      5  C   UNL     1       1.119   3.836  20.669  0.00  0.00    +0.000 A 
ATOM      6  C   UNL     1       0.941   2.771  19.782  0.00  0.00    +0.000 A 
ATOM      7  C   UNL     1       1.158   2.952  18.421  0.00  0.00    +0.000 A 
ATOM      8  C   UNL     1       1.550   4.195  17.909  0.00  0.00    +0.000 A 
ATOM      9  C   UNL     1       1.735   5.264  18.803  0.00  0.00    +0.000 A 
ENDROOT
BRANCH   2  10
ATOM     10  C   UNL     1       2.037   8.653  20.237  0.00  0.00    +0.000 C 
ATOM     11  C   UNL     1       1.353   9.022  21.543  0.00  0.00    +0.000 C 
ATOM     12  C   UNL     1      -0.003   9.553  21.143  0.00  0.00    +0.000 C 
ATOM     13  O   UNL     1      -0.874   9.790  21.967  0.00  0.00    +0.000 OA
ATOM     14  N   UNL     1       0.001   9.801  19.766  0.00  0.00    +0.000 N 
ATOM     15  C   UNL     1       1.297   9.504  19.194  0.00  0.00    +0.000 C 
BRANCH  14  16
ATOM     16  C   UNL     1      -1.085  10.327  19.006  0.00  0.00    +0.000 A 
ATOM     17  C   UNL     1      -1.895  11.358  19.503  0.00  0.00    +0.000 A 
ATOM     18  C   UNL     1      -2.984  11.855  18.773  0.00  0.00    +0.000 A 
ATOM     19  C   UNL     1      -3.280  11.332  17.520  0.00  0.00    +0.000 A 
ATOM     20  C   UNL     1      -2.478  10.318  17.006  0.00  0.00    +0.000 A 
ATOM     21 CL   UNL     1      -2.834   9.673  15.446  0.00  0.00    +0.000 Cl
ATOM     22  C   UNL     1      -1.395   9.817  17.734  0.00  0.00    +0.000 A 
ENDBRANCH  14  16
ENDBRANCH   2  10
BRANCH   1  23
ATOM     23  C   UNL     1       2.456   7.317  17.460  0.00  0.00    +0.000 C 
BRANCH  23  24
ATOM     24  C   UNL     1       3.901   7.825  17.385  0.00  0.00    +0.000 C 
BRANCH  24  25
ATOM     25  O   UNL     1       4.722   7.031  16.532  0.00  0.00    +0.000 OA
BRANCH  25  33
ATOM     26  C   UNL     1       7.347   8.384  17.745  0.00  0.00    +0.000 C 
ATOM     27  C   UNL     1       7.008   6.922  17.598  0.00  0.00    +0.000 A 
ATOM     28  C   UNL     1       8.022   6.045  18.049  0.00  0.00    +0.000 A 
ATOM     29  C   UNL     1       7.873   4.666  18.006  0.00  0.00    +0.000 A 
ATOM     30  C   UNL     1       6.693   4.124  17.525  0.00  0.00    +0.000 A 
ATOM     31  C   UNL     1       5.661   4.959  17.065  0.00  0.00    +0.000 A 
ATOM     32  C   UNL     1       4.390   4.307  16.588  0.00  0.00    +0.000 C 
ATOM     33  C   UNL     1       5.812   6.373  17.075  0.00  0.00    +0.000 A 
ENDBRANCH  25  33
ENDBRANCH  24  25
ENDBRANCH  23  24
ENDBRANCH   1  23
TORSDOF 6
ENDMDL
MODEL 6
REMARK VINA RESULT:      -7.9      4.951     10.738
REMARK  Name = 
REMARK  8 active torsions:
REMARK  status: ('A' for Active; 'I' for Inactive)
REMARK    1  A    between atoms: C_1  and  C_2
REMARK    2  A    between atoms: C_6  and  C_7
REMARK    3  A    between atoms: C_8  and  O_9
REMARK    4  A    between atoms: O_9  and  C_10
REMARK    5  A    between atoms: C_10  and  C_11
REMARK    6  A    between atoms: C_11  and  N_12
REMARK    7  A    between atoms: C_13  and  C_14
REMARK    8  A    between atoms: N_18  and  C_19
REMARK                            x       y       z     vdW  Elec       q    Type
REMARK                         _______ _______ _______ _____ _____    ______ ____
ROOT
ATOM      1  N   UNL     1      -0.320  10.268  18.162  0.00  0.00    +0.000 N 
ATOM      2  C   UNL     1      -0.703  10.943  19.319  0.00  0.00    +0.000 A 
ATOM      3  N   UNL     1      -2.009  11.119  19.343  0.00  0.00    +0.000 NA
ATOM      4  C   UNL     1      -2.478  10.679  18.140  0.00  0.00    +0.000 A 
ATOM      5  C   UNL     1      -3.789  10.735  17.635  0.00  0.00    +0.000 A 
ATOM      6  C   UNL     1      -4.045  10.271  16.342  0.00  0.00    +0.000 A 
ATOM      7  C   UNL     1      -3.011   9.757  15.567  0.00  0.00    +0.000 A 
ATOM      8  C   UNL     1      -1.700   9.699  16.055  0.00  0.00    +0.000 A 
ATOM      9  C   UNL     1      -1.445  10.159  17.358  0.00  0.00    +0.000 A 
ENDROOT
BRANCH   2  10
ATOM     10  C   UNL     1       0.238  11.482  20.367  0.00  0.00    +0.000 C 
ATOM     11  C   UNL     1       0.522  10.475  21.470  0.00  0.00    +0.000 C 
ATOM     12  C   UNL     1      -0.375  10.880  22.614  0.00  0.00    +0.000 C 
ATOM     13  O   UNL     1      -0.513  10.180  23.607  0.00  0.00    +0.000 OA
ATOM     14  N   UNL     1      -0.870  12.164  22.364  0.00  0.00    +0.000 N 
ATOM     15  C   UNL     1      -0.339  12.687  21.124  0.00  0.00    +0.000 C 
BRANCH  14  16
ATOM     16  C   UNL     1      -1.737  12.910  23.216  0.00  0.00    +0.000 A 
ATOM     17  C   UNL     1      -1.321  14.109  23.813  0.00  0.00    +0.000 A 
ATOM     18  C   UNL     1      -2.158  14.829  24.678  0.00  0.00    +0.000 A 
ATOM     19  C   UNL     1      -3.437  14.363  24.958  0.00  0.00    +0.000 A 
ATOM     20  C   UNL     1      -3.869  13.182  24.364  0.00  0.00    +0.000 A 
ATOM     21 CL   UNL     1      -5.460  12.604  24.699  0.00  0.00    +0.000 Cl
ATOM     22  C   UNL     1      -3.035  12.460  23.506  0.00  0.00    +0.000 A 
ENDBRANCH  14  16
ENDBRANCH   2  10
BRANCH   1  23
ATOM     23  C   UNL     1       1.048   9.857  17.842  0.00  0.00    +0.000 C 
BRANCH  23  24
ATOM     24  C   UNL     1       1.319   8.349  17.897  0.00  0.00    +0.000 C 
BRANCH  24  25
ATOM     25  O   UNL     1       2.683   8.043  18.175  0.00  0.00    +0.000 OA
BRANCH  25  33
ATOM     26  C   UNL     1       1.419   6.597  20.725  0.00  0.00    +0.000 C 
ATOM     27  C   UNL     1       2.496   6.109  19.788  0.00  0.00    +0.000 A 
ATOM     28  C   UNL     1       3.019   4.838  20.119  0.00  0.00    +0.000 A 
ATOM     29  C   UNL     1       4.003   4.227  19.355  0.00  0.00    +0.000 A 
ATOM     30  C   UNL     1       4.481   4.866  18.224  0.00  0.00    +0.000 A 
ATOM     31  C   UNL     1       3.990   6.132  17.860  0.00  0.00    +0.000 A 
ATOM     32  C   UNL     1       4.526   6.757  16.599  0.00  0.00    +0.000 C 
ATOM     33  C   UNL     1       3.003   6.783  18.650  0.00  0.00    +0.000 A 
ENDBRANCH  25  33
ENDBRANCH  24  25
ENDBRANCH  23  24
ENDBRANCH   1  23
TORSDOF 6
ENDMDL
MODEL 7
REMARK VINA RESULT:      -7.9      4.133      7.547
REMARK  Name = 
REMARK  8 active torsions:
REMARK  status: ('A' for Active; 'I' for Inactive)
REMARK    1  A    between atoms: C_1  and  C_2
REMARK    2  A    between atoms: C_6  and  C_7
REMARK    3  A    between atoms: C_8  and  O_9
REMARK    4  A    between atoms: O_9  and  C_10
REMARK    5  A    between atoms: C_10  and  C_11
REMARK    6  A    between atoms: C_11  and  N_12
REMARK    7  A    between atoms: C_13  and  C_14
REMARK    8  A    between atoms: N_18  and  C_19
REMARK                            x       y       z     vdW  Elec       q    Type
REMARK                         _______ _______ _______ _____ _____    ______ ____
ROOT
ATOM      1  N   UNL     1      -0.983  11.771  19.253  0.00  0.00    +0.000 N 
ATOM      2  C   UNL     1      -0.188  10.708  18.830  0.00  0.00    +0.000 A 
ATOM      3  N   UNL     1      -0.882   9.883  18.071  0.00  0.00    +0.000 NA
ATOM      4  C   UNL     1      -2.171  10.329  18.097  0.00  0.00    +0.000 A 
ATOM      5  C   UNL     1      -3.313   9.745  17.523  0.00  0.00    +0.000 A 
ATOM      6  C   UNL     1      -4.560  10.345  17.719  0.00  0.00    +0.000 A 
ATOM      7  C   UNL     1      -4.665  11.509  18.472  0.00  0.00    +0.000 A 
ATOM      8  C   UNL     1      -3.537  12.099  19.053  0.00  0.00    +0.000 A 
ATOM      9  C   UNL     1      -2.282  11.499  18.850  0.00  0.00    +0.000 A 
ENDROOT
BRANCH   2  10
ATOM     10  C   UNL     1       1.242  10.469  19.244  0.00  0.00    +0.000 C 
ATOM     11  C   UNL     1       2.177  10.321  18.055  0.00  0.00    +0.000 C 
ATOM     12  C   UNL     1       2.377   8.833  17.893  0.00  0.00    +0.000 C 
ATOM     13  O   UNL     1       2.951   8.359  16.923  0.00  0.00    +0.000 OA
ATOM     14  N   UNL     1       1.911   8.190  19.044  0.00  0.00    +0.000 N 
ATOM     15  C   UNL     1       1.429   9.152  20.012  0.00  0.00    +0.000 C 
BRANCH  14  16
ATOM     16  C   UNL     1       1.940   6.785  19.291  0.00  0.00    +0.000 A 
ATOM     17  C   UNL     1       1.756   6.265  20.580  0.00  0.00    +0.000 A 
ATOM     18  C   UNL     1       1.816   4.887  20.833  0.00  0.00    +0.000 A 
ATOM     19  C   UNL     1       2.057   3.998  19.792  0.00  0.00    +0.000 A 
ATOM     20  C   UNL     1       2.229   4.497  18.505  0.00  0.00    +0.000 A 
ATOM     21 CL   UNL     1       2.516   3.396  17.208  0.00  0.00    +0.000 Cl
ATOM     22  C   UNL     1       2.174   5.870  18.251  0.00  0.00    +0.000 A 
ENDBRANCH  14  16
ENDBRANCH   2  10
BRANCH   1  23
ATOM     23  C   UNL     1      -0.518  12.900  20.061  0.00  0.00    +0.000 C 
BRANCH  23  24
ATOM     24  C   UNL     1      -0.709  14.287  19.438  0.00  0.00    +0.000 C 
BRANCH  24  25
ATOM     25  O   UNL     1       0.292  15.218  19.843  0.00  0.00    +0.000 OA
BRANCH  25  33
ATOM     26  C   UNL     1       2.973  13.800  18.847  0.00  0.00    +0.000 C 
ATOM     27  C   UNL     1       2.390  15.131  18.442  0.00  0.00    +0.000 A 
ATOM     28  C   UNL     1       3.171  15.842  17.502  0.00  0.00    +0.000 A 
ATOM     29  C   UNL     1       2.777  17.077  17.004  0.00  0.00    +0.000 A 
ATOM     30  C   UNL     1       1.578  17.626  17.421  0.00  0.00    +0.000 A 
ATOM     31  C   UNL     1       0.772  16.954  18.356  0.00  0.00    +0.000 A 
ATOM     32  C   UNL     1      -0.537  17.590  18.741  0.00  0.00    +0.000 C 
ATOM     33  C   UNL     1       1.177  15.703  18.897  0.00  0.00    +0.000 A 
ENDBRANCH  25  33
ENDBRANCH  24  25
ENDBRANCH  23  24
ENDBRANCH   1  23
TORSDOF 6
ENDMDL
MODEL 8
REMARK VINA RESULT:      -7.8      1.016      1.061
REMARK  Name = 
REMARK  8 active torsions:
REMARK  status: ('A' for Active; 'I' for Inactive)
REMARK    1  A    between atoms: C_1  and  C_2
REMARK    2  A    between atoms: C_6  and  C_7
REMARK    3  A    between atoms: C_8  and  O_9
REMARK    4  A    between atoms: O_9  and  C_10
REMARK    5  A    between atoms: C_10  and  C_11
REMARK    6  A    between atoms: C_11  and  N_12
REMARK    7  A    between atoms: C_13  and  C_14
REMARK    8  A    between atoms: N_18  and  C_19
REMARK                            x       y       z     vdW  Elec       q    Type
REMARK                         _______ _______ _______ _____ _____    ______ ____
ROOT
ATOM      1  N   UNL     1       3.235   5.509  18.789  0.00  0.00    +0.000 N 
ATOM      2  C   UNL     1       4.478   4.978  18.451  0.00  0.00    +0.000 A 
ATOM      3  N   UNL     1       4.532   3.695  18.751  0.00  0.00    +0.000 NA
ATOM      4  C   UNL     1       3.373   3.405  19.410  0.00  0.00    +0.000 A 
ATOM      5  C   UNL     1       2.987   2.198  20.017  0.00  0.00    +0.000 A 
ATOM      6  C   UNL     1       1.766   2.131  20.693  0.00  0.00    +0.000 A 
ATOM      7  C   UNL     1       0.942   3.250  20.759  0.00  0.00    +0.000 A 
ATOM      8  C   UNL     1       1.315   4.460  20.163  0.00  0.00    +0.000 A 
ATOM      9  C   UNL     1       2.541   4.524  19.477  0.00  0.00    +0.000 A 
ENDROOT
BRANCH   2  10
ATOM     10  C   UNL     1       5.641   5.763  17.899  0.00  0.00    +0.000 C 
ATOM     11  C   UNL     1       5.203   7.033  17.188  0.00  0.00    +0.000 C 
ATOM     12  C   UNL     1       5.230   6.691  15.718  0.00  0.00    +0.000 C 
ATOM     13  O   UNL     1       4.776   7.445  14.869  0.00  0.00    +0.000 OA
ATOM     14  N   UNL     1       5.929   5.491  15.549  0.00  0.00    +0.000 N 
ATOM     15  C   UNL     1       6.418   4.998  16.818  0.00  0.00    +0.000 C 
BRANCH  14  16
ATOM     16  C   UNL     1       6.191   4.841  14.307  0.00  0.00    +0.000 A 
ATOM     17  C   UNL     1       7.469   4.854  13.729  0.00  0.00    +0.000 A 
ATOM     18  C   UNL     1       7.724   4.245  12.493  0.00  0.00    +0.000 A 
ATOM     19  C   UNL     1       6.700   3.600  11.810  0.00  0.00    +0.000 A 
ATOM     20  C   UNL     1       5.429   3.565  12.375  0.00  0.00    +0.000 A 
ATOM     21 CL   UNL     1       4.157   2.755  11.537  0.00  0.00    +0.000 Cl
ATOM     22  C   UNL     1       5.171   4.176  13.605  0.00  0.00    +0.000 A 
ENDBRANCH  14  16
ENDBRANCH   2  10
BRANCH   1  23
ATOM     23  C   UNL     1       2.813   6.888  18.540  0.00  0.00    +0.000 C 
BRANCH  23  24
ATOM     24  C   UNL     1       2.264   7.645  19.755  0.00  0.00    +0.000 C 
BRANCH  24  25
ATOM     25  O   UNL     1       1.031   8.306  19.482  0.00  0.00    +0.000 OA
BRANCH  25  33
ATOM     26  C   UNL     1       2.070  10.952  18.027  0.00  0.00    +0.000 C 
ATOM     27  C   UNL     1       1.322  10.809  19.330  0.00  0.00    +0.000 A 
ATOM     28  C   UNL     1       1.077  12.034  19.993  0.00  0.00    +0.000 A 
ATOM     29  C   UNL     1       0.385  12.093  21.194  0.00  0.00    +0.000 A 
ATOM     30  C   UNL     1      -0.097  10.926  21.759  0.00  0.00    +0.000 A 
ATOM     31  C   UNL     1       0.126   9.687  21.135  0.00  0.00    +0.000 A 
ATOM     32  C   UNL     1      -0.456   8.459  21.783  0.00  0.00    +0.000 C 
ATOM     33  C   UNL     1       0.859   9.608  19.919  0.00  0.00    +0.000 A 
ENDBRANCH  25  33
ENDBRANCH  24  25
ENDBRANCH  23  24
ENDBRANCH   1  23
TORSDOF 6
ENDMDL
MODEL 9
REMARK VINA RESULT:      -7.8      7.239     11.295
REMARK  Name = 
REMARK  8 active torsions:
REMARK  status: ('A' for Active; 'I' for Inactive)
REMARK    1  A    between atoms: C_1  and  C_2
REMARK    2  A    between atoms: C_6  and  C_7
REMARK    3  A    between atoms: C_8  and  O_9
REMARK    4  A    between atoms: O_9  and  C_10
REMARK    5  A    between atoms: C_10  and  C_11
REMARK    6  A    between atoms: C_11  and  N_12
REMARK    7  A    between atoms: C_13  and  C_14
REMARK    8  A    between atoms: N_18  and  C_19
REMARK                            x       y       z     vdW  Elec       q    Type
REMARK                         _______ _______ _______ _____ _____    ______ ____
ROOT
ATOM      1  N   UNL     1       6.202  14.890  19.028  0.00  0.00    +0.000 N 
ATOM      2  C   UNL     1       4.824  15.020  19.189  0.00  0.00    +0.000 A 
ATOM      3  N   UNL     1       4.526  15.271  20.448  0.00  0.00    +0.000 NA
ATOM      4  C   UNL     1       5.694  15.176  21.146  0.00  0.00    +0.000 A 
ATOM      5  C   UNL     1       5.897  15.266  22.534  0.00  0.00    +0.000 A 
ATOM      6  C   UNL     1       7.182  15.083  23.051  0.00  0.00    +0.000 A 
ATOM      7  C   UNL     1       8.247  14.817  22.198  0.00  0.00    +0.000 A 
ATOM      8  C   UNL     1       8.060  14.721  20.815  0.00  0.00    +0.000 A 
ATOM      9  C   UNL     1       6.768  14.912  20.294  0.00  0.00    +0.000 A 
ENDROOT
BRANCH   2  10
ATOM     10  C   UNL     1       3.796  14.820  18.105  0.00  0.00    +0.000 C 
ATOM     11  C   UNL     1       2.642  15.804  18.205  0.00  0.00    +0.000 C 
ATOM     12  C   UNL     1       1.527  15.037  18.874  0.00  0.00    +0.000 C 
ATOM     13  O   UNL     1       0.502  15.585  19.254  0.00  0.00    +0.000 OA
ATOM     14  N   UNL     1       1.845  13.676  18.858  0.00  0.00    +0.000 N 
ATOM     15  C   UNL     1       3.106  13.450  18.183  0.00  0.00    +0.000 C 
BRANCH  14  16
ATOM     16  C   UNL     1       1.039  12.619  19.375  0.00  0.00    +0.000 A 
ATOM     17  C   UNL     1       1.206  12.147  20.685  0.00  0.00    +0.000 A 
ATOM     18  C   UNL     1       0.439  11.086  21.189  0.00  0.00    +0.000 A 
ATOM     19  C   UNL     1      -0.520  10.479  20.387  0.00  0.00    +0.000 A 
ATOM     20  C   UNL     1      -0.707  10.944  19.089  0.00  0.00    +0.000 A 
ATOM     21 CL   UNL     1      -1.905  10.202  18.094  0.00  0.00    +0.000 Cl
ATOM     22  C   UNL     1       0.060  11.997  18.584  0.00  0.00    +0.000 A 
ENDBRANCH  14  16
ENDBRANCH   2  10
BRANCH   1  23
ATOM     23  C   UNL     1       6.882  14.667  17.751  0.00  0.00    +0.000 C 
BRANCH  23  24
ATOM     24  C   UNL     1       7.301  13.220  17.465  0.00  0.00    +0.000 C 
BRANCH  24  25
ATOM     25  O   UNL     1       8.685  13.099  17.146  0.00  0.00    +0.000 OA
BRANCH  25  33
ATOM     26  C   UNL     1       8.778  10.137  18.333  0.00  0.00    +0.000 C 
ATOM     27  C   UNL     1       9.620  11.336  18.692  0.00  0.00    +0.000 A 
ATOM     28  C   UNL     1      10.563  11.094  19.718  0.00  0.00    +0.000 A 
ATOM     29  C   UNL     1      11.434  12.079  20.162  0.00  0.00    +0.000 A 
ATOM     30  C   UNL     1      11.397  13.333  19.577  0.00  0.00    +0.000 A 
ATOM     31  C   UNL     1      10.474  13.617  18.556  0.00  0.00    +0.000 A 
ATOM     32  C   UNL     1      10.510  14.990  17.938  0.00  0.00    +0.000 C 
ATOM     33  C   UNL     1       9.556  12.626  18.112  0.00  0.00    +0.000 A 
ENDBRANCH  25  33
ENDBRANCH  24  25
ENDBRANCH  23  24
ENDBRANCH   1  23
TORSDOF 6
ENDMDL
