MODEL 1
REMARK VINA RESULT:      -8.2      0.000      0.000
REMARK  Name = 
REMARK  1 active torsions:
REMARK  status: ('A' for Active; 'I' for Inactive)
REMARK    1  A    between atoms: C_4  and  C_5
REMARK                            x       y       z     vdW  Elec       q    Type
REMARK                         _______ _______ _______ _____ _____    ______ ____
ROOT
ATOM      1  O   UNL     1       1.603   3.495  21.144  0.00  0.00    +0.000 OA
ATOM      2  C   UNL     1       1.924   4.474  20.483  0.00  0.00    +0.000 A 
ATOM      3  C   UNL     1       1.471   5.814  20.855  0.00  0.00    +0.000 A 
ATOM      4  C   UNL     1       1.873   6.864  20.126  0.00  0.00    +0.000 A 
ATOM      5  O   UNL     1       2.705   6.773  19.023  0.00  0.00    +0.000 OA
ATOM      6  C   UNL     1       3.142   5.534  18.614  0.00  0.00    +0.000 A 
ATOM      7  C   UNL     1       2.775   4.372  19.290  0.00  0.00    +0.000 A 
ATOM      8  C   UNL     1       3.212   3.124  18.849  0.00  0.00    +0.000 A 
ATOM      9  C   UNL     1       4.032   3.041  17.726  0.00  0.00    +0.000 A 
ATOM     10  C   UNL     1       4.430   4.199  17.038  0.00  0.00    +0.000 A 
ATOM     11  C   UNL     1       5.268   4.110  15.916  0.00  0.00    +0.000 A 
ATOM     12  C   UNL     1       5.670   5.256  15.230  0.00  0.00    +0.000 A 
ATOM     13  C   UNL     1       5.240   6.507  15.658  0.00  0.00    +0.000 A 
ATOM     14  C   UNL     1       4.404   6.613  16.771  0.00  0.00    +0.000 A 
ATOM     15  C   UNL     1       3.983   5.469  17.482  0.00  0.00    +0.000 A 
ENDROOT
BRANCH   4  16
ATOM     16  C   UNL     1       1.448   8.231  20.481  0.00  0.00    +0.000 A 
ATOM     17  C   UNL     1       1.174   8.578  21.800  0.00  0.00    +0.000 A 
ATOM     18  C   UNL     1       0.716   9.863  22.076  0.00  0.00    +0.000 A 
ATOM     19  C   UNL     1       0.554  10.764  21.035  0.00  0.00    +0.000 A 
ATOM     20  C   UNL     1       0.868  10.353  19.754  0.00  0.00    +0.000 A 
ATOM     21  N   UNL     1       1.312   9.113  19.458  0.00  0.00    +0.000 NA
ENDBRANCH   4  16
TORSDOF 1
ENDMDL
MODEL 2
REMARK VINA RESULT:      -8.0      1.833      3.820
REMARK  Name = 
REMARK  1 active torsions:
REMARK  status: ('A' for Active; 'I' for Inactive)
REMARK    1  A    between atoms: C_4  and  C_5
REMARK                            x       y       z     vdW  Elec       q    Type
REMARK                         _______ _______ _______ _____ _____    ______ ____
ROOT
ATOM      1  O   UNL     1       2.743   8.915  16.977  0.00  0.00    +0.000 OA
ATOM      2  C   UNL     1       2.395   8.448  18.054  0.00  0.00    +0.000 A 
ATOM      3  C   UNL     1       1.648   9.254  19.018  0.00  0.00    +0.000 A 
ATOM      4  C   UNL     1       1.255   8.696  20.171  0.00  0.00    +0.000 A 
ATOM      5  O   UNL     1       1.508   7.381  20.525  0.00  0.00    +0.000 OA
ATOM      6  C   UNL     1       2.228   6.584  19.666  0.00  0.00    +0.000 A 
ATOM      7  C   UNL     1       2.699   7.065  18.445  0.00  0.00    +0.000 A 
ATOM      8  C   UNL     1       3.444   6.247  17.597  0.00  0.00    +0.000 A 
ATOM      9  C   UNL     1       3.712   4.932  17.971  0.00  0.00    +0.000 A 
ATOM     10  C   UNL     1       3.234   4.419  19.188  0.00  0.00    +0.000 A 
ATOM     11  C   UNL     1       3.495   3.089  19.553  0.00  0.00    +0.000 A 
ATOM     12  C   UNL     1       3.020   2.571  20.758  0.00  0.00    +0.000 A 
ATOM     13  C   UNL     1       2.277   3.376  21.615  0.00  0.00    +0.000 A 
ATOM     14  C   UNL     1       2.011   4.702  21.268  0.00  0.00    +0.000 A 
ATOM     15  C   UNL     1       2.480   5.249  20.055  0.00  0.00    +0.000 A 
ENDROOT
BRANCH   4  16
ATOM     16  C   UNL     1       0.486   9.475  21.160  0.00  0.00    +0.000 A 
ATOM     17  C   UNL     1       0.340   9.028  22.469  0.00  0.00    +0.000 A 
ATOM     18  C   UNL     1      -0.447   9.766  23.349  0.00  0.00    +0.000 A 
ATOM     19  C   UNL     1      -1.055  10.928  22.901  0.00  0.00    +0.000 A 
ATOM     20  C   UNL     1      -0.846  11.319  21.593  0.00  0.00    +0.000 A 
ATOM     21  N   UNL     1      -0.091  10.621  20.719  0.00  0.00    +0.000 NA
ENDBRANCH   4  16
TORSDOF 1
ENDMDL
MODEL 3
REMARK VINA RESULT:      -8.0      2.592      6.928
REMARK  Name = 
REMARK  1 active torsions:
REMARK  status: ('A' for Active; 'I' for Inactive)
REMARK    1  A    between atoms: C_4  and  C_5
REMARK                            x       y       z     vdW  Elec       q    Type
REMARK                         _______ _______ _______ _____ _____    ______ ____
ROOT
ATOM      1  O   UNL     1       2.876   8.544  16.925  0.00  0.00    +0.000 OA
ATOM      2  C   UNL     1       2.449   8.148  18.002  0.00  0.00    +0.000 A 
ATOM      3  C   UNL     1       2.671   6.770  18.438  0.00  0.00    +0.000 A 
ATOM      4  C   UNL     1       2.217   6.384  19.639  0.00  0.00    +0.000 A 
ATOM      5  O   UNL     1       1.541   7.213  20.518  0.00  0.00    +0.000 OA
ATOM      6  C   UNL     1       1.284   8.513  20.149  0.00  0.00    +0.000 A 
ATOM      7  C   UNL     1       1.698   9.017  18.917  0.00  0.00    +0.000 A 
ATOM      8  C   UNL     1       1.411  10.332  18.553  0.00  0.00    +0.000 A 
ATOM      9  C   UNL     1       0.712  11.152  19.437  0.00  0.00    +0.000 A 
ATOM     10  C   UNL     1       0.300  10.673  20.691  0.00  0.00    +0.000 A 
ATOM     11  C   UNL     1      -0.393  11.508  21.581  0.00  0.00    +0.000 A 
ATOM     12  C   UNL     1      -0.801  11.040  22.830  0.00  0.00    +0.000 A 
ATOM     13  C   UNL     1      -0.524   9.730  23.205  0.00  0.00    +0.000 A 
ATOM     14  C   UNL     1       0.161   8.885  22.330  0.00  0.00    +0.000 A 
ATOM     15  C   UNL     1       0.586   9.334  21.061  0.00  0.00    +0.000 A 
ENDROOT
BRANCH   4  16
ATOM     16  C   UNL     1       2.435   5.006  20.117  0.00  0.00    +0.000 A 
ATOM     17  C   UNL     1       1.536   4.397  20.987  0.00  0.00    +0.000 A 
ATOM     18  C   UNL     1       1.818   3.119  21.460  0.00  0.00    +0.000 A 
ATOM     19  C   UNL     1       2.978   2.483  21.046  0.00  0.00    +0.000 A 
ATOM     20  C   UNL     1       3.811   3.143  20.164  0.00  0.00    +0.000 A 
ATOM     21  N   UNL     1       3.563   4.383  19.692  0.00  0.00    +0.000 NA
ENDBRANCH   4  16
TORSDOF 1
ENDMDL
MODEL 4
REMARK VINA RESULT:      -8.0      0.594      1.048
REMARK  Name = 
REMARK  1 active torsions:
REMARK  status: ('A' for Active; 'I' for Inactive)
REMARK    1  A    between atoms: C_4  and  C_5
REMARK                            x       y       z     vdW  Elec       q    Type
REMARK                         _______ _______ _______ _____ _____    ______ ____
ROOT
ATOM      1  O   UNL     1       1.699   3.589  21.241  0.00  0.00    +0.000 OA
ATOM      2  C   UNL     1       1.995   4.551  20.545  0.00  0.00    +0.000 A 
ATOM      3  C   UNL     1       1.510   5.892  20.869  0.00  0.00    +0.000 A 
ATOM      4  C   UNL     1       1.885   6.926  20.103  0.00  0.00    +0.000 A 
ATOM      5  O   UNL     1       2.719   6.816  19.002  0.00  0.00    +0.000 OA
ATOM      6  C   UNL     1       3.186   5.575  18.638  0.00  0.00    +0.000 A 
ATOM      7  C   UNL     1       2.848   4.428  19.355  0.00  0.00    +0.000 A 
ATOM      8  C   UNL     1       3.315   3.176  18.958  0.00  0.00    +0.000 A 
ATOM      9  C   UNL     1       4.137   3.073  17.837  0.00  0.00    +0.000 A 
ATOM     10  C   UNL     1       4.506   4.216  17.108  0.00  0.00    +0.000 A 
ATOM     11  C   UNL     1       5.344   4.107  15.988  0.00  0.00    +0.000 A 
ATOM     12  C   UNL     1       5.718   5.238  15.262  0.00  0.00    +0.000 A 
ATOM     13  C   UNL     1       5.258   6.493  15.646  0.00  0.00    +0.000 A 
ATOM     14  C   UNL     1       4.420   6.617  16.756  0.00  0.00    +0.000 A 
ATOM     15  C   UNL     1       4.028   5.490  17.507  0.00  0.00    +0.000 A 
ENDROOT
BRANCH   4  16
ATOM     16  C   UNL     1       1.427   8.294  20.409  0.00  0.00    +0.000 A 
ATOM     17  C   UNL     1       1.249   9.234  19.399  0.00  0.00    +0.000 A 
ATOM     18  C   UNL     1       0.875  10.530  19.744  0.00  0.00    +0.000 A 
ATOM     19  C   UNL     1       0.683  10.846  21.080  0.00  0.00    +0.000 A 
ATOM     20  C   UNL     1       0.858   9.853  22.024  0.00  0.00    +0.000 A 
ATOM     21  N   UNL     1       1.222   8.591  21.717  0.00  0.00    +0.000 NA
ENDBRANCH   4  16
TORSDOF 1
ENDMDL
MODEL 5
REMARK VINA RESULT:      -7.9      1.851      3.895
REMARK  Name = 
REMARK  1 active torsions:
REMARK  status: ('A' for Active; 'I' for Inactive)
REMARK    1  A    between atoms: C_4  and  C_5
REMARK                            x       y       z     vdW  Elec       q    Type
REMARK                         _______ _______ _______ _____ _____    ______ ____
ROOT
ATOM      1  O   UNL     1       2.742   8.773  16.960  0.00  0.00    +0.000 OA
ATOM      2  C   UNL     1       2.401   8.307  18.040  0.00  0.00    +0.000 A 
ATOM      3  C   UNL     1       1.636   9.107  18.996  0.00  0.00    +0.000 A 
ATOM      4  C   UNL     1       1.253   8.550  20.153  0.00  0.00    +0.000 A 
ATOM      5  O   UNL     1       1.531   7.244  20.518  0.00  0.00    +0.000 OA
ATOM      6  C   UNL     1       2.268   6.454  19.667  0.00  0.00    +0.000 A 
ATOM      7  C   UNL     1       2.731   6.934  18.443  0.00  0.00    +0.000 A 
ATOM      8  C   UNL     1       3.493   6.124  17.602  0.00  0.00    +0.000 A 
ATOM      9  C   UNL     1       3.786   4.817  17.987  0.00  0.00    +0.000 A 
ATOM     10  C   UNL     1       3.316   4.305  19.208  0.00  0.00    +0.000 A 
ATOM     11  C   UNL     1       3.603   2.983  19.584  0.00  0.00    +0.000 A 
ATOM     12  C   UNL     1       3.136   2.466  20.793  0.00  0.00    +0.000 A 
ATOM     13  C   UNL     1       2.377   3.264  21.642  0.00  0.00    +0.000 A 
ATOM     14  C   UNL     1       2.085   4.581  21.283  0.00  0.00    +0.000 A 
ATOM     15  C   UNL     1       2.545   5.128  20.067  0.00  0.00    +0.000 A 
ENDROOT
BRANCH   4  16
ATOM     16  C   UNL     1       0.467   9.322  21.134  0.00  0.00    +0.000 A 
ATOM     17  C   UNL     1      -0.234  10.462  20.755  0.00  0.00    +0.000 A 
ATOM     18  C   UNL     1      -0.909  11.192  21.729  0.00  0.00    +0.000 A 
ATOM     19  C   UNL     1      -0.873  10.761  23.046  0.00  0.00    +0.000 A 
ATOM     20  C   UNL     1      -0.173   9.607  23.342  0.00  0.00    +0.000 A 
ATOM     21  N   UNL     1       0.492   8.882  22.418  0.00  0.00    +0.000 NA
ENDBRANCH   4  16
TORSDOF 1
ENDMDL
MODEL 6
REMARK VINA RESULT:      -7.8      2.434      6.934
REMARK  Name = 
REMARK  1 active torsions:
REMARK  status: ('A' for Active; 'I' for Inactive)
REMARK    1  A    between atoms: C_4  and  C_5
REMARK                            x       y       z     vdW  Elec       q    Type
REMARK                         _______ _______ _______ _____ _____    ______ ____
ROOT
ATOM      1  O   UNL     1       2.953   8.481  16.849  0.00  0.00    +0.000 OA
ATOM      2  C   UNL     1       2.549   8.103  17.942  0.00  0.00    +0.000 A 
ATOM      3  C   UNL     1       2.820   6.747  18.417  0.00  0.00    +0.000 A 
ATOM      4  C   UNL     1       2.390   6.383  19.633  0.00  0.00    +0.000 A 
ATOM      5  O   UNL     1       1.694   7.215  20.494  0.00  0.00    +0.000 OA
ATOM      6  C   UNL     1       1.391   8.494  20.089  0.00  0.00    +0.000 A 
ATOM      7  C   UNL     1       1.777   8.974  18.838  0.00  0.00    +0.000 A 
ATOM      8  C   UNL     1       1.443  10.267  18.438  0.00  0.00    +0.000 A 
ATOM      9  C   UNL     1       0.724  11.090  19.303  0.00  0.00    +0.000 A 
ATOM     10  C   UNL     1       0.339  10.635  20.575  0.00  0.00    +0.000 A 
ATOM     11  C   UNL     1      -0.372  11.473  21.447  0.00  0.00    +0.000 A 
ATOM     12  C   UNL     1      -0.754  11.030  22.713  0.00  0.00    +0.000 A 
ATOM     13  C   UNL     1      -0.429   9.742  23.125  0.00  0.00    +0.000 A 
ATOM     14  C   UNL     1       0.275   8.894  22.268  0.00  0.00    +0.000 A 
ATOM     15  C   UNL     1       0.673   9.319  20.982  0.00  0.00    +0.000 A 
ENDROOT
BRANCH   4  16
ATOM     16  C   UNL     1       2.659   5.027  20.150  0.00  0.00    +0.000 A 
ATOM     17  C   UNL     1       3.624   4.214  19.564  0.00  0.00    +0.000 A 
ATOM     18  C   UNL     1       3.797   2.920  20.048  0.00  0.00    +0.000 A 
ATOM     19  C   UNL     1       3.013   2.481  21.103  0.00  0.00    +0.000 A 
ATOM     20  C   UNL     1       2.091   3.354  21.647  0.00  0.00    +0.000 A 
ATOM     21  N   UNL     1       1.901   4.612  21.196  0.00  0.00    +0.000 NA
ENDBRANCH   4  16
TORSDOF 1
ENDMDL
MODEL 7
REMARK VINA RESULT:      -7.8      2.263      6.307
REMARK  Name = 
REMARK  1 active torsions:
REMARK  status: ('A' for Active; 'I' for Inactive)
REMARK    1  A    between atoms: C_4  and  C_5
REMARK                            x       y       z     vdW  Elec       q    Type
REMARK                         _______ _______ _______ _____ _____    ______ ____
ROOT
ATOM      1  O   UNL     1       3.878   2.789  19.773  0.00  0.00    +0.000 OA
ATOM      2  C   UNL     1       3.945   3.749  19.016  0.00  0.00    +0.000 A 
ATOM      3  C   UNL     1       4.734   3.684  17.786  0.00  0.00    +0.000 A 
ATOM      4  C   UNL     1       4.754   4.743  16.966  0.00  0.00    +0.000 A 
ATOM      5  O   UNL     1       4.066   5.922  17.201  0.00  0.00    +0.000 OA
ATOM      6  C   UNL     1       3.326   6.047  18.354  0.00  0.00    +0.000 A 
ATOM      7  C   UNL     1       3.245   5.012  19.284  0.00  0.00    +0.000 A 
ATOM      8  C   UNL     1       2.507   5.165  20.457  0.00  0.00    +0.000 A 
ATOM      9  C   UNL     1       1.834   6.363  20.694  0.00  0.00    +0.000 A 
ATOM     10  C   UNL     1       1.886   7.413  19.763  0.00  0.00    +0.000 A 
ATOM     11  C   UNL     1       1.195   8.612  20.001  0.00  0.00    +0.000 A 
ATOM     12  C   UNL     1       1.238   9.657  19.079  0.00  0.00    +0.000 A 
ATOM     13  C   UNL     1       1.973   9.519  17.906  0.00  0.00    +0.000 A 
ATOM     14  C   UNL     1       2.668   8.335  17.656  0.00  0.00    +0.000 A 
ATOM     15  C   UNL     1       2.640   7.262  18.572  0.00  0.00    +0.000 A 
ENDROOT
BRANCH   4  16
ATOM     16  C   UNL     1       5.528   4.707  15.711  0.00  0.00    +0.000 A 
ATOM     17  C   UNL     1       5.134   3.899  14.648  0.00  0.00    +0.000 A 
ATOM     18  C   UNL     1       5.931   3.852  13.508  0.00  0.00    +0.000 A 
ATOM     19  C   UNL     1       7.087   4.615  13.457  0.00  0.00    +0.000 A 
ATOM     20  C   UNL     1       7.400   5.410  14.542  0.00  0.00    +0.000 A 
ATOM     21  N   UNL     1       6.647   5.473  15.660  0.00  0.00    +0.000 NA
ENDBRANCH   4  16
TORSDOF 1
ENDMDL
MODEL 8
REMARK VINA RESULT:      -7.7      3.949      7.249
REMARK  Name = 
REMARK  1 active torsions:
REMARK  status: ('A' for Active; 'I' for Inactive)
REMARK    1  A    between atoms: C_4  and  C_5
REMARK                            x       y       z     vdW  Elec       q    Type
REMARK                         _______ _______ _______ _____ _____    ______ ____
ROOT
ATOM      1  O   UNL     1       7.274   6.661  18.426  0.00  0.00    +0.000 OA
ATOM      2  C   UNL     1       6.539   5.955  17.748  0.00  0.00    +0.000 A 
ATOM      3  C   UNL     1       6.851   5.668  16.348  0.00  0.00    +0.000 A 
ATOM      4  C   UNL     1       6.039   4.863  15.650  0.00  0.00    +0.000 A 
ATOM      5  O   UNL     1       4.901   4.267  16.167  0.00  0.00    +0.000 OA
ATOM      6  C   UNL     1       4.546   4.521  17.471  0.00  0.00    +0.000 A 
ATOM      7  C   UNL     1       5.311   5.355  18.286  0.00  0.00    +0.000 A 
ATOM      8  C   UNL     1       4.924   5.616  19.600  0.00  0.00    +0.000 A 
ATOM      9  C   UNL     1       3.766   5.028  20.105  0.00  0.00    +0.000 A 
ATOM     10  C   UNL     1       2.989   4.171  19.309  0.00  0.00    +0.000 A 
ATOM     11  C   UNL     1       1.830   3.571  19.828  0.00  0.00    +0.000 A 
ATOM     12  C   UNL     1       1.056   2.715  19.045  0.00  0.00    +0.000 A 
ATOM     13  C   UNL     1       1.429   2.447  17.732  0.00  0.00    +0.000 A 
ATOM     14  C   UNL     1       2.576   3.039  17.200  0.00  0.00    +0.000 A 
ATOM     15  C   UNL     1       3.377   3.907  17.971  0.00  0.00    +0.000 A 
ENDROOT
BRANCH   4  16
ATOM     16  C   UNL     1       6.331   4.540  14.240  0.00  0.00    +0.000 A 
ATOM     17  C   UNL     1       5.577   3.597  13.549  0.00  0.00    +0.000 A 
ATOM     18  C   UNL     1       5.931   3.281  12.240  0.00  0.00    +0.000 A 
ATOM     19  C   UNL     1       7.016   3.919  11.659  0.00  0.00    +0.000 A 
ATOM     20  C   UNL     1       7.702   4.859  12.402  0.00  0.00    +0.000 A 
ATOM     21  N   UNL     1       7.382   5.183  13.672  0.00  0.00    +0.000 NA
ENDBRANCH   4  16
TORSDOF 1
ENDMDL
MODEL 9
REMARK VINA RESULT:      -7.7      1.622      3.931
REMARK  Name = 
REMARK  1 active torsions:
REMARK  status: ('A' for Active; 'I' for Inactive)
REMARK    1  A    between atoms: C_4  and  C_5
REMARK                            x       y       z     vdW  Elec       q    Type
REMARK                         _______ _______ _______ _____ _____    ______ ____
ROOT
ATOM      1  O   UNL     1       4.772   7.163  16.350  0.00  0.00    +0.000 OA
ATOM      2  C   UNL     1       4.013   7.050  17.303  0.00  0.00    +0.000 A 
ATOM      3  C   UNL     1       3.103   8.133  17.673  0.00  0.00    +0.000 A 
ATOM      4  C   UNL     1       2.263   7.957  18.702  0.00  0.00    +0.000 A 
ATOM      5  O   UNL     1       2.189   6.799  19.458  0.00  0.00    +0.000 OA
ATOM      6  C   UNL     1       3.039   5.757  19.169  0.00  0.00    +0.000 A 
ATOM      7  C   UNL     1       3.963   5.835  18.128  0.00  0.00    +0.000 A 
ATOM      8  C   UNL     1       4.829   4.776  17.863  0.00  0.00    +0.000 A 
ATOM      9  C   UNL     1       4.762   3.622  18.642  0.00  0.00    +0.000 A 
ATOM     10  C   UNL     1       3.827   3.512  19.685  0.00  0.00    +0.000 A 
ATOM     11  C   UNL     1       3.755   2.342  20.457  0.00  0.00    +0.000 A 
ATOM     12  C   UNL     1       2.827   2.224  21.491  0.00  0.00    +0.000 A 
ATOM     13  C   UNL     1       1.958   3.274  21.768  0.00  0.00    +0.000 A 
ATOM     14  C   UNL     1       2.019   4.445  21.011  0.00  0.00    +0.000 A 
ATOM     15  C   UNL     1       2.949   4.590  19.960  0.00  0.00    +0.000 A 
ENDROOT
BRANCH   4  16
ATOM     16  C   UNL     1       1.321   9.023  19.094  0.00  0.00    +0.000 A 
ATOM     17  C   UNL     1       0.738   9.852  18.140  0.00  0.00    +0.000 A 
ATOM     18  C   UNL     1      -0.096  10.883  18.564  0.00  0.00    +0.000 A 
ATOM     19  C   UNL     1      -0.331  11.050  19.920  0.00  0.00    +0.000 A 
ATOM     20  C   UNL     1       0.266  10.174  20.805  0.00  0.00    +0.000 A 
ATOM     21  N   UNL     1       1.080   9.168  20.421  0.00  0.00    +0.000 NA
ENDBRANCH   4  16
TORSDOF 1
ENDMDL
