MODEL 1
REMARK VINA RESULT:      -7.9      0.000      0.000
REMARK  Name = 
REMARK  12 active torsions:
REMARK  status: ('A' for Active; 'I' for Inactive)
REMARK    1  A    between atoms: C_1  and  O_2
REMARK    2  A    between atoms: O_2  and  C_3
REMARK    3  A    between atoms: C_6  and  O_7
REMARK    4  A    between atoms: O_7  and  C_8
REMARK    5  A    between atoms: C_9  and  N_10
REMARK    6  A    between atoms: C_11  and  C_13
REMARK    7  A    between atoms: C_13  and  S_14
REMARK    8  A    between atoms: S_14  and  C_15
REMARK    9  A    between atoms: N_25  and  C_26
REMARK   10  A    between atoms: C_26  and  C_27
REMARK   11  A    between atoms: C_27  and  N_28
REMARK   12  A    between atoms: C_29  and  C_30
REMARK                            x       y       z     vdW  Elec       q    Type
REMARK                         _______ _______ _______ _____ _____    ______ ____
ROOT
ATOM      1  C   UNL     1       3.508   6.442  17.937  0.00  0.00    +0.000 A 
ATOM      2  N   UNL     1       2.403   5.802  18.151  0.00  0.00    +0.000 NA
ATOM      3  C   UNL     1       2.498   4.430  18.439  0.00  0.00    +0.000 A 
ATOM      4  C   UNL     1       1.386   3.603  18.292  0.00  0.00    +0.000 A 
ATOM      5  C   UNL     1       1.487   2.229  18.556  0.00  0.00    +0.000 A 
ATOM      6  C   UNL     1       2.690   1.680  19.004  0.00  0.00    +0.000 A 
ATOM      7  C   UNL     1       3.802   2.500  19.167  0.00  0.00    +0.000 A 
ATOM      8  C   UNL     1       3.697   3.858  18.856  0.00  0.00    +0.000 A 
ATOM      9  C   UNL     1       4.885   4.717  18.825  0.00  0.00    +0.000 A 
ATOM     10  O   UNL     1       5.878   4.394  19.462  0.00  0.00    +0.000 OA
ATOM     11  N   UNL     1       4.766   5.850  18.032  0.00  0.00    +0.000 N 
ENDROOT
BRANCH   1  12
ATOM     12  S   UNL     1       3.445   8.163  17.565  0.00  0.00    +0.000 S 
BRANCH  12  13
ATOM     13  C   UNL     1       1.660   8.520  17.685  0.00  0.00    +0.000 C 
BRANCH  13  15
ATOM     14  N   UNL     1       1.479  10.930  17.992  0.00  0.00    +0.000 N 
ATOM     15  C   UNL     1       1.416   9.701  18.637  0.00  0.00    +0.000 C 
ATOM     16  O   UNL     1       1.171   9.493  19.820  0.00  0.00    +0.000 OA
ATOM     17  H   UNL     1       1.433  10.863  16.982  0.00  0.00    +0.000 HD
BRANCH  14  22
ATOM     18  C   UNL     1       2.549  14.332  18.966  0.00  0.00    +0.000 A 
ATOM     19  C   UNL     1       1.396  14.890  19.495  0.00  0.00    +0.000 A 
ATOM     20  C   UNL     1       0.221  14.143  19.548  0.00  0.00    +0.000 A 
ATOM     21  C   UNL     1       0.178  12.815  19.087  0.00  0.00    +0.000 A 
ATOM     22  C   UNL     1       1.336  12.246  18.518  0.00  0.00    +0.000 A 
ATOM     23  C   UNL     1       2.521  13.015  18.498  0.00  0.00    +0.000 A 
BRANCH  18  25
ATOM     24  C   UNL     1       4.436  15.152  17.817  0.00  0.00    +0.000 C 
ATOM     25  O   UNL     1       3.663  15.122  19.012  0.00  0.00    +0.000 OA
ENDBRANCH  18  25
BRANCH  21  26
ATOM     26  O   UNL     1      -0.940  12.039  19.215  0.00  0.00    +0.000 OA
ATOM     27  C   UNL     1      -1.851  12.002  18.123  0.00  0.00    +0.000 C 
ENDBRANCH  21  26
ENDBRANCH  14  22
ENDBRANCH  13  15
ENDBRANCH  12  13
ENDBRANCH   1  12
BRANCH  11  28
ATOM     28  C   UNL     1       5.991   6.484  17.516  0.00  0.00    +0.000 C 
BRANCH  28  29
ATOM     29  C   UNL     1       6.996   5.567  16.788  0.00  0.00    +0.000 C 
BRANCH  29  30
ATOM     30  N   UNL     1       6.364   4.790  15.737  0.00  0.00    +0.000 N 
ATOM     31  C   UNL     1       6.826   4.784  14.445  0.00  0.00    +0.000 C 
ATOM     32  C   UNL     1       6.058   3.878  13.519  0.00  0.00    +0.000 C 
ATOM     33  O   UNL     1       7.791   5.440  14.069  0.00  0.00    +0.000 OA
ATOM     34  H   UNL     1       5.559   4.228  15.984  0.00  0.00    +0.000 HD
ENDBRANCH  29  30
ENDBRANCH  28  29
ENDBRANCH  11  28
TORSDOF 9
ENDMDL
MODEL 2
REMARK VINA RESULT:      -7.9      2.154      2.796
REMARK  Name = 
REMARK  12 active torsions:
REMARK  status: ('A' for Active; 'I' for Inactive)
REMARK    1  A    between atoms: C_1  and  O_2
REMARK    2  A    between atoms: O_2  and  C_3
REMARK    3  A    between atoms: C_6  and  O_7
REMARK    4  A    between atoms: O_7  and  C_8
REMARK    5  A    between atoms: C_9  and  N_10
REMARK    6  A    between atoms: C_11  and  C_13
REMARK    7  A    between atoms: C_13  and  S_14
REMARK    8  A    between atoms: S_14  and  C_15
REMARK    9  A    between atoms: N_25  and  C_26
REMARK   10  A    between atoms: C_26  and  C_27
REMARK   11  A    between atoms: C_27  and  N_28
REMARK   12  A    between atoms: C_29  and  C_30
REMARK                            x       y       z     vdW  Elec       q    Type
REMARK                         _______ _______ _______ _____ _____    ______ ____
ROOT
ATOM      1  C   UNL     1       3.299   6.469  18.281  0.00  0.00    +0.000 A 
ATOM      2  N   UNL     1       2.515   6.283  19.295  0.00  0.00    +0.000 NA
ATOM      3  C   UNL     1       2.521   5.011  19.890  0.00  0.00    +0.000 A 
ATOM      4  C   UNL     1       1.460   4.608  20.699  0.00  0.00    +0.000 A 
ATOM      5  C   UNL     1       1.454   3.328  21.273  0.00  0.00    +0.000 A 
ATOM      6  C   UNL     1       2.527   2.456  21.072  0.00  0.00    +0.000 A 
ATOM      7  C   UNL     1       3.596   2.854  20.276  0.00  0.00    +0.000 A 
ATOM      8  C   UNL     1       3.565   4.114  19.675  0.00  0.00    +0.000 A 
ATOM      9  C   UNL     1       4.570   4.498  18.679  0.00  0.00    +0.000 A 
ATOM     10  O   UNL     1       5.655   3.933  18.669  0.00  0.00    +0.000 OA
ATOM     11  N   UNL     1       4.171   5.495  17.799  0.00  0.00    +0.000 N 
ENDROOT
BRANCH   1  12
ATOM     12  S   UNL     1       3.324   8.045  17.494  0.00  0.00    +0.000 S 
BRANCH  12  13
ATOM     13  C   UNL     1       1.618   8.636  17.753  0.00  0.00    +0.000 C 
BRANCH  13  15
ATOM     14  N   UNL     1       0.627  10.305  19.225  0.00  0.00    +0.000 N 
ATOM     15  C   UNL     1       1.629  10.075  18.290  0.00  0.00    +0.000 C 
ATOM     16  O   UNL     1       2.482  10.867  17.904  0.00  0.00    +0.000 OA
ATOM     17  H   UNL     1       0.206   9.458  19.588  0.00  0.00    +0.000 HD
BRANCH  14  22
ATOM     18  C   UNL     1      -0.287  13.864  19.633  0.00  0.00    +0.000 A 
ATOM     19  C   UNL     1      -0.389  14.012  21.007  0.00  0.00    +0.000 A 
ATOM     20  C   UNL     1      -0.150  12.924  21.845  0.00  0.00    +0.000 A 
ATOM     21  C   UNL     1       0.212  11.669  21.326  0.00  0.00    +0.000 A 
ATOM     22  C   UNL     1       0.288  11.497  19.928  0.00  0.00    +0.000 A 
ATOM     23  C   UNL     1       0.065  12.620  19.101  0.00  0.00    +0.000 A 
BRANCH  18  25
ATOM     24  C   UNL     1       0.632  15.887  18.849  0.00  0.00    +0.000 C 
ATOM     25  O   UNL     1      -0.481  15.001  18.900  0.00  0.00    +0.000 OA
ENDBRANCH  18  25
BRANCH  21  26
ATOM     26  O   UNL     1       0.539  10.617  22.135  0.00  0.00    +0.000 OA
ATOM     27  C   UNL     1      -0.507  10.000  22.877  0.00  0.00    +0.000 C 
ENDBRANCH  21  26
ENDBRANCH  14  22
ENDBRANCH  13  15
ENDBRANCH  12  13
ENDBRANCH   1  12
BRANCH  11  28
ATOM     28  C   UNL     1       4.841   5.596  16.493  0.00  0.00    +0.000 C 
BRANCH  28  29
ATOM     29  C   UNL     1       6.382   5.687  16.504  0.00  0.00    +0.000 C 
BRANCH  29  30
ATOM     30  N   UNL     1       6.846   7.041  16.750  0.00  0.00    +0.000 N 
ATOM     31  C   UNL     1       7.612   7.371  17.840  0.00  0.00    +0.000 C 
ATOM     32  C   UNL     1       8.026   8.818  17.887  0.00  0.00    +0.000 C 
ATOM     33  O   UNL     1       7.951   6.563  18.697  0.00  0.00    +0.000 OA
ATOM     34  H   UNL     1       6.595   7.756  16.078  0.00  0.00    +0.000 HD
ENDBRANCH  29  30
ENDBRANCH  28  29
ENDBRANCH  11  28
TORSDOF 9
ENDMDL
MODEL 3
REMARK VINA RESULT:      -7.8      2.293      3.220
REMARK  Name = 
REMARK  12 active torsions:
REMARK  status: ('A' for Active; 'I' for Inactive)
REMARK    1  A    between atoms: C_1  and  O_2
REMARK    2  A    between atoms: O_2  and  C_3
REMARK    3  A    between atoms: C_6  and  O_7
REMARK    4  A    between atoms: O_7  and  C_8
REMARK    5  A    between atoms: C_9  and  N_10
REMARK    6  A    between atoms: C_11  and  C_13
REMARK    7  A    between atoms: C_13  and  S_14
REMARK    8  A    between atoms: S_14  and  C_15
REMARK    9  A    between atoms: N_25  and  C_26
REMARK   10  A    between atoms: C_26  and  C_27
REMARK   11  A    between atoms: C_27  and  N_28
REMARK   12  A    between atoms: C_29  and  C_30
REMARK                            x       y       z     vdW  Elec       q    Type
REMARK                         _______ _______ _______ _____ _____    ______ ____
ROOT
ATOM      1  C   UNL     1       3.138   6.327  18.112  0.00  0.00    +0.000 A 
ATOM      2  N   UNL     1       2.126   5.595  18.454  0.00  0.00    +0.000 NA
ATOM      3  C   UNL     1       2.360   4.223  18.649  0.00  0.00    +0.000 A 
ATOM      4  C   UNL     1       1.299   3.319  18.624  0.00  0.00    +0.000 A 
ATOM      5  C   UNL     1       1.535   1.946  18.793  0.00  0.00    +0.000 A 
ATOM      6  C   UNL     1       2.829   1.473  19.025  0.00  0.00    +0.000 A 
ATOM      7  C   UNL     1       3.892   2.369  19.064  0.00  0.00    +0.000 A 
ATOM      8  C   UNL     1       3.646   3.727  18.848  0.00  0.00    +0.000 A 
ATOM      9  C   UNL     1       4.752   4.676  18.687  0.00  0.00    +0.000 A 
ATOM     10  O   UNL     1       5.851   4.404  19.149  0.00  0.00    +0.000 OA
ATOM     11  N   UNL     1       4.434   5.831  17.985  0.00  0.00    +0.000 N 
ENDROOT
BRANCH   1  12
ATOM     12  S   UNL     1       2.898   8.052  17.850  0.00  0.00    +0.000 S 
BRANCH  12  13
ATOM     13  C   UNL     1       1.954   8.542  19.333  0.00  0.00    +0.000 C 
BRANCH  13  15
ATOM     14  N   UNL     1      -0.157   9.739  19.554  0.00  0.00    +0.000 N 
ATOM     15  C   UNL     1       1.136   9.811  19.048  0.00  0.00    +0.000 C 
ATOM     16  O   UNL     1       1.651  10.753  18.456  0.00  0.00    +0.000 OA
ATOM     17  H   UNL     1      -0.290   8.991  20.225  0.00  0.00    +0.000 HD
BRANCH  14  22
ATOM     18  C   UNL     1      -3.132  11.394  18.114  0.00  0.00    +0.000 A 
ATOM     19  C   UNL     1      -3.409  12.401  19.026  0.00  0.00    +0.000 A 
ATOM     20  C   UNL     1      -2.605  12.562  20.152  0.00  0.00    +0.000 A 
ATOM     21  C   UNL     1      -1.496  11.729  20.383  0.00  0.00    +0.000 A 
ATOM     22  C   UNL     1      -1.221  10.682  19.479  0.00  0.00    +0.000 A 
ATOM     23  C   UNL     1      -2.037  10.554  18.333  0.00  0.00    +0.000 A 
BRANCH  18  25
ATOM     24  C   UNL     1      -3.301  10.953  15.806  0.00  0.00    +0.000 C 
ATOM     25  O   UNL     1      -3.940  11.355  17.013  0.00  0.00    +0.000 OA
ENDBRANCH  18  25
BRANCH  21  26
ATOM     26  O   UNL     1      -0.644  11.931  21.433  0.00  0.00    +0.000 OA
ATOM     27  C   UNL     1      -1.001  11.378  22.694  0.00  0.00    +0.000 C 
ENDBRANCH  21  26
ENDBRANCH  14  22
ENDBRANCH  13  15
ENDBRANCH  12  13
ENDBRANCH   1  12
BRANCH  11  28
ATOM     28  C   UNL     1       5.517   6.579  17.327  0.00  0.00    +0.000 C 
BRANCH  28  29
ATOM     29  C   UNL     1       5.389   6.796  15.804  0.00  0.00    +0.000 C 
BRANCH  29  30
ATOM     30  N   UNL     1       5.385   5.542  15.073  0.00  0.00    +0.000 N 
ATOM     31  C   UNL     1       6.529   4.987  14.555  0.00  0.00    +0.000 C 
ATOM     32  C   UNL     1       6.316   3.663  13.871  0.00  0.00    +0.000 C 
ATOM     33  O   UNL     1       7.635   5.506  14.650  0.00  0.00    +0.000 OA
ATOM     34  H   UNL     1       4.499   5.065  14.957  0.00  0.00    +0.000 HD
ENDBRANCH  29  30
ENDBRANCH  28  29
ENDBRANCH  11  28
TORSDOF 9
ENDMDL
MODEL 4
REMARK VINA RESULT:      -7.7      3.468      5.990
REMARK  Name = 
REMARK  12 active torsions:
REMARK  status: ('A' for Active; 'I' for Inactive)
REMARK    1  A    between atoms: C_1  and  O_2
REMARK    2  A    between atoms: O_2  and  C_3
REMARK    3  A    between atoms: C_6  and  O_7
REMARK    4  A    between atoms: O_7  and  C_8
REMARK    5  A    between atoms: C_9  and  N_10
REMARK    6  A    between atoms: C_11  and  C_13
REMARK    7  A    between atoms: C_13  and  S_14
REMARK    8  A    between atoms: S_14  and  C_15
REMARK    9  A    between atoms: N_25  and  C_26
REMARK   10  A    between atoms: C_26  and  C_27
REMARK   11  A    between atoms: C_27  and  N_28
REMARK   12  A    between atoms: C_29  and  C_30
REMARK                            x       y       z     vdW  Elec       q    Type
REMARK                         _______ _______ _______ _____ _____    ______ ____
ROOT
ATOM      1  C   UNL     1       1.786   7.327  20.227  0.00  0.00    +0.000 A 
ATOM      2  N   UNL     1       1.511   6.166  20.729  0.00  0.00    +0.000 NA
ATOM      3  C   UNL     1       1.592   5.056  19.872  0.00  0.00    +0.000 A 
ATOM      4  C   UNL     1       0.949   3.864  20.202  0.00  0.00    +0.000 A 
ATOM      5  C   UNL     1       1.009   2.763  19.334  0.00  0.00    +0.000 A 
ATOM      6  C   UNL     1       1.742   2.837  18.147  0.00  0.00    +0.000 A 
ATOM      7  C   UNL     1       2.397   4.017  17.815  0.00  0.00    +0.000 A 
ATOM      8  C   UNL     1       2.290   5.118  18.669  0.00  0.00    +0.000 A 
ATOM      9  C   UNL     1       2.798   6.434  18.267  0.00  0.00    +0.000 A 
ATOM     10  O   UNL     1       3.672   6.508  17.414  0.00  0.00    +0.000 OA
ATOM     11  N   UNL     1       2.203   7.511  18.910  0.00  0.00    +0.000 N 
ENDROOT
BRANCH   1  12
ATOM     12  S   UNL     1       1.694   8.752  21.258  0.00  0.00    +0.000 S 
BRANCH  12  13
ATOM     13  C   UNL     1      -0.068   8.778  21.727  0.00  0.00    +0.000 C 
BRANCH  13  15
ATOM     14  N   UNL     1      -1.102  10.952  22.099  0.00  0.00    +0.000 N 
ATOM     15  C   UNL     1      -0.347   9.945  22.687  0.00  0.00    +0.000 C 
ATOM     16  O   UNL     1       0.065   9.901  23.841  0.00  0.00    +0.000 OA
ATOM     17  H   UNL     1      -1.553  10.673  21.235  0.00  0.00    +0.000 HD
BRANCH  14  22
ATOM     18  C   UNL     1      -3.495  13.357  23.567  0.00  0.00    +0.000 A 
ATOM     19  C   UNL     1      -2.737  14.506  23.726  0.00  0.00    +0.000 A 
ATOM     20  C   UNL     1      -1.397  14.515  23.342  0.00  0.00    +0.000 A 
ATOM     21  C   UNL     1      -0.792  13.379  22.775  0.00  0.00    +0.000 A 
ATOM     22  C   UNL     1      -1.545  12.195  22.637  0.00  0.00    +0.000 A 
ATOM     23  C   UNL     1      -2.906  12.218  23.011  0.00  0.00    +0.000 A 
BRANCH  18  25
ATOM     24  C   UNL     1      -5.363  14.774  23.808  0.00  0.00    +0.000 C 
ATOM     25  O   UNL     1      -4.812  13.465  23.917  0.00  0.00    +0.000 OA
ENDBRANCH  18  25
BRANCH  21  26
ATOM     26  O   UNL     1       0.493  13.399  22.309  0.00  0.00    +0.000 OA
ATOM     27  C   UNL     1       0.995  14.628  21.798  0.00  0.00    +0.000 C 
ENDBRANCH  21  26
ENDBRANCH  14  22
ENDBRANCH  13  15
ENDBRANCH  12  13
ENDBRANCH   1  12
BRANCH  11  28
ATOM     28  C   UNL     1       2.237   8.830  18.258  0.00  0.00    +0.000 C 
BRANCH  28  29
ATOM     29  C   UNL     1       1.095   9.809  18.604  0.00  0.00    +0.000 C 
BRANCH  29  30
ATOM     30  N   UNL     1       0.019   9.758  17.630  0.00  0.00    +0.000 N 
ATOM     31  C   UNL     1      -1.255  10.183  17.915  0.00  0.00    +0.000 C 
ATOM     32  C   UNL     1      -2.210  10.088  16.756  0.00  0.00    +0.000 C 
ATOM     33  O   UNL     1      -1.592  10.619  19.010  0.00  0.00    +0.000 OA
ATOM     34  H   UNL     1       0.234   9.403  16.706  0.00  0.00    +0.000 HD
ENDBRANCH  29  30
ENDBRANCH  28  29
ENDBRANCH  11  28
TORSDOF 9
ENDMDL
MODEL 5
REMARK VINA RESULT:      -7.6      2.563      3.571
REMARK  Name = 
REMARK  12 active torsions:
REMARK  status: ('A' for Active; 'I' for Inactive)
REMARK    1  A    between atoms: C_1  and  O_2
REMARK    2  A    between atoms: O_2  and  C_3
REMARK    3  A    between atoms: C_6  and  O_7
REMARK    4  A    between atoms: O_7  and  C_8
REMARK    5  A    between atoms: C_9  and  N_10
REMARK    6  A    between atoms: C_11  and  C_13
REMARK    7  A    between atoms: C_13  and  S_14
REMARK    8  A    between atoms: S_14  and  C_15
REMARK    9  A    between atoms: N_25  and  C_26
REMARK   10  A    between atoms: C_26  and  C_27
REMARK   11  A    between atoms: C_27  and  N_28
REMARK   12  A    between atoms: C_29  and  C_30
REMARK                            x       y       z     vdW  Elec       q    Type
REMARK                         _______ _______ _______ _____ _____    ______ ____
ROOT
ATOM      1  C   UNL     1       2.743   6.725  18.433  0.00  0.00    +0.000 A 
ATOM      2  N   UNL     1       1.870   6.287  19.284  0.00  0.00    +0.000 NA
ATOM      3  C   UNL     1       2.135   5.053  19.902  0.00  0.00    +0.000 A 
ATOM      4  C   UNL     1       1.103   4.333  20.504  0.00  0.00    +0.000 A 
ATOM      5  C   UNL     1       1.363   3.090  21.099  0.00  0.00    +0.000 A 
ATOM      6  C   UNL     1       2.661   2.576  21.129  0.00  0.00    +0.000 A 
ATOM      7  C   UNL     1       3.698   3.292  20.542  0.00  0.00    +0.000 A 
ATOM      8  C   UNL     1       3.416   4.507  19.913  0.00  0.00    +0.000 A 
ATOM      9  C   UNL     1       4.435   5.198  19.117  0.00  0.00    +0.000 A 
ATOM     10  O   UNL     1       5.619   4.974  19.329  0.00  0.00    +0.000 OA
ATOM     11  N   UNL     1       3.937   6.063  18.152  0.00  0.00    +0.000 N 
ENDROOT
BRANCH   1  12
ATOM     12  S   UNL     1       2.457   8.264  17.626  0.00  0.00    +0.000 S 
BRANCH  12  13
ATOM     13  C   UNL     1       2.218   9.401  19.032  0.00  0.00    +0.000 C 
BRANCH  13  15
ATOM     14  N   UNL     1       0.106  10.402  18.344  0.00  0.00    +0.000 N 
ATOM     15  C   UNL     1       0.720   9.606  19.303  0.00  0.00    +0.000 C 
ATOM     16  O   UNL     1       0.193   9.066  20.270  0.00  0.00    +0.000 OA
ATOM     17  H   UNL     1       0.658  10.525  17.503  0.00  0.00    +0.000 HD
BRANCH  14  22
ATOM     18  C   UNL     1      -3.269  10.714  16.869  0.00  0.00    +0.000 A 
ATOM     19  C   UNL     1      -3.932  11.543  17.761  0.00  0.00    +0.000 A 
ATOM     20  C   UNL     1      -3.268  12.029  18.885  0.00  0.00    +0.000 A 
ATOM     21  C   UNL     1      -1.921  11.710  19.133  0.00  0.00    +0.000 A 
ATOM     22  C   UNL     1      -1.245  10.843  18.250  0.00  0.00    +0.000 A 
ATOM     23  C   UNL     1      -1.932  10.383  17.105  0.00  0.00    +0.000 A 
BRANCH  18  25
ATOM     24  C   UNL     1      -3.219  10.149  14.582  0.00  0.00    +0.000 C 
ATOM     25  O   UNL     1      -3.985  10.338  15.768  0.00  0.00    +0.000 OA
ENDBRANCH  18  25
BRANCH  21  26
ATOM     26  O   UNL     1      -1.229  12.251  20.181  0.00  0.00    +0.000 OA
ATOM     27  C   UNL     1      -1.513  11.764  21.487  0.00  0.00    +0.000 C 
ENDBRANCH  21  26
ENDBRANCH  14  22
ENDBRANCH  13  15
ENDBRANCH  12  13
ENDBRANCH   1  12
BRANCH  11  28
ATOM     28  C   UNL     1       4.784   6.395  16.995  0.00  0.00    +0.000 C 
BRANCH  28  29
ATOM     29  C   UNL     1       5.157   5.236  16.048  0.00  0.00    +0.000 C 
BRANCH  29  30
ATOM     30  N   UNL     1       6.254   5.587  15.163  0.00  0.00    +0.000 N 
ATOM     31  C   UNL     1       6.697   4.748  14.170  0.00  0.00    +0.000 C 
ATOM     32  C   UNL     1       7.813   5.318  13.336  0.00  0.00    +0.000 C 
ATOM     33  O   UNL     1       6.221   3.639  13.960  0.00  0.00    +0.000 OA
ATOM     34  H   UNL     1       6.692   6.491  15.289  0.00  0.00    +0.000 HD
ENDBRANCH  29  30
ENDBRANCH  28  29
ENDBRANCH  11  28
TORSDOF 9
ENDMDL
MODEL 6
REMARK VINA RESULT:      -7.6      2.305      2.763
REMARK  Name = 
REMARK  12 active torsions:
REMARK  status: ('A' for Active; 'I' for Inactive)
REMARK    1  A    between atoms: C_1  and  O_2
REMARK    2  A    between atoms: O_2  and  C_3
REMARK    3  A    between atoms: C_6  and  O_7
REMARK    4  A    between atoms: O_7  and  C_8
REMARK    5  A    between atoms: C_9  and  N_10
REMARK    6  A    between atoms: C_11  and  C_13
REMARK    7  A    between atoms: C_13  and  S_14
REMARK    8  A    between atoms: S_14  and  C_15
REMARK    9  A    between atoms: N_25  and  C_26
REMARK   10  A    between atoms: C_26  and  C_27
REMARK   11  A    between atoms: C_27  and  N_28
REMARK   12  A    between atoms: C_29  and  C_30
REMARK                            x       y       z     vdW  Elec       q    Type
REMARK                         _______ _______ _______ _____ _____    ______ ____
ROOT
ATOM      1  C   UNL     1       3.046   6.584  18.077  0.00  0.00    +0.000 A 
ATOM      2  N   UNL     1       2.160   5.644  18.171  0.00  0.00    +0.000 NA
ATOM      3  C   UNL     1       2.628   4.332  18.353  0.00  0.00    +0.000 A 
ATOM      4  C   UNL     1       1.801   3.245  18.072  0.00  0.00    +0.000 A 
ATOM      5  C   UNL     1       2.277   1.935  18.231  0.00  0.00    +0.000 A 
ATOM      6  C   UNL     1       3.570   1.703  18.705  0.00  0.00    +0.000 A 
ATOM      7  C   UNL     1       4.398   2.781  19.000  0.00  0.00    +0.000 A 
ATOM      8  C   UNL     1       3.925   4.079  18.794  0.00  0.00    +0.000 A 
ATOM      9  C   UNL     1       4.822   5.234  18.905  0.00  0.00    +0.000 A 
ATOM     10  O   UNL     1       5.843   5.142  19.573  0.00  0.00    +0.000 OA
ATOM     11  N   UNL     1       4.416   6.359  18.200  0.00  0.00    +0.000 N 
ENDROOT
BRANCH   1  12
ATOM     12  S   UNL     1       2.512   8.246  17.842  0.00  0.00    +0.000 S 
BRANCH  12  13
ATOM     13  C   UNL     1       1.495   8.540  19.327  0.00  0.00    +0.000 C 
BRANCH  13  15
ATOM     14  N   UNL     1       0.037  10.215  20.329  0.00  0.00    +0.000 N 
ATOM     15  C   UNL     1       1.006   9.996  19.357  0.00  0.00    +0.000 C 
ATOM     16  O   UNL     1       1.490  10.821  18.591  0.00  0.00    +0.000 OA
ATOM     17  H   UNL     1      -0.027   9.472  21.016  0.00  0.00    +0.000 HD
BRANCH  14  22
ATOM     18  C   UNL     1      -0.952  13.126  22.382  0.00  0.00    +0.000 A 
ATOM     19  C   UNL     1      -1.919  13.748  21.609  0.00  0.00    +0.000 A 
ATOM     20  C   UNL     1      -2.277  13.210  20.374  0.00  0.00    +0.000 A 
ATOM     21  C   UNL     1      -1.685  12.028  19.894  0.00  0.00    +0.000 A 
ATOM     22  C   UNL     1      -0.678  11.403  20.657  0.00  0.00    +0.000 A 
ATOM     23  C   UNL     1      -0.350  11.954  21.915  0.00  0.00    +0.000 A 
BRANCH  18  25
ATOM     24  C   UNL     1      -1.776  14.489  24.119  0.00  0.00    +0.000 C 
ATOM     25  O   UNL     1      -0.713  13.695  23.602  0.00  0.00    +0.000 OA
ENDBRANCH  18  25
BRANCH  21  26
ATOM     26  O   UNL     1      -2.089  11.437  18.729  0.00  0.00    +0.000 OA
ATOM     27  C   UNL     1      -3.458  11.560  18.362  0.00  0.00    +0.000 C 
ENDBRANCH  21  26
ENDBRANCH  14  22
ENDBRANCH  13  15
ENDBRANCH  12  13
ENDBRANCH   1  12
BRANCH  11  28
ATOM     28  C   UNL     1       5.429   7.354  17.812  0.00  0.00    +0.000 C 
BRANCH  28  29
ATOM     29  C   UNL     1       6.654   6.833  17.031  0.00  0.00    +0.000 C 
BRANCH  29  30
ATOM     30  N   UNL     1       6.271   5.972  15.926  0.00  0.00    +0.000 N 
ATOM     31  C   UNL     1       6.885   4.769  15.682  0.00  0.00    +0.000 C 
ATOM     32  C   UNL     1       6.310   4.009  14.516  0.00  0.00    +0.000 C 
ATOM     33  O   UNL     1       7.810   4.333  16.357  0.00  0.00    +0.000 OA
ATOM     34  H   UNL     1       5.514   6.279  15.328  0.00  0.00    +0.000 HD
ENDBRANCH  29  30
ENDBRANCH  28  29
ENDBRANCH  11  28
TORSDOF 9
ENDMDL
MODEL 7
REMARK VINA RESULT:      -7.6      1.670      2.858
REMARK  Name = 
REMARK  12 active torsions:
REMARK  status: ('A' for Active; 'I' for Inactive)
REMARK    1  A    between atoms: C_1  and  O_2
REMARK    2  A    between atoms: O_2  and  C_3
REMARK    3  A    between atoms: C_6  and  O_7
REMARK    4  A    between atoms: O_7  and  C_8
REMARK    5  A    between atoms: C_9  and  N_10
REMARK    6  A    between atoms: C_11  and  C_13
REMARK    7  A    between atoms: C_13  and  S_14
REMARK    8  A    between atoms: S_14  and  C_15
REMARK    9  A    between atoms: N_25  and  C_26
REMARK   10  A    between atoms: C_26  and  C_27
REMARK   11  A    between atoms: C_27  and  N_28
REMARK   12  A    between atoms: C_29  and  C_30
REMARK                            x       y       z     vdW  Elec       q    Type
REMARK                         _______ _______ _______ _____ _____    ______ ____
ROOT
ATOM      1  C   UNL     1       3.420   6.560  17.895  0.00  0.00    +0.000 A 
ATOM      2  N   UNL     1       2.353   5.867  18.136  0.00  0.00    +0.000 NA
ATOM      3  C   UNL     1       2.519   4.495  18.387  0.00  0.00    +0.000 A 
ATOM      4  C   UNL     1       1.439   3.622  18.263  0.00  0.00    +0.000 A 
ATOM      5  C   UNL     1       1.610   2.248  18.489  0.00  0.00    +0.000 A 
ATOM      6  C   UNL     1       2.854   1.743  18.877  0.00  0.00    +0.000 A 
ATOM      7  C   UNL     1       3.934   2.608  19.016  0.00  0.00    +0.000 A 
ATOM      8  C   UNL     1       3.757   3.967  18.743  0.00  0.00    +0.000 A 
ATOM      9  C   UNL     1       4.905   4.878  18.687  0.00  0.00    +0.000 A 
ATOM     10  O   UNL     1       5.936   4.586  19.276  0.00  0.00    +0.000 OA
ATOM     11  N   UNL     1       4.705   6.023  17.927  0.00  0.00    +0.000 N 
ENDROOT
BRANCH   1  12
ATOM     12  S   UNL     1       3.266   8.284  17.567  0.00  0.00    +0.000 S 
BRANCH  12  13
ATOM     13  C   UNL     1       1.489   8.578  17.859  0.00  0.00    +0.000 C 
BRANCH  13  15
ATOM     14  N   UNL     1       0.768  10.553  19.089  0.00  0.00    +0.000 N 
ATOM     15  C   UNL     1       1.279   9.267  19.216  0.00  0.00    +0.000 C 
ATOM     16  O   UNL     1       1.533   8.666  20.254  0.00  0.00    +0.000 OA
ATOM     17  H   UNL     1       0.390  10.753  18.170  0.00  0.00    +0.000 HD
BRANCH  14  22
ATOM     18  C   UNL     1      -1.171  12.104  21.828  0.00  0.00    +0.000 A 
ATOM     19  C   UNL     1      -0.437  13.239  22.135  0.00  0.00    +0.000 A 
ATOM     20  C   UNL     1       0.731  13.526  21.432  0.00  0.00    +0.000 A 
ATOM     21  C   UNL     1       1.181  12.691  20.393  0.00  0.00    +0.000 A 
ATOM     22  C   UNL     1       0.461  11.517  20.092  0.00  0.00    +0.000 A 
ATOM     23  C   UNL     1      -0.733  11.261  20.803  0.00  0.00    +0.000 A 
BRANCH  18  25
ATOM     24  C   UNL     1      -3.432  12.722  22.076  0.00  0.00    +0.000 C 
ATOM     25  O   UNL     1      -2.331  11.941  22.531  0.00  0.00    +0.000 OA
ENDBRANCH  18  25
BRANCH  21  26
ATOM     26  O   UNL     1       2.273  13.005  19.633  0.00  0.00    +0.000 OA
ATOM     27  C   UNL     1       2.088  13.899  18.542  0.00  0.00    +0.000 C 
ENDBRANCH  21  26
ENDBRANCH  14  22
ENDBRANCH  13  15
ENDBRANCH  12  13
ENDBRANCH   1  12
BRANCH  11  28
ATOM     28  C   UNL     1       5.879   6.722  17.378  0.00  0.00    +0.000 C 
BRANCH  28  29
ATOM     29  C   UNL     1       6.992   5.843  16.770  0.00  0.00    +0.000 C 
BRANCH  29  30
ATOM     30  N   UNL     1       6.710   5.482  15.392  0.00  0.00    +0.000 N 
ATOM     31  C   UNL     1       6.202   4.256  15.040  0.00  0.00    +0.000 C 
ATOM     32  C   UNL     1       5.939   4.098  13.566  0.00  0.00    +0.000 C 
ATOM     33  O   UNL     1       5.964   3.367  15.849  0.00  0.00    +0.000 OA
ATOM     34  H   UNL     1       6.890   6.175  14.676  0.00  0.00    +0.000 HD
ENDBRANCH  29  30
ENDBRANCH  28  29
ENDBRANCH  11  28
TORSDOF 9
ENDMDL
MODEL 8
REMARK VINA RESULT:      -7.6      2.732      4.725
REMARK  Name = 
REMARK  12 active torsions:
REMARK  status: ('A' for Active; 'I' for Inactive)
REMARK    1  A    between atoms: C_1  and  O_2
REMARK    2  A    between atoms: O_2  and  C_3
REMARK    3  A    between atoms: C_6  and  O_7
REMARK    4  A    between atoms: O_7  and  C_8
REMARK    5  A    between atoms: C_9  and  N_10
REMARK    6  A    between atoms: C_11  and  C_13
REMARK    7  A    between atoms: C_13  and  S_14
REMARK    8  A    between atoms: S_14  and  C_15
REMARK    9  A    between atoms: N_25  and  C_26
REMARK   10  A    between atoms: C_26  and  C_27
REMARK   11  A    between atoms: C_27  and  N_28
REMARK   12  A    between atoms: C_29  and  C_30
REMARK                            x       y       z     vdW  Elec       q    Type
REMARK                         _______ _______ _______ _____ _____    ______ ____
ROOT
ATOM      1  C   UNL     1       3.084   6.565  18.206  0.00  0.00    +0.000 A 
ATOM      2  N   UNL     1       4.045   6.929  17.418  0.00  0.00    +0.000 NA
ATOM      3  C   UNL     1       4.763   5.914  16.764  0.00  0.00    +0.000 A 
ATOM      4  C   UNL     1       6.025   6.177  16.231  0.00  0.00    +0.000 A 
ATOM      5  C   UNL     1       6.752   5.157  15.600  0.00  0.00    +0.000 A 
ATOM      6  C   UNL     1       6.208   3.878  15.465  0.00  0.00    +0.000 A 
ATOM      7  C   UNL     1       4.945   3.609  15.982  0.00  0.00    +0.000 A 
ATOM      8  C   UNL     1       4.253   4.624  16.647  0.00  0.00    +0.000 A 
ATOM      9  C   UNL     1       3.011   4.337  17.374  0.00  0.00    +0.000 A 
ATOM     10  O   UNL     1       2.349   3.355  17.070  0.00  0.00    +0.000 OA
ATOM     11  N   UNL     1       2.705   5.236  18.387  0.00  0.00    +0.000 N 
ENDROOT
BRANCH   1  12
ATOM     12  S   UNL     1       2.157   7.798  19.055  0.00  0.00    +0.000 S 
BRANCH  12  13
ATOM     13  C   UNL     1       2.129   9.163  17.846  0.00  0.00    +0.000 C 
BRANCH  13  15
ATOM     14  N   UNL     1      -0.189   9.894  18.016  0.00  0.00    +0.000 N 
ATOM     15  C   UNL     1       1.129  10.244  18.285  0.00  0.00    +0.000 C 
ATOM     16  O   UNL     1       1.530  11.264  18.833  0.00  0.00    +0.000 OA
ATOM     17  H   UNL     1      -0.315   8.910  17.804  0.00  0.00    +0.000 HD
BRANCH  14  22
ATOM     18  C   UNL     1      -2.513  12.137  19.814  0.00  0.00    +0.000 A 
ATOM     19  C   UNL     1      -3.631  12.162  18.995  0.00  0.00    +0.000 A 
ATOM     20  C   UNL     1      -3.646  11.423  17.814  0.00  0.00    +0.000 A 
ATOM     21  C   UNL     1      -2.548  10.630  17.434  0.00  0.00    +0.000 A 
ATOM     22  C   UNL     1      -1.393  10.621  18.243  0.00  0.00    +0.000 A 
ATOM     23  C   UNL     1      -1.411  11.359  19.447  0.00  0.00    +0.000 A 
BRANCH  18  25
ATOM     24  C   UNL     1      -3.875  12.746  21.638  0.00  0.00    +0.000 C 
ATOM     25  O   UNL     1      -2.617  12.846  20.978  0.00  0.00    +0.000 OA
ENDBRANCH  18  25
BRANCH  21  26
ATOM     26  O   UNL     1      -2.581   9.829  16.328  0.00  0.00    +0.000 OA
ATOM     27  C   UNL     1      -2.931  10.426  15.085  0.00  0.00    +0.000 C 
ENDBRANCH  21  26
ENDBRANCH  14  22
ENDBRANCH  13  15
ENDBRANCH  12  13
ENDBRANCH   1  12
BRANCH  11  28
ATOM     28  C   UNL     1       1.824   4.796  19.480  0.00  0.00    +0.000 C 
BRANCH  28  29
ATOM     29  C   UNL     1       2.483   4.008  20.633  0.00  0.00    +0.000 C 
BRANCH  29  30
ATOM     30  N   UNL     1       2.942   2.699  20.205  0.00  0.00    +0.000 N 
ATOM     31  C   UNL     1       4.247   2.452  19.859  0.00  0.00    +0.000 C 
ATOM     32  C   UNL     1       4.527   1.020  19.488  0.00  0.00    +0.000 C 
ATOM     33  O   UNL     1       5.122   3.311  19.864  0.00  0.00    +0.000 OA
ATOM     34  H   UNL     1       2.265   1.947  20.176  0.00  0.00    +0.000 HD
ENDBRANCH  29  30
ENDBRANCH  28  29
ENDBRANCH  11  28
TORSDOF 9
ENDMDL
MODEL 9
REMARK VINA RESULT:      -7.5      2.592      3.380
REMARK  Name = 
REMARK  12 active torsions:
REMARK  status: ('A' for Active; 'I' for Inactive)
REMARK    1  A    between atoms: C_1  and  O_2
REMARK    2  A    between atoms: O_2  and  C_3
REMARK    3  A    between atoms: C_6  and  O_7
REMARK    4  A    between atoms: O_7  and  C_8
REMARK    5  A    between atoms: C_9  and  N_10
REMARK    6  A    between atoms: C_11  and  C_13
REMARK    7  A    between atoms: C_13  and  S_14
REMARK    8  A    between atoms: S_14  and  C_15
REMARK    9  A    between atoms: N_25  and  C_26
REMARK   10  A    between atoms: C_26  and  C_27
REMARK   11  A    between atoms: C_27  and  N_28
REMARK   12  A    between atoms: C_29  and  C_30
REMARK                            x       y       z     vdW  Elec       q    Type
REMARK                         _______ _______ _______ _____ _____    ______ ____
ROOT
ATOM      1  C   UNL     1       2.675   6.366  18.577  0.00  0.00    +0.000 A 
ATOM      2  N   UNL     1       1.849   5.434  18.933  0.00  0.00    +0.000 NA
ATOM      3  C   UNL     1       2.296   4.105  18.834  0.00  0.00    +0.000 A 
ATOM      4  C   UNL     1       1.378   3.056  18.811  0.00  0.00    +0.000 A 
ATOM      5  C   UNL     1       1.822   1.731  18.687  0.00  0.00    +0.000 A 
ATOM      6  C   UNL     1       3.188   1.445  18.623  0.00  0.00    +0.000 A 
ATOM      7  C   UNL     1       4.111   2.484  18.658  0.00  0.00    +0.000 A 
ATOM      8  C   UNL     1       3.651   3.800  18.735  0.00  0.00    +0.000 A 
ATOM      9  C   UNL     1       4.572   4.931  18.580  0.00  0.00    +0.000 A 
ATOM     10  O   UNL     1       5.764   4.772  18.806  0.00  0.00    +0.000 OA
ATOM     11  N   UNL     1       3.980   6.114  18.160  0.00  0.00    +0.000 N 
ENDROOT
BRANCH   1  12
ATOM     12  S   UNL     1       2.163   8.049  18.676  0.00  0.00    +0.000 S 
BRANCH  12  13
ATOM     13  C   UNL     1       1.817   8.245  20.456  0.00  0.00    +0.000 C 
BRANCH  13  15
ATOM     14  N   UNL     1       0.140   9.833  19.682  0.00  0.00    +0.000 N 
ATOM     15  C   UNL     1       0.441   8.896  20.663  0.00  0.00    +0.000 C 
ATOM     16  O   UNL     1      -0.267   8.549  21.602  0.00  0.00    +0.000 OA
ATOM     17  H   UNL     1       0.739   9.776  18.866  0.00  0.00    +0.000 HD
BRANCH  14  22
ATOM     18  C   UNL     1      -2.955  11.094  18.099  0.00  0.00    +0.000 A 
ATOM     19  C   UNL     1      -3.343  12.128  18.936  0.00  0.00    +0.000 A 
ATOM     20  C   UNL     1      -2.578  12.441  20.058  0.00  0.00    +0.000 A 
ATOM     21  C   UNL     1      -1.398  11.736  20.357  0.00  0.00    +0.000 A 
ATOM     22  C   UNL     1      -1.009  10.662  19.531  0.00  0.00    +0.000 A 
ATOM     23  C   UNL     1      -1.788  10.380  18.387  0.00  0.00    +0.000 A 
BRANCH  18  25
ATOM     24  C   UNL     1      -4.888  11.735  16.914  0.00  0.00    +0.000 C 
ATOM     25  O   UNL     1      -3.736  10.902  16.994  0.00  0.00    +0.000 OA
ENDBRANCH  18  25
BRANCH  21  26
ATOM     26  O   UNL     1      -0.588  12.089  21.401  0.00  0.00    +0.000 OA
ATOM     27  C   UNL     1      -1.102  11.945  22.719  0.00  0.00    +0.000 C 
ENDBRANCH  21  26
ENDBRANCH  14  22
ENDBRANCH  13  15
ENDBRANCH  12  13
ENDBRANCH   1  12
BRANCH  11  28
ATOM     28  C   UNL     1       4.815   7.123  17.488  0.00  0.00    +0.000 C 
BRANCH  28  29
ATOM     29  C   UNL     1       6.014   6.602  16.667  0.00  0.00    +0.000 C 
BRANCH  29  30
ATOM     30  N   UNL     1       5.614   5.603  15.692  0.00  0.00    +0.000 N 
ATOM     31  C   UNL     1       6.505   5.020  14.826  0.00  0.00    +0.000 C 
ATOM     32  C   UNL     1       5.898   3.977  13.926  0.00  0.00    +0.000 C 
ATOM     33  O   UNL     1       7.697   5.303  14.792  0.00  0.00    +0.000 OA
ATOM     34  H   UNL     1       4.640   5.329  15.669  0.00  0.00    +0.000 HD
ENDBRANCH  29  30
ENDBRANCH  28  29
ENDBRANCH  11  28
TORSDOF 9
ENDMDL
