MODEL 1
REMARK VINA RESULT:      -8.2      0.000      0.000
REMARK  Name = 
REMARK  6 active torsions:
REMARK  status: ('A' for Active; 'I' for Inactive)
REMARK    1  A    between atoms: C_1  and  O_2
REMARK    2  A    between atoms: O_2  and  C_3
REMARK    3  A    between atoms: C_8  and  O_9
REMARK    4  A    between atoms: O_9  and  C_10
REMARK    5  A    between atoms: C_13  and  C_15
REMARK    6  A    between atoms: C_18  and  C_19
REMARK                            x       y       z     vdW  Elec       q    Type
REMARK                         _______ _______ _______ _____ _____    ______ ____
ROOT
ATOM      1  C   UNL     1       1.751   3.742  19.887  0.00  0.00    +0.000 A 
ATOM      2  C   UNL     1       1.487   4.853  20.700  0.00  0.00    +0.000 A 
ATOM      3  C   UNL     1       1.799   6.142  20.270  0.00  0.00    +0.000 A 
ATOM      4  C   UNL     1       2.379   6.335  19.012  0.00  0.00    +0.000 A 
ATOM      5  C   UNL     1       2.673   5.228  18.208  0.00  0.00    +0.000 A 
ATOM      6  C   UNL     1       2.350   3.925  18.625  0.00  0.00    +0.000 A 
ATOM      7  C   UNL     1       2.694   7.745  18.568  0.00  0.00    +0.000 C 
ATOM      8  N   UNL     1       1.670   8.709  18.979  0.00  0.00    +0.000 N 
ATOM      9  C   UNL     1       1.502   9.859  18.193  0.00  0.00    +0.000 C 
ATOM     10  O   UNL     1       2.224  10.047  17.210  0.00  0.00    +0.000 OA
ATOM     11  C   UNL     1       0.942   8.460  20.231  0.00  0.00    +0.000 C 
ATOM     12  C   UNL     1       1.531   7.356  21.110  0.00  0.00    +0.000 C 
ENDROOT
BRANCH   9  13
ATOM     13  C   UNL     1       0.510  10.854  18.578  0.00  0.00    +0.000 A 
ATOM     14  C   UNL     1       0.668  12.026  19.294  0.00  0.00    +0.000 A 
ATOM     15  C   UNL     1      -0.619  12.599  19.439  0.00  0.00    +0.000 A 
ATOM     16  C   UNL     1      -1.493  11.785  18.748  0.00  0.00    +0.000 A 
ATOM     17  O   UNL     1      -0.804  10.737  18.207  0.00  0.00    +0.000 OA
BRANCH  16  18
ATOM     18  C   UNL     1      -2.926  11.818  18.480  0.00  0.00    +0.000 A 
ATOM     19  C   UNL     1      -3.838  12.193  19.483  0.00  0.00    +0.000 A 
ATOM     20  C   UNL     1      -5.214  12.157  19.244  0.00  0.00    +0.000 A 
ATOM     21  C   UNL     1      -5.686  11.760  17.999  0.00  0.00    +0.000 A 
ATOM     22  F   UNL     1      -7.006  11.708  17.779  0.00  0.00    +0.000 F 
ATOM     23  C   UNL     1      -4.810  11.412  16.982  0.00  0.00    +0.000 A 
ATOM     24  C   UNL     1      -3.441  11.443  17.229  0.00  0.00    +0.000 A 
ATOM     25  F   UNL     1      -2.615  11.104  16.227  0.00  0.00    +0.000 F 
ENDBRANCH  16  18
ENDBRANCH   9  13
BRANCH   1  27
ATOM     26  C   UNL     1       1.529   2.375  21.825  0.00  0.00    +0.000 C 
ATOM     27  O   UNL     1       1.303   2.569  20.437  0.00  0.00    +0.000 OA
ENDBRANCH   1  27
BRANCH   6  28
ATOM     28  O   UNL     1       2.559   2.816  17.852  0.00  0.00    +0.000 OA
ATOM     29  C   UNL     1       3.588   1.912  18.228  0.00  0.00    +0.000 C 
ENDBRANCH   6  28
TORSDOF 4
ENDMDL
MODEL 2
REMARK VINA RESULT:      -8.2      3.621      9.178
REMARK  Name = 
REMARK  6 active torsions:
REMARK  status: ('A' for Active; 'I' for Inactive)
REMARK    1  A    between atoms: C_1  and  O_2
REMARK    2  A    between atoms: O_2  and  C_3
REMARK    3  A    between atoms: C_8  and  O_9
REMARK    4  A    between atoms: O_9  and  C_10
REMARK    5  A    between atoms: C_13  and  C_15
REMARK    6  A    between atoms: C_18  and  C_19
REMARK                            x       y       z     vdW  Elec       q    Type
REMARK                         _______ _______ _______ _____ _____    ______ ____
ROOT
ATOM      1  C   UNL     1      -5.475  11.926  18.886  0.00  0.00    +0.000 A 
ATOM      2  C   UNL     1      -4.561  11.515  17.906  0.00  0.00    +0.000 A 
ATOM      3  C   UNL     1      -3.188  11.588  18.135  0.00  0.00    +0.000 A 
ATOM      4  C   UNL     1      -2.710  12.075  19.356  0.00  0.00    +0.000 A 
ATOM      5  C   UNL     1      -3.617  12.515  20.328  0.00  0.00    +0.000 A 
ATOM      6  C   UNL     1      -5.004  12.432  20.113  0.00  0.00    +0.000 A 
ATOM      7  C   UNL     1      -1.217  12.130  19.581  0.00  0.00    +0.000 C 
ATOM      8  N   UNL     1      -0.517  10.978  19.008  0.00  0.00    +0.000 N 
ATOM      9  C   UNL     1       0.693  10.587  19.603  0.00  0.00    +0.000 C 
ATOM     10  O   UNL     1       1.148  11.226  20.556  0.00  0.00    +0.000 OA
ATOM     11  C   UNL     1      -1.072  10.355  17.799  0.00  0.00    +0.000 C 
ATOM     12  C   UNL     1      -2.178  11.157  17.112  0.00  0.00    +0.000 C 
ENDROOT
BRANCH   9  13
ATOM     13  C   UNL     1       1.434   9.460  19.052  0.00  0.00    +0.000 A 
ATOM     14  C   UNL     1       2.137   9.361  17.866  0.00  0.00    +0.000 A 
ATOM     15  C   UNL     1       2.624   8.035  17.783  0.00  0.00    +0.000 A 
ATOM     16  C   UNL     1       2.253   7.405  18.953  0.00  0.00    +0.000 A 
ATOM     17  O   UNL     1       1.549   8.276  19.733  0.00  0.00    +0.000 OA
BRANCH  16  18
ATOM     18  C   UNL     1       2.458   6.070  19.504  0.00  0.00    +0.000 A 
ATOM     19  C   UNL     1       1.584   5.549  20.474  0.00  0.00    +0.000 A 
ATOM     20  C   UNL     1       1.822   4.299  21.051  0.00  0.00    +0.000 A 
ATOM     21  C   UNL     1       2.927   3.557  20.651  0.00  0.00    +0.000 A 
ATOM     22  F   UNL     1       3.164   2.368  21.219  0.00  0.00    +0.000 F 
ATOM     23  C   UNL     1       3.791   4.032  19.677  0.00  0.00    +0.000 A 
ATOM     24  C   UNL     1       3.551   5.282  19.112  0.00  0.00    +0.000 A 
ATOM     25  F   UNL     1       4.400   5.717  18.168  0.00  0.00    +0.000 F 
ENDBRANCH  16  18
ENDBRANCH   9  13
BRANCH   1  27
ATOM     26  C   UNL     1      -7.473  12.783  17.912  0.00  0.00    +0.000 C 
ATOM     27  O   UNL     1      -6.777  11.704  18.518  0.00  0.00    +0.000 OA
ENDBRANCH   1  27
BRANCH   6  28
ATOM     28  O   UNL     1      -5.931  12.790  21.052  0.00  0.00    +0.000 OA
ATOM     29  C   UNL     1      -5.486  13.067  22.373  0.00  0.00    +0.000 C 
ENDBRANCH   6  28
TORSDOF 4
ENDMDL
MODEL 3
REMARK VINA RESULT:      -8.0      0.997      1.341
REMARK  Name = 
REMARK  6 active torsions:
REMARK  status: ('A' for Active; 'I' for Inactive)
REMARK    1  A    between atoms: C_1  and  O_2
REMARK    2  A    between atoms: O_2  and  C_3
REMARK    3  A    between atoms: C_8  and  O_9
REMARK    4  A    between atoms: O_9  and  C_10
REMARK    5  A    between atoms: C_13  and  C_15
REMARK    6  A    between atoms: C_18  and  C_19
REMARK                            x       y       z     vdW  Elec       q    Type
REMARK                         _______ _______ _______ _____ _____    ______ ____
ROOT
ATOM      1  C   UNL     1       1.928   3.923  19.782  0.00  0.00    +0.000 A 
ATOM      2  C   UNL     1       1.594   4.984  20.635  0.00  0.00    +0.000 A 
ATOM      3  C   UNL     1       1.829   6.306  20.258  0.00  0.00    +0.000 A 
ATOM      4  C   UNL     1       2.401   6.583  19.012  0.00  0.00    +0.000 A 
ATOM      5  C   UNL     1       2.765   5.527  18.167  0.00  0.00    +0.000 A 
ATOM      6  C   UNL     1       2.519   4.192  18.531  0.00  0.00    +0.000 A 
ATOM      7  C   UNL     1       2.632   8.025  18.625  0.00  0.00    +0.000 C 
ATOM      8  N   UNL     1       1.550   8.908  19.067  0.00  0.00    +0.000 N 
ATOM      9  C   UNL     1       1.315  10.076  18.325  0.00  0.00    +0.000 C 
ATOM     10  O   UNL     1       2.029  10.346  17.355  0.00  0.00    +0.000 OA
ATOM     11  C   UNL     1       0.833   8.567  20.304  0.00  0.00    +0.000 C 
ATOM     12  C   UNL     1       1.485   7.467  21.143  0.00  0.00    +0.000 C 
ENDROOT
BRANCH   9  13
ATOM     13  C   UNL     1       0.263  10.994  18.743  0.00  0.00    +0.000 A 
ATOM     14  C   UNL     1       0.340  12.117  19.544  0.00  0.00    +0.000 A 
ATOM     15  C   UNL     1      -0.978  12.617  19.682  0.00  0.00    +0.000 A 
ATOM     16  C   UNL     1      -1.787  11.815  18.905  0.00  0.00    +0.000 A 
ATOM     17  O   UNL     1      -1.030  10.843  18.317  0.00  0.00    +0.000 OA
BRANCH  16  18
ATOM     18  C   UNL     1      -3.211  11.801  18.588  0.00  0.00    +0.000 A 
ATOM     19  C   UNL     1      -3.664  11.384  17.325  0.00  0.00    +0.000 A 
ATOM     20  C   UNL     1      -5.022  11.436  17.001  0.00  0.00    +0.000 A 
ATOM     21  C   UNL     1      -5.936  11.894  17.943  0.00  0.00    +0.000 A 
ATOM     22  F   UNL     1      -7.235  11.962  17.624  0.00  0.00    +0.000 F 
ATOM     23  C   UNL     1      -5.522  12.285  19.207  0.00  0.00    +0.000 A 
ATOM     24  C   UNL     1      -4.166  12.236  19.520  0.00  0.00    +0.000 A 
ATOM     25  F   UNL     1      -3.793  12.618  20.751  0.00  0.00    +0.000 F 
ENDBRANCH  16  18
ENDBRANCH   9  13
BRANCH   1  27
ATOM     26  C   UNL     1       1.540   2.558  21.694  0.00  0.00    +0.000 C 
ATOM     27  O   UNL     1       1.550   2.705  20.282  0.00  0.00    +0.000 OA
ENDBRANCH   1  27
BRANCH   6  28
ATOM     28  O   UNL     1       2.798   3.129  17.717  0.00  0.00    +0.000 OA
ATOM     29  C   UNL     1       4.134   2.948  17.272  0.00  0.00    +0.000 C 
ENDBRANCH   6  28
TORSDOF 4
ENDMDL
MODEL 4
REMARK VINA RESULT:      -8.0      3.247      8.822
REMARK  Name = 
REMARK  6 active torsions:
REMARK  status: ('A' for Active; 'I' for Inactive)
REMARK    1  A    between atoms: C_1  and  O_2
REMARK    2  A    between atoms: O_2  and  C_3
REMARK    3  A    between atoms: C_8  and  O_9
REMARK    4  A    between atoms: O_9  and  C_10
REMARK    5  A    between atoms: C_13  and  C_15
REMARK    6  A    between atoms: C_18  and  C_19
REMARK                            x       y       z     vdW  Elec       q    Type
REMARK                         _______ _______ _______ _____ _____    ______ ____
ROOT
ATOM      1  C   UNL     1      -5.496  11.445  18.838  0.00  0.00    +0.000 A 
ATOM      2  C   UNL     1      -4.672  10.878  17.856  0.00  0.00    +0.000 A 
ATOM      3  C   UNL     1      -3.293  11.083  17.875  0.00  0.00    +0.000 A 
ATOM      4  C   UNL     1      -2.719  11.861  18.887  0.00  0.00    +0.000 A 
ATOM      5  C   UNL     1      -3.539  12.455  19.854  0.00  0.00    +0.000 A 
ATOM      6  C   UNL     1      -4.929  12.242  19.852  0.00  0.00    +0.000 A 
ATOM      7  C   UNL     1      -1.220  12.055  18.889  0.00  0.00    +0.000 C 
ATOM      8  N   UNL     1      -0.493  10.847  18.490  0.00  0.00    +0.000 N 
ATOM      9  C   UNL     1       0.808  10.674  18.986  0.00  0.00    +0.000 C 
ATOM     10  O   UNL     1       1.315  11.537  19.708  0.00  0.00    +0.000 OA
ATOM     11  C   UNL     1      -1.131   9.935  17.531  0.00  0.00    +0.000 C 
ATOM     12  C   UNL     1      -2.378  10.494  16.843  0.00  0.00    +0.000 C 
ENDROOT
BRANCH   9  13
ATOM     13  C   UNL     1       1.575   9.497  18.597  0.00  0.00    +0.000 A 
ATOM     14  C   UNL     1       2.617   9.382  17.696  0.00  0.00    +0.000 A 
ATOM     15  C   UNL     1       2.971   8.012  17.647  0.00  0.00    +0.000 A 
ATOM     16  C   UNL     1       2.175   7.366  18.569  0.00  0.00    +0.000 A 
ATOM     17  O   UNL     1       1.341   8.271  19.161  0.00  0.00    +0.000 OA
BRANCH  16  18
ATOM     18  C   UNL     1       2.053   5.986  19.026  0.00  0.00    +0.000 A 
ATOM     19  C   UNL     1       2.122   4.917  18.116  0.00  0.00    +0.000 A 
ATOM     20  C   UNL     1       1.937   3.600  18.547  0.00  0.00    +0.000 A 
ATOM     21  C   UNL     1       1.695   3.345  19.892  0.00  0.00    +0.000 A 
ATOM     22  F   UNL     1       1.498   2.085  20.299  0.00  0.00    +0.000 F 
ATOM     23  C   UNL     1       1.649   4.377  20.817  0.00  0.00    +0.000 A 
ATOM     24  C   UNL     1       1.828   5.686  20.379  0.00  0.00    +0.000 A 
ATOM     25  F   UNL     1       1.782   6.665  21.295  0.00  0.00    +0.000 F 
ENDBRANCH  16  18
ENDBRANCH   9  13
BRANCH   1  27
ATOM     26  C   UNL     1      -7.180   9.813  19.256  0.00  0.00    +0.000 C 
ATOM     27  O   UNL     1      -6.807  11.068  18.707  0.00  0.00    +0.000 OA
ENDBRANCH   1  27
BRANCH   6  28
ATOM     28  O   UNL     1      -5.766  12.747  20.808  0.00  0.00    +0.000 OA
ATOM     29  C   UNL     1      -6.344  14.027  20.595  0.00  0.00    +0.000 C 
ENDBRANCH   6  28
TORSDOF 4
ENDMDL
MODEL 5
REMARK VINA RESULT:      -7.9      3.818      9.282
REMARK  Name = 
REMARK  6 active torsions:
REMARK  status: ('A' for Active; 'I' for Inactive)
REMARK    1  A    between atoms: C_1  and  O_2
REMARK    2  A    between atoms: O_2  and  C_3
REMARK    3  A    between atoms: C_8  and  O_9
REMARK    4  A    between atoms: O_9  and  C_10
REMARK    5  A    between atoms: C_13  and  C_15
REMARK    6  A    between atoms: C_18  and  C_19
REMARK                            x       y       z     vdW  Elec       q    Type
REMARK                         _______ _______ _______ _____ _____    ______ ____
ROOT
ATOM      1  C   UNL     1      -5.036  12.717  21.144  0.00  0.00    +0.000 A 
ATOM      2  C   UNL     1      -4.222  12.601  20.008  0.00  0.00    +0.000 A 
ATOM      3  C   UNL     1      -2.852  12.374  20.132  0.00  0.00    +0.000 A 
ATOM      4  C   UNL     1      -2.277  12.258  21.402  0.00  0.00    +0.000 A 
ATOM      5  C   UNL     1      -3.079  12.404  22.541  0.00  0.00    +0.000 A 
ATOM      6  C   UNL     1      -4.464  12.617  22.427  0.00  0.00    +0.000 A 
ATOM      7  C   UNL     1      -0.792  12.000  21.505  0.00  0.00    +0.000 C 
ATOM      8  N   UNL     1      -0.306  11.082  20.472  0.00  0.00    +0.000 N 
ATOM      9  C   UNL     1       0.832  10.313  20.764  0.00  0.00    +0.000 C 
ATOM     10  O   UNL     1       1.405  10.445  21.849  0.00  0.00    +0.000 OA
ATOM     11  C   UNL     1      -0.980  11.081  19.167  0.00  0.00    +0.000 C 
ATOM     12  C   UNL     1      -1.948  12.243  18.942  0.00  0.00    +0.000 C 
ENDROOT
BRANCH   9  13
ATOM     13  C   UNL     1       1.362   9.403  19.758  0.00  0.00    +0.000 A 
ATOM     14  C   UNL     1       1.504   9.581  18.395  0.00  0.00    +0.000 A 
ATOM     15  C   UNL     1       2.020   8.372  17.871  0.00  0.00    +0.000 A 
ATOM     16  C   UNL     1       2.232   7.535  18.947  0.00  0.00    +0.000 A 
ATOM     17  O   UNL     1       1.852   8.168  20.095  0.00  0.00    +0.000 OA
BRANCH  16  18
ATOM     18  C   UNL     1       2.761   6.184  19.103  0.00  0.00    +0.000 A 
ATOM     19  C   UNL     1       3.858   5.748  18.340  0.00  0.00    +0.000 A 
ATOM     20  C   UNL     1       4.320   4.433  18.442  0.00  0.00    +0.000 A 
ATOM     21  C   UNL     1       3.695   3.551  19.316  0.00  0.00    +0.000 A 
ATOM     22  F   UNL     1       4.126   2.286  19.397  0.00  0.00    +0.000 F 
ATOM     23  C   UNL     1       2.629   3.961  20.101  0.00  0.00    +0.000 A 
ATOM     24  C   UNL     1       2.170   5.271  19.989  0.00  0.00    +0.000 A 
ATOM     25  F   UNL     1       1.139   5.642  20.763  0.00  0.00    +0.000 F 
ENDBRANCH  16  18
ENDBRANCH   9  13
BRANCH   1  27
ATOM     26  C   UNL     1      -7.111  11.663  20.640  0.00  0.00    +0.000 C 
ATOM     27  O   UNL     1      -6.363  12.854  20.829  0.00  0.00    +0.000 OA
ENDBRANCH   1  27
BRANCH   6  28
ATOM     28  O   UNL     1      -5.300  12.704  23.506  0.00  0.00    +0.000 OA
ATOM     29  C   UNL     1      -4.786  12.381  24.790  0.00  0.00    +0.000 C 
ENDBRANCH   6  28
TORSDOF 4
ENDMDL
MODEL 6
REMARK VINA RESULT:      -7.9      3.290      8.876
REMARK  Name = 
REMARK  6 active torsions:
REMARK  status: ('A' for Active; 'I' for Inactive)
REMARK    1  A    between atoms: C_1  and  O_2
REMARK    2  A    between atoms: O_2  and  C_3
REMARK    3  A    between atoms: C_8  and  O_9
REMARK    4  A    between atoms: O_9  and  C_10
REMARK    5  A    between atoms: C_13  and  C_15
REMARK    6  A    between atoms: C_18  and  C_19
REMARK                            x       y       z     vdW  Elec       q    Type
REMARK                         _______ _______ _______ _____ _____    ______ ____
ROOT
ATOM      1  C   UNL     1      -5.039  12.095  19.291  0.00  0.00    +0.000 A 
ATOM      2  C   UNL     1      -4.336  11.423  18.281  0.00  0.00    +0.000 A 
ATOM      3  C   UNL     1      -2.942  11.441  18.248  0.00  0.00    +0.000 A 
ATOM      4  C   UNL     1      -2.231  12.133  19.234  0.00  0.00    +0.000 A 
ATOM      5  C   UNL     1      -2.928  12.831  20.228  0.00  0.00    +0.000 A 
ATOM      6  C   UNL     1      -4.332  12.808  20.280  0.00  0.00    +0.000 A 
ATOM      7  C   UNL     1      -0.721  12.124  19.180  0.00  0.00    +0.000 C 
ATOM      8  N   UNL     1      -0.179  10.830  18.759  0.00  0.00    +0.000 N 
ATOM      9  C   UNL     1       1.105  10.482  19.207  0.00  0.00    +0.000 C 
ATOM     10  O   UNL     1       1.750  11.269  19.905  0.00  0.00    +0.000 OA
ATOM     11  C   UNL     1      -0.969  10.013  17.828  0.00  0.00    +0.000 C 
ATOM     12  C   UNL     1      -2.155  10.735  17.185  0.00  0.00    +0.000 C 
ENDROOT
BRANCH   9  13
ATOM     13  C   UNL     1       1.691   9.214  18.794  0.00  0.00    +0.000 A 
ATOM     14  C   UNL     1       2.549   8.938  17.746  0.00  0.00    +0.000 A 
ATOM     15  C   UNL     1       2.773   7.540  17.752  0.00  0.00    +0.000 A 
ATOM     16  C   UNL     1       2.095   7.037  18.843  0.00  0.00    +0.000 A 
ATOM     17  O   UNL     1       1.456   8.056  19.488  0.00  0.00    +0.000 OA
BRANCH  16  18
ATOM     18  C   UNL     1       1.938   5.709  19.425  0.00  0.00    +0.000 A 
ATOM     19  C   UNL     1       2.186   5.487  20.791  0.00  0.00    +0.000 A 
ATOM     20  C   UNL     1       2.102   4.201  21.332  0.00  0.00    +0.000 A 
ATOM     21  C   UNL     1       1.757   3.132  20.512  0.00  0.00    +0.000 A 
ATOM     22  F   UNL     1       1.697   1.898  21.029  0.00  0.00    +0.000 F 
ATOM     23  C   UNL     1       1.480   3.325  19.168  0.00  0.00    +0.000 A 
ATOM     24  C   UNL     1       1.573   4.608  18.635  0.00  0.00    +0.000 A 
ATOM     25  F   UNL     1       1.296   4.767  17.332  0.00  0.00    +0.000 F 
ENDBRANCH  16  18
ENDBRANCH   9  13
BRANCH   1  27
ATOM     26  C   UNL     1      -6.926  11.566  17.938  0.00  0.00    +0.000 C 
ATOM     27  O   UNL     1      -6.393  11.899  19.211  0.00  0.00    +0.000 OA
ENDBRANCH   1  27
BRANCH   6  28
ATOM     28  O   UNL     1      -5.057  13.420  21.264  0.00  0.00    +0.000 OA
ATOM     29  C   UNL     1      -4.457  13.593  22.540  0.00  0.00    +0.000 C 
ENDBRANCH   6  28
TORSDOF 4
ENDMDL
MODEL 7
REMARK VINA RESULT:      -7.7      3.723      9.178
REMARK  Name = 
REMARK  6 active torsions:
REMARK  status: ('A' for Active; 'I' for Inactive)
REMARK    1  A    between atoms: C_1  and  O_2
REMARK    2  A    between atoms: O_2  and  C_3
REMARK    3  A    between atoms: C_8  and  O_9
REMARK    4  A    between atoms: O_9  and  C_10
REMARK    5  A    between atoms: C_13  and  C_15
REMARK    6  A    between atoms: C_18  and  C_19
REMARK                            x       y       z     vdW  Elec       q    Type
REMARK                         _______ _______ _______ _____ _____    ______ ____
ROOT
ATOM      1  C   UNL     1      -4.571  12.281  18.954  0.00  0.00    +0.000 A 
ATOM      2  C   UNL     1      -3.678  11.525  18.183  0.00  0.00    +0.000 A 
ATOM      3  C   UNL     1      -2.375  11.293  18.622  0.00  0.00    +0.000 A 
ATOM      4  C   UNL     1      -1.949  11.816  19.848  0.00  0.00    +0.000 A 
ATOM      5  C   UNL     1      -2.828  12.597  20.609  0.00  0.00    +0.000 A 
ATOM      6  C   UNL     1      -4.148  12.825  20.183  0.00  0.00    +0.000 A 
ATOM      7  C   UNL     1      -0.536  11.538  20.303  0.00  0.00    +0.000 C 
ATOM      8  N   UNL     1      -0.093  10.181  19.974  0.00  0.00    +0.000 N 
ATOM      9  C   UNL     1       0.884   9.595  20.794  0.00  0.00    +0.000 C 
ATOM     10  O   UNL     1       1.362  10.231  21.737  0.00  0.00    +0.000 OA
ATOM     11  C   UNL     1      -0.631   9.548  18.762  0.00  0.00    +0.000 C 
ATOM     12  C   UNL     1      -1.389  10.490  17.826  0.00  0.00    +0.000 C 
ENDROOT
BRANCH   9  13
ATOM     13  C   UNL     1       1.368   8.255  20.490  0.00  0.00    +0.000 A 
ATOM     14  C   UNL     1       1.120   7.059  21.136  0.00  0.00    +0.000 A 
ATOM     15  C   UNL     1       1.875   6.064  20.471  0.00  0.00    +0.000 A 
ATOM     16  C   UNL     1       2.497   6.686  19.408  0.00  0.00    +0.000 A 
ATOM     17  O   UNL     1       2.172   8.012  19.407  0.00  0.00    +0.000 OA
BRANCH  16  18
ATOM     18  C   UNL     1       3.376   6.239  18.334  0.00  0.00    +0.000 A 
ATOM     19  C   UNL     1       4.044   7.167  17.515  0.00  0.00    +0.000 A 
ATOM     20  C   UNL     1       4.830   6.737  16.444  0.00  0.00    +0.000 A 
ATOM     21  C   UNL     1       4.965   5.376  16.193  0.00  0.00    +0.000 A 
ATOM     22  F   UNL     1       5.703   4.967  15.154  0.00  0.00    +0.000 F 
ATOM     23  C   UNL     1       4.341   4.437  17.000  0.00  0.00    +0.000 A 
ATOM     24  C   UNL     1       3.554   4.874  18.061  0.00  0.00    +0.000 A 
ATOM     25  F   UNL     1       2.964   3.944  18.828  0.00  0.00    +0.000 F 
ENDBRANCH  16  18
ENDBRANCH   9  13
BRANCH   1  27
ATOM     26  C   UNL     1      -6.571  11.125  18.373  0.00  0.00    +0.000 C 
ATOM     27  O   UNL     1      -5.826  12.333  18.407  0.00  0.00    +0.000 OA
ENDBRANCH   1  27
BRANCH   6  28
ATOM     28  O   UNL     1      -5.062  13.527  20.918  0.00  0.00    +0.000 OA
ATOM     29  C   UNL     1      -5.910  12.813  21.806  0.00  0.00    +0.000 C 
ENDBRANCH   6  28
TORSDOF 4
ENDMDL
MODEL 8
REMARK VINA RESULT:      -7.7      2.671      3.610
REMARK  Name = 
REMARK  6 active torsions:
REMARK  status: ('A' for Active; 'I' for Inactive)
REMARK    1  A    between atoms: C_1  and  O_2
REMARK    2  A    between atoms: O_2  and  C_3
REMARK    3  A    between atoms: C_8  and  O_9
REMARK    4  A    between atoms: O_9  and  C_10
REMARK    5  A    between atoms: C_13  and  C_15
REMARK    6  A    between atoms: C_18  and  C_19
REMARK                            x       y       z     vdW  Elec       q    Type
REMARK                         _______ _______ _______ _____ _____    ______ ____
ROOT
ATOM      1  C   UNL     1       5.896   5.995  17.221  0.00  0.00    +0.000 A 
ATOM      2  C   UNL     1       4.767   6.692  16.770  0.00  0.00    +0.000 A 
ATOM      3  C   UNL     1       3.667   6.886  17.605  0.00  0.00    +0.000 A 
ATOM      4  C   UNL     1       3.687   6.385  18.911  0.00  0.00    +0.000 A 
ATOM      5  C   UNL     1       4.800   5.663  19.358  0.00  0.00    +0.000 A 
ATOM      6  C   UNL     1       5.920   5.474  18.530  0.00  0.00    +0.000 A 
ATOM      7  C   UNL     1       2.486   6.622  19.797  0.00  0.00    +0.000 C 
ATOM      8  N   UNL     1       1.898   7.950  19.607  0.00  0.00    +0.000 N 
ATOM      9  C   UNL     1       1.213   8.523  20.691  0.00  0.00    +0.000 C 
ATOM     10  O   UNL     1       1.096   7.897  21.748  0.00  0.00    +0.000 OA
ATOM     11  C   UNL     1       1.983   8.566  18.276  0.00  0.00    +0.000 C 
ATOM     12  C   UNL     1       2.440   7.626  17.160  0.00  0.00    +0.000 C 
ENDROOT
BRANCH   9  13
ATOM     13  C   UNL     1       0.594   9.833  20.538  0.00  0.00    +0.000 A 
ATOM     14  C   UNL     1       1.082  11.083  20.867  0.00  0.00    +0.000 A 
ATOM     15  C   UNL     1       0.063  12.018  20.565  0.00  0.00    +0.000 A 
ATOM     16  C   UNL     1      -0.974  11.303  20.003  0.00  0.00    +0.000 A 
ATOM     17  O   UNL     1      -0.643   9.979  19.967  0.00  0.00    +0.000 OA
BRANCH  16  18
ATOM     18  C   UNL     1      -2.280  11.654  19.458  0.00  0.00    +0.000 A 
ATOM     19  C   UNL     1      -3.219  12.358  20.231  0.00  0.00    +0.000 A 
ATOM     20  C   UNL     1      -4.494  12.633  19.730  0.00  0.00    +0.000 A 
ATOM     21  C   UNL     1      -4.833  12.216  18.448  0.00  0.00    +0.000 A 
ATOM     22  F   UNL     1      -6.062  12.464  17.978  0.00  0.00    +0.000 F 
ATOM     23  C   UNL     1      -3.919  11.544  17.652  0.00  0.00    +0.000 A 
ATOM     24  C   UNL     1      -2.653  11.268  18.160  0.00  0.00    +0.000 A 
ATOM     25  F   UNL     1      -1.787  10.620  17.367  0.00  0.00    +0.000 F 
ENDBRANCH  16  18
ENDBRANCH   9  13
BRANCH   1  27
ATOM     26  C   UNL     1       6.952   4.868  15.409  0.00  0.00    +0.000 C 
ATOM     27  O   UNL     1       6.907   5.975  16.296  0.00  0.00    +0.000 OA
ENDBRANCH   1  27
BRANCH   6  28
ATOM     28  O   UNL     1       7.055   4.830  18.938  0.00  0.00    +0.000 OA
ATOM     29  C   UNL     1       8.064   5.587  19.593  0.00  0.00    +0.000 C 
ENDBRANCH   6  28
TORSDOF 4
ENDMDL
MODEL 9
REMARK VINA RESULT:      -7.7      2.089      2.506
REMARK  Name = 
REMARK  6 active torsions:
REMARK  status: ('A' for Active; 'I' for Inactive)
REMARK    1  A    between atoms: C_1  and  O_2
REMARK    2  A    between atoms: O_2  and  C_3
REMARK    3  A    between atoms: C_8  and  O_9
REMARK    4  A    between atoms: O_9  and  C_10
REMARK    5  A    between atoms: C_13  and  C_15
REMARK    6  A    between atoms: C_18  and  C_19
REMARK                            x       y       z     vdW  Elec       q    Type
REMARK                         _______ _______ _______ _____ _____    ______ ____
ROOT
ATOM      1  C   UNL     1       1.334   4.091  19.939  0.00  0.00    +0.000 A 
ATOM      2  C   UNL     1       1.418   5.209  20.780  0.00  0.00    +0.000 A 
ATOM      3  C   UNL     1       1.832   6.445  20.285  0.00  0.00    +0.000 A 
ATOM      4  C   UNL     1       2.166   6.577  18.933  0.00  0.00    +0.000 A 
ATOM      5  C   UNL     1       2.113   5.457  18.094  0.00  0.00    +0.000 A 
ATOM      6  C   UNL     1       1.683   4.210  18.580  0.00  0.00    +0.000 A 
ATOM      7  C   UNL     1       2.599   7.932  18.422  0.00  0.00    +0.000 C 
ATOM      8  N   UNL     1       1.844   9.031  19.027  0.00  0.00    +0.000 N 
ATOM      9  C   UNL     1       1.699  10.213  18.283  0.00  0.00    +0.000 C 
ATOM     10  O   UNL     1       2.225  10.311  17.171  0.00  0.00    +0.000 OA
ATOM     11  C   UNL     1       1.357   8.868  20.404  0.00  0.00    +0.000 C 
ATOM     12  C   UNL     1       1.935   7.665  21.152  0.00  0.00    +0.000 C 
ENDROOT
BRANCH   9  13
ATOM     13  C   UNL     1       0.974  11.339  18.856  0.00  0.00    +0.000 A 
ATOM     14  C   UNL     1       1.292  12.684  18.858  0.00  0.00    +0.000 A 
ATOM     15  C   UNL     1       0.283  13.347  19.596  0.00  0.00    +0.000 A 
ATOM     16  C   UNL     1      -0.640  12.386  19.953  0.00  0.00    +0.000 A 
ATOM     17  O   UNL     1      -0.231  11.170  19.486  0.00  0.00    +0.000 OA
BRANCH  16  18
ATOM     18  C   UNL     1      -1.903  12.403  20.682  0.00  0.00    +0.000 A 
ATOM     19  C   UNL     1      -3.123  12.572  20.004  0.00  0.00    +0.000 A 
ATOM     20  C   UNL     1      -4.326  12.656  20.711  0.00  0.00    +0.000 A 
ATOM     21  C   UNL     1      -4.317  12.559  22.097  0.00  0.00    +0.000 A 
ATOM     22  F   UNL     1      -5.468  12.661  22.774  0.00  0.00    +0.000 F 
ATOM     23  C   UNL     1      -3.132  12.365  22.790  0.00  0.00    +0.000 A 
ATOM     24  C   UNL     1      -1.937  12.288  22.080  0.00  0.00    +0.000 A 
ATOM     25  F   UNL     1      -0.806  12.096  22.776  0.00  0.00    +0.000 F 
ENDBRANCH  16  18
ENDBRANCH   9  13
BRANCH   1  27
ATOM     26  C   UNL     1       1.523   2.536  21.734  0.00  0.00    +0.000 C 
ATOM     27  O   UNL     1       0.831   2.988  20.579  0.00  0.00    +0.000 OA
ENDBRANCH   1  27
BRANCH   6  28
ATOM     28  O   UNL     1       1.554   3.101  17.789  0.00  0.00    +0.000 OA
ATOM     29  C   UNL     1       2.671   2.235  17.651  0.00  0.00    +0.000 C 
ENDBRANCH   6  28
TORSDOF 4
ENDMDL
