MODEL 1
REMARK VINA RESULT:      -8.4      0.000      0.000
REMARK  Name = 
REMARK  5 active torsions:
REMARK  status: ('A' for Active; 'I' for Inactive)
REMARK    1  A    between atoms: C_1  and  C_2
REMARK    2  A    between atoms: C_2  and  C_3
REMARK    3  A    between atoms: C_2  and  C_4
REMARK    4  A    between atoms: C_6  and  C_7
REMARK    5  A    between atoms: N_9  and  C_10
REMARK                            x       y       z     vdW  Elec       q    Type
REMARK                         _______ _______ _______ _____ _____    ______ ____
ROOT
ATOM      1  C   UNL     1       4.015   6.140  17.948  0.00  0.00    +0.000 A 
ATOM      2  C   UNL     1       3.690   7.421  17.546  0.00  0.00    +0.000 A 
ATOM      3  C   UNL     1       2.581   7.821  18.326  0.00  0.00    +0.000 A 
ATOM      4  N   UNL     1       2.200   6.840  19.155  0.00  0.00    +0.000 NA
ATOM      5  N   UNL     1       3.081   5.808  18.933  0.00  0.00    +0.000 N 
ATOM      6  C   UNL     1       2.973   4.609  19.724  0.00  0.00    +0.000 A 
ATOM      7  C   UNL     1       1.921   4.506  20.638  0.00  0.00    +0.000 A 
ATOM      8  C   UNL     1       1.870   3.406  21.490  0.00  0.00    +0.000 A 
ATOM      9  C   UNL     1       2.857   2.433  21.407  0.00  0.00    +0.000 A 
ATOM     10  C   UNL     1       3.841   2.585  20.450  0.00  0.00    +0.000 A 
ATOM     11  N   UNL     1       3.914   3.639  19.607  0.00  0.00    +0.000 NA
ENDROOT
BRANCH   3  12
ATOM     12  C   UNL     1       1.923   9.138  18.275  0.00  0.00    +0.000 C 
ATOM     13  O   UNL     1       2.260   9.968  17.438  0.00  0.00    +0.000 OA
ATOM     14  N   UNL     1       0.957   9.322  19.255  0.00  0.00    +0.000 N 
ATOM     15  H   UNL     1       0.886   8.569  19.933  0.00  0.00    +0.000 HD
BRANCH  14  16
ATOM     16  C   UNL     1       0.202  10.496  19.473  0.00  0.00    +0.000 A 
ATOM     17  C   UNL     1       0.537  11.457  20.436  0.00  0.00    +0.000 A 
ATOM     18  C   UNL     1      -0.275  12.575  20.647  0.00  0.00    +0.000 A 
ATOM     19  C   UNL     1      -1.427  12.741  19.890  0.00  0.00    +0.000 A 
ATOM     20  F   UNL     1      -2.212  13.804  20.117  0.00  0.00    +0.000 F 
ATOM     21  C   UNL     1      -1.761  11.817  18.910  0.00  0.00    +0.000 A 
ATOM     22  F   UNL     1      -2.874  11.988  18.182  0.00  0.00    +0.000 F 
ATOM     23  C   UNL     1      -0.945  10.709  18.696  0.00  0.00    +0.000 A 
ATOM     24  F   UNL     1      -1.281   9.816  17.750  0.00  0.00    +0.000 F 
ENDBRANCH  14  16
ENDBRANCH   3  12
BRANCH   1  26
ATOM     25  C   UNL     1       5.192   5.311  15.907  0.00  0.00    +0.000 C 
ATOM     26  C   UNL     1       5.117   5.243  17.434  0.00  0.00    +0.000 C 
ATOM     27  C   UNL     1       6.487   5.592  18.031  0.00  0.00    +0.000 C 
ENDBRANCH   1  26
TORSDOF 3
ENDMDL
MODEL 2
REMARK VINA RESULT:      -8.4      1.289      1.289
REMARK  Name = 
REMARK  5 active torsions:
REMARK  status: ('A' for Active; 'I' for Inactive)
REMARK    1  A    between atoms: C_1  and  C_2
REMARK    2  A    between atoms: C_2  and  C_3
REMARK    3  A    between atoms: C_2  and  C_4
REMARK    4  A    between atoms: C_6  and  C_7
REMARK    5  A    between atoms: N_9  and  C_10
REMARK                            x       y       z     vdW  Elec       q    Type
REMARK                         _______ _______ _______ _____ _____    ______ ____
ROOT
ATOM      1  C   UNL     1       4.274   6.340  17.341  0.00  0.00    +0.000 A 
ATOM      2  C   UNL     1       4.017   7.698  17.374  0.00  0.00    +0.000 A 
ATOM      3  C   UNL     1       2.709   7.850  17.887  0.00  0.00    +0.000 A 
ATOM      4  N   UNL     1       2.150   6.658  18.136  0.00  0.00    +0.000 NA
ATOM      5  N   UNL     1       3.109   5.727  17.811  0.00  0.00    +0.000 N 
ATOM      6  C   UNL     1       2.833   4.331  18.025  0.00  0.00    +0.000 A 
ATOM      7  C   UNL     1       1.565   3.964  18.483  0.00  0.00    +0.000 A 
ATOM      8  C   UNL     1       1.320   2.631  18.805  0.00  0.00    +0.000 A 
ATOM      9  C   UNL     1       2.336   1.696  18.655  0.00  0.00    +0.000 A 
ATOM     10  C   UNL     1       3.550   2.129  18.158  0.00  0.00    +0.000 A 
ATOM     11  N   UNL     1       3.815   3.414  17.834  0.00  0.00    +0.000 NA
ENDROOT
BRANCH   3  12
ATOM     12  C   UNL     1       2.029   9.131  18.143  0.00  0.00    +0.000 C 
ATOM     13  O   UNL     1       2.347  10.139  17.521  0.00  0.00    +0.000 OA
ATOM     14  N   UNL     1       1.067   9.067  19.141  0.00  0.00    +0.000 N 
ATOM     15  H   UNL     1       1.011   8.176  19.627  0.00  0.00    +0.000 HD
BRANCH  14  16
ATOM     16  C   UNL     1       0.294  10.146  19.627  0.00  0.00    +0.000 A 
ATOM     17  C   UNL     1       0.631  10.876  20.775  0.00  0.00    +0.000 A 
ATOM     18  C   UNL     1      -0.198  11.900  21.242  0.00  0.00    +0.000 A 
ATOM     19  C   UNL     1      -1.368  12.204  20.560  0.00  0.00    +0.000 A 
ATOM     20  F   UNL     1      -2.168  13.171  21.030  0.00  0.00    +0.000 F 
ATOM     21  C   UNL     1      -1.705  11.513  19.404  0.00  0.00    +0.000 A 
ATOM     22  F   UNL     1      -2.835  11.816  18.750  0.00  0.00    +0.000 F 
ATOM     23  C   UNL     1      -0.872  10.500  18.935  0.00  0.00    +0.000 A 
ATOM     24  F   UNL     1      -1.211   9.832  17.820  0.00  0.00    +0.000 F 
ENDBRANCH  14  16
ENDBRANCH   3  12
BRANCH   1  26
ATOM     25  C   UNL     1       5.512   5.476  15.352  0.00  0.00    +0.000 C 
ATOM     26  C   UNL     1       5.523   5.629  16.875  0.00  0.00    +0.000 C 
ATOM     27  C   UNL     1       6.807   6.348  17.310  0.00  0.00    +0.000 C 
ENDBRANCH   1  26
TORSDOF 3
ENDMDL
MODEL 3
REMARK VINA RESULT:      -8.3      1.565      3.435
REMARK  Name = 
REMARK  5 active torsions:
REMARK  status: ('A' for Active; 'I' for Inactive)
REMARK    1  A    between atoms: C_1  and  C_2
REMARK    2  A    between atoms: C_2  and  C_3
REMARK    3  A    between atoms: C_2  and  C_4
REMARK    4  A    between atoms: C_6  and  C_7
REMARK    5  A    between atoms: N_9  and  C_10
REMARK                            x       y       z     vdW  Elec       q    Type
REMARK                         _______ _______ _______ _____ _____    ______ ____
ROOT
ATOM      1  C   UNL     1       2.175   5.021  19.987  0.00  0.00    +0.000 A 
ATOM      2  C   UNL     1       1.479   5.926  20.766  0.00  0.00    +0.000 A 
ATOM      3  C   UNL     1       1.806   7.213  20.282  0.00  0.00    +0.000 A 
ATOM      4  N   UNL     1       2.685   7.137  19.274  0.00  0.00    +0.000 NA
ATOM      5  N   UNL     1       2.911   5.793  19.083  0.00  0.00    +0.000 N 
ATOM      6  C   UNL     1       3.779   5.371  18.016  0.00  0.00    +0.000 A 
ATOM      7  C   UNL     1       4.428   6.349  17.258  0.00  0.00    +0.000 A 
ATOM      8  C   UNL     1       5.179   5.961  16.151  0.00  0.00    +0.000 A 
ATOM      9  C   UNL     1       5.274   4.614  15.830  0.00  0.00    +0.000 A 
ATOM     10  C   UNL     1       4.637   3.703  16.651  0.00  0.00    +0.000 A 
ATOM     11  N   UNL     1       3.906   4.050  17.733  0.00  0.00    +0.000 NA
ENDROOT
BRANCH   3  12
ATOM     12  C   UNL     1       1.256   8.485  20.781  0.00  0.00    +0.000 C 
ATOM     13  O   UNL     1       1.073   8.654  21.981  0.00  0.00    +0.000 OA
ATOM     14  N   UNL     1       0.957   9.399  19.781  0.00  0.00    +0.000 N 
ATOM     15  H   UNL     1       1.071   9.050  18.833  0.00  0.00    +0.000 HD
BRANCH  14  16
ATOM     16  C   UNL     1       0.380  10.676  19.961  0.00  0.00    +0.000 A 
ATOM     17  C   UNL     1       1.055  11.746  20.562  0.00  0.00    +0.000 A 
ATOM     18  C   UNL     1       0.417  12.973  20.765  0.00  0.00    +0.000 A 
ATOM     19  C   UNL     1      -0.901  13.139  20.362  0.00  0.00    +0.000 A 
ATOM     20  F   UNL     1      -1.511  14.312  20.582  0.00  0.00    +0.000 F 
ATOM     21  C   UNL     1      -1.578  12.101  19.737  0.00  0.00    +0.000 A 
ATOM     22  F   UNL     1      -2.850  12.272  19.349  0.00  0.00    +0.000 F 
ATOM     23  C   UNL     1      -0.938  10.883  19.528  0.00  0.00    +0.000 A 
ATOM     24  F   UNL     1      -1.605   9.882  18.930  0.00  0.00    +0.000 F 
ENDBRANCH  14  16
ENDBRANCH   3  12
BRANCH   1  26
ATOM     25  C   UNL     1       2.244   3.071  21.546  0.00  0.00    +0.000 C 
ATOM     26  C   UNL     1       2.192   3.513  20.082  0.00  0.00    +0.000 C 
ATOM     27  C   UNL     1       0.982   2.868  19.394  0.00  0.00    +0.000 C 
ENDBRANCH   1  26
TORSDOF 3
ENDMDL
MODEL 4
REMARK VINA RESULT:      -8.1      1.875      3.655
REMARK  Name = 
REMARK  5 active torsions:
REMARK  status: ('A' for Active; 'I' for Inactive)
REMARK    1  A    between atoms: C_1  and  C_2
REMARK    2  A    between atoms: C_2  and  C_3
REMARK    3  A    between atoms: C_2  and  C_4
REMARK    4  A    between atoms: C_6  and  C_7
REMARK    5  A    between atoms: N_9  and  C_10
REMARK                            x       y       z     vdW  Elec       q    Type
REMARK                         _______ _______ _______ _____ _____    ______ ____
ROOT
ATOM      1  C   UNL     1       2.195   5.094  19.960  0.00  0.00    +0.000 A 
ATOM      2  C   UNL     1       1.522   6.054  20.691  0.00  0.00    +0.000 A 
ATOM      3  C   UNL     1       1.878   7.306  20.140  0.00  0.00    +0.000 A 
ATOM      4  N   UNL     1       2.753   7.157  19.137  0.00  0.00    +0.000 NA
ATOM      5  N   UNL     1       2.947   5.800  19.017  0.00  0.00    +0.000 N 
ATOM      6  C   UNL     1       3.803   5.303  17.972  0.00  0.00    +0.000 A 
ATOM      7  C   UNL     1       4.474   6.225  17.164  0.00  0.00    +0.000 A 
ATOM      8  C   UNL     1       5.213   5.762  16.078  0.00  0.00    +0.000 A 
ATOM      9  C   UNL     1       5.275   4.398  15.827  0.00  0.00    +0.000 A 
ATOM     10  C   UNL     1       4.618   3.547  16.695  0.00  0.00    +0.000 A 
ATOM     11  N   UNL     1       3.897   3.966  17.758  0.00  0.00    +0.000 NA
ENDROOT
BRANCH   3  12
ATOM     12  C   UNL     1       1.360   8.615  20.573  0.00  0.00    +0.000 C 
ATOM     13  O   UNL     1       1.268   8.884  21.766  0.00  0.00    +0.000 OA
ATOM     14  N   UNL     1       0.978   9.443  19.526  0.00  0.00    +0.000 N 
ATOM     15  H   UNL     1       1.021   9.016  18.605  0.00  0.00    +0.000 HD
BRANCH  14  16
ATOM     16  C   UNL     1       0.407  10.730  19.645  0.00  0.00    +0.000 A 
ATOM     17  C   UNL     1      -0.794  10.977  20.321  0.00  0.00    +0.000 A 
ATOM     18  C   UNL     1      -1.343  12.262  20.362  0.00  0.00    +0.000 A 
ATOM     19  C   UNL     1      -0.688  13.311  19.729  0.00  0.00    +0.000 A 
ATOM     20  F   UNL     1      -1.235  14.535  19.755  0.00  0.00    +0.000 F 
ATOM     21  C   UNL     1       0.518  13.093  19.080  0.00  0.00    +0.000 A 
ATOM     22  F   UNL     1       1.145  14.112  18.475  0.00  0.00    +0.000 F 
ATOM     23  C   UNL     1       1.067  11.813  19.049  0.00  0.00    +0.000 A 
ATOM     24  F   UNL     1       2.233  11.612  18.410  0.00  0.00    +0.000 F 
ENDBRANCH  14  16
ENDBRANCH   3  12
BRANCH   1  26
ATOM     25  C   UNL     1       2.279   3.226  21.615  0.00  0.00    +0.000 C 
ATOM     26  C   UNL     1       2.176   3.593  20.133  0.00  0.00    +0.000 C 
ATOM     27  C   UNL     1       0.921   2.948  19.530  0.00  0.00    +0.000 C 
ENDBRANCH   1  26
TORSDOF 3
ENDMDL
MODEL 5
REMARK VINA RESULT:      -8.1      1.680      2.064
REMARK  Name = 
REMARK  5 active torsions:
REMARK  status: ('A' for Active; 'I' for Inactive)
REMARK    1  A    between atoms: C_1  and  C_2
REMARK    2  A    between atoms: C_2  and  C_3
REMARK    3  A    between atoms: C_2  and  C_4
REMARK    4  A    between atoms: C_6  and  C_7
REMARK    5  A    between atoms: N_9  and  C_10
REMARK                            x       y       z     vdW  Elec       q    Type
REMARK                         _______ _______ _______ _____ _____    ______ ____
ROOT
ATOM      1  C   UNL     1       4.217   6.408  17.423  0.00  0.00    +0.000 A 
ATOM      2  C   UNL     1       3.927   7.759  17.452  0.00  0.00    +0.000 A 
ATOM      3  C   UNL     1       2.597   7.879  17.914  0.00  0.00    +0.000 A 
ATOM      4  N   UNL     1       2.056   6.674  18.137  0.00  0.00    +0.000 NA
ATOM      5  N   UNL     1       3.048   5.766  17.844  0.00  0.00    +0.000 N 
ATOM      6  C   UNL     1       2.797   4.363  18.040  0.00  0.00    +0.000 A 
ATOM      7  C   UNL     1       1.521   3.964  18.448  0.00  0.00    +0.000 A 
ATOM      8  C   UNL     1       1.294   2.625  18.753  0.00  0.00    +0.000 A 
ATOM      9  C   UNL     1       2.335   1.714  18.638  0.00  0.00    +0.000 A 
ATOM     10  C   UNL     1       3.558   2.177  18.190  0.00  0.00    +0.000 A 
ATOM     11  N   UNL     1       3.806   3.469  17.882  0.00  0.00    +0.000 NA
ENDROOT
BRANCH   3  12
ATOM     12  C   UNL     1       1.879   9.143  18.151  0.00  0.00    +0.000 C 
ATOM     13  O   UNL     1       2.228  10.171  17.581  0.00  0.00    +0.000 OA
ATOM     14  N   UNL     1       0.844   9.038  19.070  0.00  0.00    +0.000 N 
ATOM     15  H   UNL     1       0.766   8.134  19.526  0.00  0.00    +0.000 HD
BRANCH  14  16
ATOM     16  C   UNL     1       0.019  10.092  19.522  0.00  0.00    +0.000 A 
ATOM     17  C   UNL     1      -1.005  10.652  18.748  0.00  0.00    +0.000 A 
ATOM     18  C   UNL     1      -1.757  11.730  19.224  0.00  0.00    +0.000 A 
ATOM     19  C   UNL     1      -1.491  12.252  20.483  0.00  0.00    +0.000 A 
ATOM     20  F   UNL     1      -2.202  13.300  20.921  0.00  0.00    +0.000 F 
ATOM     21  C   UNL     1      -0.502  11.692  21.279  0.00  0.00    +0.000 A 
ATOM     22  F   UNL     1      -0.254  12.200  22.494  0.00  0.00    +0.000 F 
ATOM     23  C   UNL     1       0.240  10.612  20.805  0.00  0.00    +0.000 A 
ATOM     24  F   UNL     1       1.201  10.083  21.581  0.00  0.00    +0.000 F 
ENDBRANCH  14  16
ENDBRANCH   3  12
BRANCH   1  26
ATOM     25  C   UNL     1       5.536   5.557  15.481  0.00  0.00    +0.000 C 
ATOM     26  C   UNL     1       5.498   5.728  17.001  0.00  0.00    +0.000 C 
ATOM     27  C   UNL     1       6.748   6.489  17.464  0.00  0.00    +0.000 C 
ENDBRANCH   1  26
TORSDOF 3
ENDMDL
MODEL 6
REMARK VINA RESULT:      -8.1      1.067      1.602
REMARK  Name = 
REMARK  5 active torsions:
REMARK  status: ('A' for Active; 'I' for Inactive)
REMARK    1  A    between atoms: C_1  and  C_2
REMARK    2  A    between atoms: C_2  and  C_3
REMARK    3  A    between atoms: C_2  and  C_4
REMARK    4  A    between atoms: C_6  and  C_7
REMARK    5  A    between atoms: N_9  and  C_10
REMARK                            x       y       z     vdW  Elec       q    Type
REMARK                         _______ _______ _______ _____ _____    ______ ____
ROOT
ATOM      1  C   UNL     1       3.964   6.177  17.948  0.00  0.00    +0.000 A 
ATOM      2  C   UNL     1       3.641   7.461  17.552  0.00  0.00    +0.000 A 
ATOM      3  C   UNL     1       2.529   7.857  18.330  0.00  0.00    +0.000 A 
ATOM      4  N   UNL     1       2.143   6.872  19.151  0.00  0.00    +0.000 NA
ATOM      5  N   UNL     1       3.025   5.840  18.927  0.00  0.00    +0.000 N 
ATOM      6  C   UNL     1       2.914   4.637  19.711  0.00  0.00    +0.000 A 
ATOM      7  C   UNL     1       1.858   4.530  20.620  0.00  0.00    +0.000 A 
ATOM      8  C   UNL     1       1.802   3.425  21.466  0.00  0.00    +0.000 A 
ATOM      9  C   UNL     1       2.789   2.452  21.382  0.00  0.00    +0.000 A 
ATOM     10  C   UNL     1       3.778   2.609  20.430  0.00  0.00    +0.000 A 
ATOM     11  N   UNL     1       3.855   3.667  19.593  0.00  0.00    +0.000 NA
ENDROOT
BRANCH   3  12
ATOM     12  C   UNL     1       1.872   9.174  18.282  0.00  0.00    +0.000 C 
ATOM     13  O   UNL     1       2.273  10.042  17.515  0.00  0.00    +0.000 OA
ATOM     14  N   UNL     1       0.827   9.313  19.185  0.00  0.00    +0.000 N 
ATOM     15  H   UNL     1       0.702   8.530  19.821  0.00  0.00    +0.000 HD
BRANCH  14  16
ATOM     16  C   UNL     1       0.051  10.476  19.392  0.00  0.00    +0.000 A 
ATOM     17  C   UNL     1      -1.003  10.855  18.550  0.00  0.00    +0.000 A 
ATOM     18  C   UNL     1      -1.704  12.044  18.770  0.00  0.00    +0.000 A 
ATOM     19  C   UNL     1      -1.358  12.860  19.839  0.00  0.00    +0.000 A 
ATOM     20  F   UNL     1      -2.021  14.009  20.027  0.00  0.00    +0.000 F 
ATOM     21  C   UNL     1      -0.338  12.487  20.703  0.00  0.00    +0.000 A 
ATOM     22  F   UNL     1      -0.013  13.280  21.734  0.00  0.00    +0.000 F 
ATOM     23  C   UNL     1       0.353  11.297  20.487  0.00  0.00    +0.000 A 
ATOM     24  F   UNL     1       1.344  10.950  21.324  0.00  0.00    +0.000 F 
ENDBRANCH  14  16
ENDBRANCH   3  12
BRANCH   1  26
ATOM     25  C   UNL     1       5.185   5.399  15.913  0.00  0.00    +0.000 C 
ATOM     26  C   UNL     1       5.068   5.283  17.434  0.00  0.00    +0.000 C 
ATOM     27  C   UNL     1       6.425   5.593  18.079  0.00  0.00    +0.000 C 
ENDBRANCH   1  26
TORSDOF 3
ENDMDL
MODEL 7
REMARK VINA RESULT:      -8.0      3.761      8.053
REMARK  Name = 
REMARK  5 active torsions:
REMARK  status: ('A' for Active; 'I' for Inactive)
REMARK    1  A    between atoms: C_1  and  C_2
REMARK    2  A    between atoms: C_2  and  C_3
REMARK    3  A    between atoms: C_2  and  C_4
REMARK    4  A    between atoms: C_6  and  C_7
REMARK    5  A    between atoms: N_9  and  C_10
REMARK                            x       y       z     vdW  Elec       q    Type
REMARK                         _______ _______ _______ _____ _____    ______ ____
ROOT
ATOM      1  C   UNL     1       1.289  11.300  18.934  0.00  0.00    +0.000 A 
ATOM      2  C   UNL     1       1.947  10.433  18.082  0.00  0.00    +0.000 A 
ATOM      3  C   UNL     1       1.875   9.151  18.672  0.00  0.00    +0.000 A 
ATOM      4  N   UNL     1       1.238   9.200  19.849  0.00  0.00    +0.000 NA
ATOM      5  N   UNL     1       0.869  10.515  20.013  0.00  0.00    +0.000 N 
ATOM      6  C   UNL     1       0.102  10.891  21.172  0.00  0.00    +0.000 A 
ATOM      7  C   UNL     1      -0.172   9.915  22.134  0.00  0.00    +0.000 A 
ATOM      8  C   UNL     1      -1.008  10.233  23.202  0.00  0.00    +0.000 A 
ATOM      9  C   UNL     1      -1.542  11.511  23.293  0.00  0.00    +0.000 A 
ATOM     10  C   UNL     1      -1.192  12.433  22.324  0.00  0.00    +0.000 A 
ATOM     11  N   UNL     1      -0.380  12.154  21.280  0.00  0.00    +0.000 NA
ENDROOT
BRANCH   3  12
ATOM     12  C   UNL     1       2.402   7.905  18.088  0.00  0.00    +0.000 C 
ATOM     13  O   UNL     1       2.938   7.913  16.986  0.00  0.00    +0.000 OA
ATOM     14  N   UNL     1       2.196   6.783  18.879  0.00  0.00    +0.000 N 
ATOM     15  H   UNL     1       1.637   6.943  19.713  0.00  0.00    +0.000 HD
BRANCH  14  16
ATOM     16  C   UNL     1       2.552   5.455  18.554  0.00  0.00    +0.000 A 
ATOM     17  C   UNL     1       1.762   4.623  17.752  0.00  0.00    +0.000 A 
ATOM     18  C   UNL     1       2.135   3.299  17.505  0.00  0.00    +0.000 A 
ATOM     19  C   UNL     1       3.307   2.800  18.057  0.00  0.00    +0.000 A 
ATOM     20  F   UNL     1       3.645   1.522  17.834  0.00  0.00    +0.000 F 
ATOM     21  C   UNL     1       4.120   3.617  18.830  0.00  0.00    +0.000 A 
ATOM     22  F   UNL     1       5.252   3.127  19.357  0.00  0.00    +0.000 F 
ATOM     23  C   UNL     1       3.750   4.939  19.067  0.00  0.00    +0.000 A 
ATOM     24  F   UNL     1       4.541   5.719  19.823  0.00  0.00    +0.000 F 
ENDBRANCH  14  16
ENDBRANCH   3  12
BRANCH   1  26
ATOM     25  C   UNL     1       2.242  13.419  18.021  0.00  0.00    +0.000 C 
ATOM     26  C   UNL     1       1.077  12.788  18.786  0.00  0.00    +0.000 C 
ATOM     27  C   UNL     1      -0.244  13.126  18.081  0.00  0.00    +0.000 C 
ENDBRANCH   1  26
TORSDOF 3
ENDMDL
MODEL 8
REMARK VINA RESULT:      -7.8      1.253      3.285
REMARK  Name = 
REMARK  5 active torsions:
REMARK  status: ('A' for Active; 'I' for Inactive)
REMARK    1  A    between atoms: C_1  and  C_2
REMARK    2  A    between atoms: C_2  and  C_3
REMARK    3  A    between atoms: C_2  and  C_4
REMARK    4  A    between atoms: C_6  and  C_7
REMARK    5  A    between atoms: N_9  and  C_10
REMARK                            x       y       z     vdW  Elec       q    Type
REMARK                         _______ _______ _______ _____ _____    ______ ____
ROOT
ATOM      1  C   UNL     1       2.682   5.776  18.736  0.00  0.00    +0.000 A 
ATOM      2  C   UNL     1       1.947   6.877  19.133  0.00  0.00    +0.000 A 
ATOM      3  C   UNL     1       2.361   7.956  18.320  0.00  0.00    +0.000 A 
ATOM      4  N   UNL     1       3.328   7.575  17.474  0.00  0.00    +0.000 NA
ATOM      5  N   UNL     1       3.524   6.235  17.719  0.00  0.00    +0.000 N 
ATOM      6  C   UNL     1       4.473   5.506  16.919  0.00  0.00    +0.000 A 
ATOM      7  C   UNL     1       5.223   6.207  15.971  0.00  0.00    +0.000 A 
ATOM      8  C   UNL     1       6.060   5.499  15.112  0.00  0.00    +0.000 A 
ATOM      9  C   UNL     1       6.139   4.118  15.221  0.00  0.00    +0.000 A 
ATOM     10  C   UNL     1       5.397   3.501  16.211  0.00  0.00    +0.000 A 
ATOM     11  N   UNL     1       4.580   4.161  17.061  0.00  0.00    +0.000 NA
ENDROOT
BRANCH   3  12
ATOM     12  C   UNL     1       1.812   9.322  18.357  0.00  0.00    +0.000 C 
ATOM     13  O   UNL     1       2.191  10.166  17.554  0.00  0.00    +0.000 OA
ATOM     14  N   UNL     1       0.892   9.530  19.376  0.00  0.00    +0.000 N 
ATOM     15  H   UNL     1       0.779   8.750  20.017  0.00  0.00    +0.000 HD
BRANCH  14  16
ATOM     16  C   UNL     1       0.242  10.747  19.679  0.00  0.00    +0.000 A 
ATOM     17  C   UNL     1       0.843  11.776  20.417  0.00  0.00    +0.000 A 
ATOM     18  C   UNL     1       0.135  12.939  20.733  0.00  0.00    +0.000 A 
ATOM     19  C   UNL     1      -1.179  13.082  20.308  0.00  0.00    +0.000 A 
ATOM     20  F   UNL     1      -1.857  14.191  20.637  0.00  0.00    +0.000 F 
ATOM     21  C   UNL     1      -1.783  12.089  19.550  0.00  0.00    +0.000 A 
ATOM     22  F   UNL     1      -3.051  12.238  19.141  0.00  0.00    +0.000 F 
ATOM     23  C   UNL     1      -1.072  10.935  19.228  0.00  0.00    +0.000 A 
ATOM     24  F   UNL     1      -1.668   9.976  18.500  0.00  0.00    +0.000 F 
ENDBRANCH  14  16
ENDBRANCH   3  12
BRANCH   1  26
ATOM     25  C   UNL     1       2.490   4.388  20.803  0.00  0.00    +0.000 C 
ATOM     26  C   UNL     1       2.637   4.367  19.280  0.00  0.00    +0.000 C 
ATOM     27  C   UNL     1       1.505   3.535  18.666  0.00  0.00    +0.000 C 
ENDBRANCH   1  26
TORSDOF 3
ENDMDL
MODEL 9
REMARK VINA RESULT:      -7.8      2.141      3.892
REMARK  Name = 
REMARK  5 active torsions:
REMARK  status: ('A' for Active; 'I' for Inactive)
REMARK    1  A    between atoms: C_1  and  C_2
REMARK    2  A    between atoms: C_2  and  C_3
REMARK    3  A    between atoms: C_2  and  C_4
REMARK    4  A    between atoms: C_6  and  C_7
REMARK    5  A    between atoms: N_9  and  C_10
REMARK                            x       y       z     vdW  Elec       q    Type
REMARK                         _______ _______ _______ _____ _____    ______ ____
ROOT
ATOM      1  C   UNL     1       2.875   5.104  18.656  0.00  0.00    +0.000 A 
ATOM      2  C   UNL     1       2.098   6.076  19.259  0.00  0.00    +0.000 A 
ATOM      3  C   UNL     1       2.437   7.303  18.647  0.00  0.00    +0.000 A 
ATOM      4  N   UNL     1       3.398   7.132  17.729  0.00  0.00    +0.000 NA
ATOM      5  N   UNL     1       3.666   5.783  17.725  0.00  0.00    +0.000 N 
ATOM      6  C   UNL     1       4.627   5.261  16.789  0.00  0.00    +0.000 A 
ATOM      7  C   UNL     1       5.316   6.159  15.970  0.00  0.00    +0.000 A 
ATOM      8  C   UNL     1       6.163   5.663  14.982  0.00  0.00    +0.000 A 
ATOM      9  C   UNL     1       6.312   4.290  14.838  0.00  0.00    +0.000 A 
ATOM     10  C   UNL     1       5.628   3.467  15.713  0.00  0.00    +0.000 A 
ATOM     11  N   UNL     1       4.804   3.920  16.683  0.00  0.00    +0.000 NA
ENDROOT
BRANCH   3  12
ATOM     12  C   UNL     1       1.823   8.609  18.941  0.00  0.00    +0.000 C 
ATOM     13  O   UNL     1       1.806   9.493  18.091  0.00  0.00    +0.000 OA
ATOM     14  N   UNL     1       1.327   8.720  20.233  0.00  0.00    +0.000 N 
ATOM     15  H   UNL     1       1.525   7.927  20.837  0.00  0.00    +0.000 HD
BRANCH  14  16
ATOM     16  C   UNL     1       0.730   9.866  20.803  0.00  0.00    +0.000 A 
ATOM     17  C   UNL     1       1.048  11.173  20.411  0.00  0.00    +0.000 A 
ATOM     18  C   UNL     1       0.466  12.274  21.046  0.00  0.00    +0.000 A 
ATOM     19  C   UNL     1      -0.444  12.073  22.076  0.00  0.00    +0.000 A 
ATOM     20  F   UNL     1      -0.979  13.135  22.694  0.00  0.00    +0.000 F 
ATOM     21  C   UNL     1      -0.796  10.786  22.458  0.00  0.00    +0.000 A 
ATOM     22  F   UNL     1      -1.678  10.602  23.451  0.00  0.00    +0.000 F 
ATOM     23  C   UNL     1      -0.222   9.691  21.817  0.00  0.00    +0.000 A 
ATOM     24  F   UNL     1      -0.564   8.450  22.201  0.00  0.00    +0.000 F 
ENDBRANCH  14  16
ENDBRANCH   3  12
BRANCH   1  26
ATOM     25  C   UNL     1       2.878   3.362  20.446  0.00  0.00    +0.000 C 
ATOM     26  C   UNL     1       2.914   3.621  18.938  0.00  0.00    +0.000 C 
ATOM     27  C   UNL     1       1.766   2.863  18.259  0.00  0.00    +0.000 C 
ENDBRANCH   1  26
TORSDOF 3
ENDMDL
