MODEL 1
REMARK VINA RESULT:      -9.1      0.000      0.000
REMARK  Name = 
REMARK  9 active torsions:
REMARK  status: ('A' for Active; 'I' for Inactive)
REMARK    1  A    between atoms: C_1  and  C_2
REMARK    2  A    between atoms: C_5  and  C_6
REMARK    3  A    between atoms: C_10  and  C_11
REMARK    4  A    between atoms: C_14  and  C_15
REMARK    5  A    between atoms: C_21  and  C_22
REMARK    6  A    between atoms: C_24  and  C_25
REMARK    7  A    between atoms: C_25  and  C_26
REMARK    8  A    between atoms: C_25  and  O_27
REMARK    9  A    between atoms: C_29  and  C_30
REMARK                            x       y       z     vdW  Elec       q    Type
REMARK                         _______ _______ _______ _____ _____    ______ ____
ROOT
ATOM      1  C   UNL     1       3.591   2.440  18.094  0.00  0.00    +0.000 C 
ATOM      2  C   UNL     1       3.219   3.815  18.583  0.00  0.00    +0.000 A 
ATOM      3  C   UNL     1       1.968   3.933  19.213  0.00  0.00    +0.000 A 
ATOM      4  C   UNL     1       1.533   5.151  19.721  0.00  0.00    +0.000 A 
ATOM      5  C   UNL     1       2.358   6.272  19.656  0.00  0.00    +0.000 A 
ATOM      6  C   UNL     1       3.589   6.176  18.986  0.00  0.00    +0.000 A 
ATOM      7  C   UNL     1       4.034   4.963  18.418  0.00  0.00    +0.000 A 
ENDROOT
BRANCH   7   8
ATOM      8  C   UNL     1       5.296   4.941  17.652  0.00  0.00    +0.000 A 
ATOM      9  N   UNL     1       5.352   4.697  16.294  0.00  0.00    +0.000 N 
ATOM     10  C   UNL     1       6.653   4.691  15.878  0.00  0.00    +0.000 A 
ATOM     11  N   UNL     1       7.443   5.029  16.873  0.00  0.00    +0.000 NA
ATOM     12  C   UNL     1       6.626   5.213  17.966  0.00  0.00    +0.000 A 
ATOM     13  C   UNL     1       7.249   5.630  19.244  0.00  0.00    +0.000 C 
ATOM     14  H   UNL     1       4.573   4.503  15.682  0.00  0.00    +0.000 HD
BRANCH  10  15
ATOM     15  C   UNL     1       7.036   4.372  14.468  0.00  0.00    +0.000 C 
ATOM     16  C   UNL     1       5.830   4.039  13.600  0.00  0.00    +0.000 C 
BRANCH  15  17
ATOM     17  O   UNL     1       7.712   5.519  13.940  0.00  0.00    +0.000 OA
ATOM     18  H   UNL     1       7.062   6.005  13.402  0.00  0.00    +0.000 HD
ENDBRANCH  15  17
ENDBRANCH  10  15
ENDBRANCH   7   8
BRANCH   5  19
ATOM     19  C   UNL     1       1.905   7.596  20.177  0.00  0.00    +0.000 C 
ATOM     20  O   UNL     1       1.770   7.754  21.387  0.00  0.00    +0.000 OA
ATOM     21  N   UNL     1       1.691   8.619  19.275  0.00  0.00    +0.000 N 
ATOM     22  C   UNL     1       1.223   9.957  19.591  0.00  0.00    +0.000 C 
ATOM     23  C   UNL     1       0.539   9.987  18.209  0.00  0.00    +0.000 C 
ATOM     24  C   UNL     1       1.137   8.607  17.927  0.00  0.00    +0.000 C 
BRANCH  23  25
ATOM     25  C   UNL     1      -1.030  10.234  18.135  0.00  0.00    +0.000 A 
ATOM     26  C   UNL     1      -1.718  11.053  19.051  0.00  0.00    +0.000 A 
ATOM     27  C   UNL     1      -2.989  11.558  18.764  0.00  0.00    +0.000 A 
ATOM     28  C   UNL     1      -3.620  11.212  17.572  0.00  0.00    +0.000 A 
ATOM     29  C   UNL     1      -3.045  10.250  16.745  0.00  0.00    +0.000 A 
ATOM     30  C   UNL     1      -1.773   9.755  17.037  0.00  0.00    +0.000 A 
BRANCH  28  31
ATOM     31  C   UNL     1      -4.789  11.920  17.146  0.00  0.00    +0.000 C 
ATOM     32  N   UNL     1      -5.741  12.451  16.745  0.00  0.00    +0.000 NA
ENDBRANCH  28  31
ENDBRANCH  23  25
ENDBRANCH   5  19
TORSDOF 6
ENDMDL
MODEL 2
REMARK VINA RESULT:      -9.0      0.617      1.041
REMARK  Name = 
REMARK  9 active torsions:
REMARK  status: ('A' for Active; 'I' for Inactive)
REMARK    1  A    between atoms: C_1  and  C_2
REMARK    2  A    between atoms: C_5  and  C_6
REMARK    3  A    between atoms: C_10  and  C_11
REMARK    4  A    between atoms: C_14  and  C_15
REMARK    5  A    between atoms: C_21  and  C_22
REMARK    6  A    between atoms: C_24  and  C_25
REMARK    7  A    between atoms: C_25  and  C_26
REMARK    8  A    between atoms: C_25  and  O_27
REMARK    9  A    between atoms: C_29  and  C_30
REMARK                            x       y       z     vdW  Elec       q    Type
REMARK                         _______ _______ _______ _____ _____    ______ ____
ROOT
ATOM      1  C   UNL     1       3.513   2.367  17.742  0.00  0.00    +0.000 C 
ATOM      2  C   UNL     1       3.127   3.706  18.312  0.00  0.00    +0.000 A 
ATOM      3  C   UNL     1       1.850   3.789  18.894  0.00  0.00    +0.000 A 
ATOM      4  C   UNL     1       1.399   4.970  19.470  0.00  0.00    +0.000 A 
ATOM      5  C   UNL     1       2.231   6.086  19.522  0.00  0.00    +0.000 A 
ATOM      6  C   UNL     1       3.490   6.028  18.902  0.00  0.00    +0.000 A 
ATOM      7  C   UNL     1       3.954   4.856  18.267  0.00  0.00    +0.000 A 
ENDROOT
BRANCH   7   8
ATOM      8  C   UNL     1       5.248   4.879  17.556  0.00  0.00    +0.000 A 
ATOM      9  N   UNL     1       5.371   4.651  16.200  0.00  0.00    +0.000 N 
ATOM     10  C   UNL     1       6.688   4.688  15.841  0.00  0.00    +0.000 A 
ATOM     11  N   UNL     1       7.423   5.038  16.873  0.00  0.00    +0.000 NA
ATOM     12  C   UNL     1       6.555   5.187  17.932  0.00  0.00    +0.000 A 
ATOM     13  C   UNL     1       7.108   5.609  19.239  0.00  0.00    +0.000 C 
ATOM     14  H   UNL     1       4.625   4.441  15.553  0.00  0.00    +0.000 HD
BRANCH  10  15
ATOM     15  C   UNL     1       7.142   4.396  14.447  0.00  0.00    +0.000 C 
ATOM     16  C   UNL     1       5.994   3.973  13.541  0.00  0.00    +0.000 C 
BRANCH  15  17
ATOM     17  O   UNL     1       7.749   5.588  13.937  0.00  0.00    +0.000 OA
ATOM     18  H   UNL     1       8.578   5.317  13.504  0.00  0.00    +0.000 HD
ENDBRANCH  15  17
ENDBRANCH  10  15
ENDBRANCH   7   8
BRANCH   5  19
ATOM     19  C   UNL     1       1.763   7.372  20.118  0.00  0.00    +0.000 C 
ATOM     20  O   UNL     1       1.391   7.396  21.287  0.00  0.00    +0.000 OA
ATOM     21  N   UNL     1       1.802   8.511  19.337  0.00  0.00    +0.000 N 
ATOM     22  C   UNL     1       1.362   9.837  19.733  0.00  0.00    +0.000 C 
ATOM     23  C   UNL     1       0.981  10.092  18.259  0.00  0.00    +0.000 C 
ATOM     24  C   UNL     1       1.538   8.708  17.918  0.00  0.00    +0.000 C 
BRANCH  23  25
ATOM     25  C   UNL     1      -0.521  10.482  17.912  0.00  0.00    +0.000 A 
ATOM     26  C   UNL     1      -1.370   9.650  17.157  0.00  0.00    +0.000 A 
ATOM     27  C   UNL     1      -2.758   9.815  17.180  0.00  0.00    +0.000 A 
ATOM     28  C   UNL     1      -3.322  10.850  17.922  0.00  0.00    +0.000 A 
ATOM     29  C   UNL     1      -2.494  11.799  18.514  0.00  0.00    +0.000 A 
ATOM     30  C   UNL     1      -1.109  11.624  18.490  0.00  0.00    +0.000 A 
BRANCH  28  31
ATOM     31  C   UNL     1      -4.732  10.872  18.169  0.00  0.00    +0.000 C 
ATOM     32  N   UNL     1      -5.886  10.865  18.304  0.00  0.00    +0.000 NA
ENDBRANCH  28  31
ENDBRANCH  23  25
ENDBRANCH   5  19
TORSDOF 6
ENDMDL
MODEL 3
REMARK VINA RESULT:      -8.5      1.041      1.381
REMARK  Name = 
REMARK  9 active torsions:
REMARK  status: ('A' for Active; 'I' for Inactive)
REMARK    1  A    between atoms: C_1  and  C_2
REMARK    2  A    between atoms: C_5  and  C_6
REMARK    3  A    between atoms: C_10  and  C_11
REMARK    4  A    between atoms: C_14  and  C_15
REMARK    5  A    between atoms: C_21  and  C_22
REMARK    6  A    between atoms: C_24  and  C_25
REMARK    7  A    between atoms: C_25  and  C_26
REMARK    8  A    between atoms: C_25  and  O_27
REMARK    9  A    between atoms: C_29  and  C_30
REMARK                            x       y       z     vdW  Elec       q    Type
REMARK                         _______ _______ _______ _____ _____    ______ ____
ROOT
ATOM      1  C   UNL     1       3.189   2.642  19.131  0.00  0.00    +0.000 C 
ATOM      2  C   UNL     1       2.814   4.068  19.435  0.00  0.00    +0.000 A 
ATOM      3  C   UNL     1       1.649   4.254  20.200  0.00  0.00    +0.000 A 
ATOM      4  C   UNL     1       1.221   5.527  20.557  0.00  0.00    +0.000 A 
ATOM      5  C   UNL     1       1.973   6.644  20.201  0.00  0.00    +0.000 A 
ATOM      6  C   UNL     1       3.112   6.472  19.396  0.00  0.00    +0.000 A 
ATOM      7  C   UNL     1       3.542   5.195  18.978  0.00  0.00    +0.000 A 
ENDROOT
BRANCH   7   8
ATOM      8  C   UNL     1       4.695   5.081  18.063  0.00  0.00    +0.000 A 
ATOM      9  N   UNL     1       4.564   4.914  16.698  0.00  0.00    +0.000 N 
ATOM     10  C   UNL     1       5.798   4.791  16.126  0.00  0.00    +0.000 A 
ATOM     11  N   UNL     1       6.731   4.979  17.032  0.00  0.00    +0.000 NA
ATOM     12  C   UNL     1       6.075   5.185  18.225  0.00  0.00    +0.000 A 
ATOM     13  C   UNL     1       6.886   5.453  19.434  0.00  0.00    +0.000 C 
ATOM     14  H   UNL     1       3.701   4.845  16.178  0.00  0.00    +0.000 HD
BRANCH  10  15
ATOM     15  C   UNL     1       5.974   4.518  14.667  0.00  0.00    +0.000 C 
ATOM     16  C   UNL     1       7.230   5.168  14.103  0.00  0.00    +0.000 C 
BRANCH  15  17
ATOM     17  O   UNL     1       6.048   3.097  14.504  0.00  0.00    +0.000 OA
ATOM     18  H   UNL     1       6.987   2.853  14.588  0.00  0.00    +0.000 HD
ENDBRANCH  15  17
ENDBRANCH  10  15
ENDBRANCH   7   8
BRANCH   5  19
ATOM     19  C   UNL     1       1.525   8.023  20.556  0.00  0.00    +0.000 C 
ATOM     20  O   UNL     1       1.230   8.281  21.719  0.00  0.00    +0.000 OA
ATOM     21  N   UNL     1       1.495   8.981  19.562  0.00  0.00    +0.000 N 
ATOM     22  C   UNL     1       1.061  10.359  19.711  0.00  0.00    +0.000 C 
ATOM     23  C   UNL     1       0.580  10.310  18.246  0.00  0.00    +0.000 C 
ATOM     24  C   UNL     1       1.135   8.888  18.153  0.00  0.00    +0.000 C 
BRANCH  23  25
ATOM     25  C   UNL     1      -0.947  10.619  17.930  0.00  0.00    +0.000 A 
ATOM     26  C   UNL     1      -1.743   9.786  17.120  0.00  0.00    +0.000 A 
ATOM     27  C   UNL     1      -3.139   9.852  17.157  0.00  0.00    +0.000 A 
ATOM     28  C   UNL     1      -3.767  10.791  17.970  0.00  0.00    +0.000 A 
ATOM     29  C   UNL     1      -3.003  11.752  18.626  0.00  0.00    +0.000 A 
ATOM     30  C   UNL     1      -1.609  11.675  18.588  0.00  0.00    +0.000 A 
BRANCH  28  31
ATOM     31  C   UNL     1      -5.174  10.699  18.221  0.00  0.00    +0.000 C 
ATOM     32  N   UNL     1      -6.315  10.693  18.438  0.00  0.00    +0.000 NA
ENDBRANCH  28  31
ENDBRANCH  23  25
ENDBRANCH   5  19
TORSDOF 6
ENDMDL
MODEL 4
REMARK VINA RESULT:      -8.2      2.996      3.801
REMARK  Name = 
REMARK  9 active torsions:
REMARK  status: ('A' for Active; 'I' for Inactive)
REMARK    1  A    between atoms: C_1  and  C_2
REMARK    2  A    between atoms: C_5  and  C_6
REMARK    3  A    between atoms: C_10  and  C_11
REMARK    4  A    between atoms: C_14  and  C_15
REMARK    5  A    between atoms: C_21  and  C_22
REMARK    6  A    between atoms: C_24  and  C_25
REMARK    7  A    between atoms: C_25  and  C_26
REMARK    8  A    between atoms: C_25  and  O_27
REMARK    9  A    between atoms: C_29  and  C_30
REMARK                            x       y       z     vdW  Elec       q    Type
REMARK                         _______ _______ _______ _____ _____    ______ ____
ROOT
ATOM      1  C   UNL     1       4.881   4.284  19.433  0.00  0.00    +0.000 C 
ATOM      2  C   UNL     1       4.089   5.502  19.037  0.00  0.00    +0.000 A 
ATOM      3  C   UNL     1       2.931   5.762  19.791  0.00  0.00    +0.000 A 
ATOM      4  C   UNL     1       2.137   6.871  19.526  0.00  0.00    +0.000 A 
ATOM      5  C   UNL     1       2.506   7.776  18.533  0.00  0.00    +0.000 A 
ATOM      6  C   UNL     1       3.635   7.500  17.744  0.00  0.00    +0.000 A 
ATOM      7  C   UNL     1       4.432   6.355  17.958  0.00  0.00    +0.000 A 
ENDROOT
BRANCH   7   8
ATOM      8  C   UNL     1       5.555   6.071  17.043  0.00  0.00    +0.000 A 
ATOM      9  N   UNL     1       5.414   5.351  15.873  0.00  0.00    +0.000 N 
ATOM     10  C   UNL     1       6.630   5.208  15.267  0.00  0.00    +0.000 A 
ATOM     11  N   UNL     1       7.539   5.893  15.924  0.00  0.00    +0.000 NA
ATOM     12  C   UNL     1       6.895   6.452  17.005  0.00  0.00    +0.000 A 
ATOM     13  C   UNL     1       7.679   7.311  17.922  0.00  0.00    +0.000 C 
ATOM     14  H   UNL     1       4.564   4.940  15.516  0.00  0.00    +0.000 HD
BRANCH  10  15
ATOM     15  C   UNL     1       6.807   4.405  14.020  0.00  0.00    +0.000 C 
ATOM     16  C   UNL     1       5.479   4.013  13.388  0.00  0.00    +0.000 C 
BRANCH  15  17
ATOM     17  O   UNL     1       7.564   5.202  13.102  0.00  0.00    +0.000 OA
ATOM     18  H   UNL     1       6.922   5.652  12.525  0.00  0.00    +0.000 HD
ENDBRANCH  15  17
ENDBRANCH  10  15
ENDBRANCH   7   8
BRANCH   5  19
ATOM     19  C   UNL     1       1.660   8.965  18.217  0.00  0.00    +0.000 C 
ATOM     20  O   UNL     1       1.886   9.613  17.200  0.00  0.00    +0.000 OA
ATOM     21  N   UNL     1       0.616   9.273  19.068  0.00  0.00    +0.000 N 
ATOM     22  C   UNL     1      -0.289  10.401  18.940  0.00  0.00    +0.000 C 
ATOM     23  C   UNL     1      -0.393  10.423  20.479  0.00  0.00    +0.000 C 
ATOM     24  C   UNL     1       0.506   9.186  20.518  0.00  0.00    +0.000 C 
BRANCH  23  25
ATOM     25  C   UNL     1       0.004  11.753  21.255  0.00  0.00    +0.000 A 
ATOM     26  C   UNL     1       1.071  12.581  20.855  0.00  0.00    +0.000 A 
ATOM     27  C   UNL     1       1.170  13.904  21.296  0.00  0.00    +0.000 A 
ATOM     28  C   UNL     1       0.230  14.410  22.189  0.00  0.00    +0.000 A 
ATOM     29  C   UNL     1      -0.715  13.554  22.749  0.00  0.00    +0.000 A 
ATOM     30  C   UNL     1      -0.811  12.236  22.298  0.00  0.00    +0.000 A 
BRANCH  28  31
ATOM     31  C   UNL     1       0.163  15.818  22.441  0.00  0.00    +0.000 C 
ATOM     32  N   UNL     1       0.167  16.953  22.684  0.00  0.00    +0.000 NA
ENDBRANCH  28  31
ENDBRANCH  23  25
ENDBRANCH   5  19
TORSDOF 6
ENDMDL
MODEL 5
REMARK VINA RESULT:      -7.8      1.886      2.632
REMARK  Name = 
REMARK  9 active torsions:
REMARK  status: ('A' for Active; 'I' for Inactive)
REMARK    1  A    between atoms: C_1  and  C_2
REMARK    2  A    between atoms: C_5  and  C_6
REMARK    3  A    between atoms: C_10  and  C_11
REMARK    4  A    between atoms: C_14  and  C_15
REMARK    5  A    between atoms: C_21  and  C_22
REMARK    6  A    between atoms: C_24  and  C_25
REMARK    7  A    between atoms: C_25  and  C_26
REMARK    8  A    between atoms: C_25  and  O_27
REMARK    9  A    between atoms: C_29  and  C_30
REMARK                            x       y       z     vdW  Elec       q    Type
REMARK                         _______ _______ _______ _____ _____    ______ ____
ROOT
ATOM      1  C   UNL     1       2.714   2.885  19.765  0.00  0.00    +0.000 C 
ATOM      2  C   UNL     1       2.391   4.340  19.977  0.00  0.00    +0.000 A 
ATOM      3  C   UNL     1       1.129   4.622  20.527  0.00  0.00    +0.000 A 
ATOM      4  C   UNL     1       0.735   5.930  20.786  0.00  0.00    +0.000 A 
ATOM      5  C   UNL     1       1.611   6.986  20.547  0.00  0.00    +0.000 A 
ATOM      6  C   UNL     1       2.856   6.718  19.953  0.00  0.00    +0.000 A 
ATOM      7  C   UNL     1       3.262   5.405  19.635  0.00  0.00    +0.000 A 
ENDROOT
BRANCH   7   8
ATOM      8  C   UNL     1       4.544   5.191  18.934  0.00  0.00    +0.000 A 
ATOM      9  N   UNL     1       5.762   5.596  19.444  0.00  0.00    +0.000 N 
ATOM     10  C   UNL     1       6.756   5.308  18.552  0.00  0.00    +0.000 A 
ATOM     11  N   UNL     1       6.264   4.637  17.535  0.00  0.00    +0.000 NA
ATOM     12  C   UNL     1       4.910   4.531  17.762  0.00  0.00    +0.000 A 
ATOM     13  C   UNL     1       4.089   3.790  16.777  0.00  0.00    +0.000 C 
ATOM     14  H   UNL     1       5.921   6.074  20.318  0.00  0.00    +0.000 HD
BRANCH  10  15
ATOM     15  C   UNL     1       8.178   5.702  18.792  0.00  0.00    +0.000 C 
ATOM     16  C   UNL     1       8.392   7.205  18.670  0.00  0.00    +0.000 C 
BRANCH  15  17
ATOM     17  O   UNL     1       8.525   5.268  20.111  0.00  0.00    +0.000 OA
ATOM     18  H   UNL     1       9.470   5.466  20.233  0.00  0.00    +0.000 HD
ENDBRANCH  15  17
ENDBRANCH  10  15
ENDBRANCH   7   8
BRANCH   5  19
ATOM     19  C   UNL     1       1.204   8.400  20.798  0.00  0.00    +0.000 C 
ATOM     20  O   UNL     1       0.957   8.762  21.944  0.00  0.00    +0.000 OA
ATOM     21  N   UNL     1       1.158   9.271  19.727  0.00  0.00    +0.000 N 
ATOM     22  C   UNL     1       0.759  10.666  19.773  0.00  0.00    +0.000 C 
ATOM     23  C   UNL     1       0.224  10.505  18.335  0.00  0.00    +0.000 C 
ATOM     24  C   UNL     1       0.746   9.067  18.345  0.00  0.00    +0.000 C 
BRANCH  23  25
ATOM     25  C   UNL     1      -1.307  10.822  18.046  0.00  0.00    +0.000 A 
ATOM     26  C   UNL     1      -2.094  10.049  17.171  0.00  0.00    +0.000 A 
ATOM     27  C   UNL     1      -3.491  10.097  17.215  0.00  0.00    +0.000 A 
ATOM     28  C   UNL     1      -4.128  10.959  18.102  0.00  0.00    +0.000 A 
ATOM     29  C   UNL     1      -3.373  11.872  18.834  0.00  0.00    +0.000 A 
ATOM     30  C   UNL     1      -1.979  11.813  18.789  0.00  0.00    +0.000 A 
BRANCH  28  31
ATOM     31  C   UNL     1      -5.533  10.831  18.345  0.00  0.00    +0.000 C 
ATOM     32  N   UNL     1      -6.668  10.660  18.522  0.00  0.00    +0.000 NA
ENDBRANCH  28  31
ENDBRANCH  23  25
ENDBRANCH   5  19
TORSDOF 6
ENDMDL
MODEL 6
REMARK VINA RESULT:      -7.8      2.330      3.785
REMARK  Name = 
REMARK  9 active torsions:
REMARK  status: ('A' for Active; 'I' for Inactive)
REMARK    1  A    between atoms: C_1  and  C_2
REMARK    2  A    between atoms: C_5  and  C_6
REMARK    3  A    between atoms: C_10  and  C_11
REMARK    4  A    between atoms: C_14  and  C_15
REMARK    5  A    between atoms: C_21  and  C_22
REMARK    6  A    between atoms: C_24  and  C_25
REMARK    7  A    between atoms: C_25  and  C_26
REMARK    8  A    between atoms: C_25  and  O_27
REMARK    9  A    between atoms: C_29  and  C_30
REMARK                            x       y       z     vdW  Elec       q    Type
REMARK                         _______ _______ _______ _____ _____    ______ ____
ROOT
ATOM      1  C   UNL     1       2.232   5.277  21.170  0.00  0.00    +0.000 C 
ATOM      2  C   UNL     1       1.878   6.611  20.569  0.00  0.00    +0.000 A 
ATOM      3  C   UNL     1       1.017   7.425  21.326  0.00  0.00    +0.000 A 
ATOM      4  C   UNL     1       0.642   8.685  20.876  0.00  0.00    +0.000 A 
ATOM      5  C   UNL     1       1.156   9.185  19.682  0.00  0.00    +0.000 A 
ATOM      6  C   UNL     1       1.979   8.361  18.896  0.00  0.00    +0.000 A 
ATOM      7  C   UNL     1       2.336   7.058  19.304  0.00  0.00    +0.000 A 
ENDROOT
BRANCH   7   8
ATOM      8  C   UNL     1       3.132   6.206  18.398  0.00  0.00    +0.000 A 
ATOM      9  N   UNL     1       4.471   6.421  18.140  0.00  0.00    +0.000 N 
ATOM     10  C   UNL     1       4.919   5.507  17.229  0.00  0.00    +0.000 A 
ATOM     11  N   UNL     1       3.970   4.637  16.964  0.00  0.00    +0.000 NA
ATOM     12  C   UNL     1       2.870   5.033  17.692  0.00  0.00    +0.000 A 
ATOM     13  C   UNL     1       1.640   4.213  17.608  0.00  0.00    +0.000 C 
ATOM     14  H   UNL     1       5.048   7.160  18.515  0.00  0.00    +0.000 HD
BRANCH  10  15
ATOM     15  C   UNL     1       6.313   5.538  16.691  0.00  0.00    +0.000 C 
ATOM     16  C   UNL     1       7.151   6.647  17.313  0.00  0.00    +0.000 C 
BRANCH  15  17
ATOM     17  O   UNL     1       6.908   4.265  16.971  0.00  0.00    +0.000 OA
ATOM     18  H   UNL     1       7.245   3.920  16.126  0.00  0.00    +0.000 HD
ENDBRANCH  15  17
ENDBRANCH  10  15
ENDBRANCH   7   8
BRANCH   5  19
ATOM     19  C   UNL     1       0.753  10.527  19.169  0.00  0.00    +0.000 C 
ATOM     20  O   UNL     1       1.447  11.506  19.427  0.00  0.00    +0.000 OA
ATOM     21  N   UNL     1      -0.377  10.617  18.380  0.00  0.00    +0.000 N 
ATOM     22  C   UNL     1      -0.936  11.835  17.819  0.00  0.00    +0.000 C 
ATOM     23  C   UNL     1      -2.330  11.184  17.935  0.00  0.00    +0.000 C 
ATOM     24  C   UNL     1      -1.650   9.912  18.447  0.00  0.00    +0.000 C 
BRANCH  23  25
ATOM     25  C   UNL     1      -3.450  11.918  18.791  0.00  0.00    +0.000 A 
ATOM     26  C   UNL     1      -4.819  11.869  18.461  0.00  0.00    +0.000 A 
ATOM     27  C   UNL     1      -5.806  12.184  19.399  0.00  0.00    +0.000 A 
ATOM     28  C   UNL     1      -5.441  12.604  20.675  0.00  0.00    +0.000 A 
ATOM     29  C   UNL     1      -4.100  12.848  20.960  0.00  0.00    +0.000 A 
ATOM     30  C   UNL     1      -3.121  12.526  20.019  0.00  0.00    +0.000 A 
BRANCH  28  31
ATOM     31  C   UNL     1      -6.421  12.674  21.717  0.00  0.00    +0.000 C 
ATOM     32  N   UNL     1      -7.179  12.783  22.590  0.00  0.00    +0.000 NA
ENDBRANCH  28  31
ENDBRANCH  23  25
ENDBRANCH   5  19
TORSDOF 6
ENDMDL
MODEL 7
REMARK VINA RESULT:      -7.7      3.810     11.540
REMARK  Name = 
REMARK  9 active torsions:
REMARK  status: ('A' for Active; 'I' for Inactive)
REMARK    1  A    between atoms: C_1  and  C_2
REMARK    2  A    between atoms: C_5  and  C_6
REMARK    3  A    between atoms: C_10  and  C_11
REMARK    4  A    between atoms: C_14  and  C_15
REMARK    5  A    between atoms: C_21  and  C_22
REMARK    6  A    between atoms: C_24  and  C_25
REMARK    7  A    between atoms: C_25  and  C_26
REMARK    8  A    between atoms: C_25  and  O_27
REMARK    9  A    between atoms: C_29  and  C_30
REMARK                            x       y       z     vdW  Elec       q    Type
REMARK                         _______ _______ _______ _____ _____    ______ ____
ROOT
ATOM      1  C   UNL     1      -6.771  11.435  18.207  0.00  0.00    +0.000 C 
ATOM      2  C   UNL     1      -5.285  11.582  18.398  0.00  0.00    +0.000 A 
ATOM      3  C   UNL     1      -4.471  10.958  17.437  0.00  0.00    +0.000 A 
ATOM      4  C   UNL     1      -3.085  11.047  17.503  0.00  0.00    +0.000 A 
ATOM      5  C   UNL     1      -2.479  11.803  18.504  0.00  0.00    +0.000 A 
ATOM      6  C   UNL     1      -3.282  12.390  19.496  0.00  0.00    +0.000 A 
ATOM      7  C   UNL     1      -4.688  12.275  19.481  0.00  0.00    +0.000 A 
ENDROOT
BRANCH   7   8
ATOM      8  C   UNL     1      -5.475  12.839  20.596  0.00  0.00    +0.000 A 
ATOM      9  N   UNL     1      -5.434  12.336  21.881  0.00  0.00    +0.000 N 
ATOM     10  C   UNL     1      -6.301  13.028  22.677  0.00  0.00    +0.000 A 
ATOM     11  N   UNL     1      -6.824  14.029  22.004  0.00  0.00    +0.000 NA
ATOM     12  C   UNL     1      -6.310  13.947  20.730  0.00  0.00    +0.000 A 
ATOM     13  C   UNL     1      -6.710  14.977  19.744  0.00  0.00    +0.000 C 
ATOM     14  H   UNL     1      -4.890  11.549  22.204  0.00  0.00    +0.000 HD
BRANCH  10  15
ATOM     15  C   UNL     1      -6.535  12.660  24.107  0.00  0.00    +0.000 C 
ATOM     16  C   UNL     1      -5.238  12.393  24.858  0.00  0.00    +0.000 C 
BRANCH  15  17
ATOM     17  O   UNL     1      -7.236  13.748  24.719  0.00  0.00    +0.000 OA
ATOM     18  H   UNL     1      -7.556  13.427  25.581  0.00  0.00    +0.000 HD
ENDBRANCH  15  17
ENDBRANCH  10  15
ENDBRANCH   7   8
BRANCH   5  19
ATOM     19  C   UNL     1      -0.993  11.898  18.608  0.00  0.00    +0.000 C 
ATOM     20  O   UNL     1      -0.392  12.723  17.927  0.00  0.00    +0.000 OA
ATOM     21  N   UNL     1      -0.343  11.073  19.505  0.00  0.00    +0.000 N 
ATOM     22  C   UNL     1       1.092  11.003  19.721  0.00  0.00    +0.000 C 
ATOM     23  C   UNL     1       0.912   9.510  20.066  0.00  0.00    +0.000 C 
ATOM     24  C   UNL     1      -0.597   9.691  19.893  0.00  0.00    +0.000 C 
BRANCH  23  25
ATOM     25  C   UNL     1       1.713   8.426  19.222  0.00  0.00    +0.000 A 
ATOM     26  C   UNL     1       2.246   8.695  17.946  0.00  0.00    +0.000 A 
ATOM     27  C   UNL     1       3.245   7.889  17.391  0.00  0.00    +0.000 A 
ATOM     28  C   UNL     1       3.695   6.767  18.081  0.00  0.00    +0.000 A 
ATOM     29  C   UNL     1       3.046   6.373  19.248  0.00  0.00    +0.000 A 
ATOM     30  C   UNL     1       2.053   7.187  19.798  0.00  0.00    +0.000 A 
BRANCH  28  31
ATOM     31  C   UNL     1       4.885   6.092  17.658  0.00  0.00    +0.000 C 
ATOM     32  N   UNL     1       5.851   5.513  17.377  0.00  0.00    +0.000 NA
ENDBRANCH  28  31
ENDBRANCH  23  25
ENDBRANCH   5  19
TORSDOF 6
ENDMDL
MODEL 8
REMARK VINA RESULT:      -7.7      3.716     11.273
REMARK  Name = 
REMARK  9 active torsions:
REMARK  status: ('A' for Active; 'I' for Inactive)
REMARK    1  A    between atoms: C_1  and  C_2
REMARK    2  A    between atoms: C_5  and  C_6
REMARK    3  A    between atoms: C_10  and  C_11
REMARK    4  A    between atoms: C_14  and  C_15
REMARK    5  A    between atoms: C_21  and  C_22
REMARK    6  A    between atoms: C_24  and  C_25
REMARK    7  A    between atoms: C_25  and  C_26
REMARK    8  A    between atoms: C_25  and  O_27
REMARK    9  A    between atoms: C_29  and  C_30
REMARK                            x       y       z     vdW  Elec       q    Type
REMARK                         _______ _______ _______ _____ _____    ______ ____
ROOT
ATOM      1  C   UNL     1      -6.113  11.893  17.944  0.00  0.00    +0.000 C 
ATOM      2  C   UNL     1      -4.658  11.837  18.329  0.00  0.00    +0.000 A 
ATOM      3  C   UNL     1      -3.802  11.186  17.424  0.00  0.00    +0.000 A 
ATOM      4  C   UNL     1      -2.437  11.095  17.668  0.00  0.00    +0.000 A 
ATOM      5  C   UNL     1      -1.885  11.694  18.799  0.00  0.00    +0.000 A 
ATOM      6  C   UNL     1      -2.739  12.304  19.732  0.00  0.00    +0.000 A 
ATOM      7  C   UNL     1      -4.135  12.369  19.534  0.00  0.00    +0.000 A 
ENDROOT
BRANCH   7   8
ATOM      8  C   UNL     1      -4.992  12.945  20.589  0.00  0.00    +0.000 A 
ATOM      9  N   UNL     1      -5.075  12.424  21.865  0.00  0.00    +0.000 N 
ATOM     10  C   UNL     1      -5.982  13.136  22.598  0.00  0.00    +0.000 A 
ATOM     11  N   UNL     1      -6.413  14.163  21.900  0.00  0.00    +0.000 NA
ATOM     12  C   UNL     1      -5.798  14.080  20.671  0.00  0.00    +0.000 A 
ATOM     13  C   UNL     1      -6.080  15.136  19.672  0.00  0.00    +0.000 C 
ATOM     14  H   UNL     1      -4.588  11.614  22.219  0.00  0.00    +0.000 HD
BRANCH  10  15
ATOM     15  C   UNL     1      -6.347  12.757  23.997  0.00  0.00    +0.000 C 
ATOM     16  C   UNL     1      -5.132  12.373  24.830  0.00  0.00    +0.000 C 
BRANCH  15  17
ATOM     17  O   UNL     1      -7.004  13.884  24.587  0.00  0.00    +0.000 OA
ATOM     18  H   UNL     1      -7.848  13.560  24.948  0.00  0.00    +0.000 HD
ENDBRANCH  15  17
ENDBRANCH  10  15
ENDBRANCH   7   8
BRANCH   5  19
ATOM     19  C   UNL     1      -0.425  11.593  19.093  0.00  0.00    +0.000 C 
ATOM     20  O   UNL     1       0.366  12.291  18.467  0.00  0.00    +0.000 OA
ATOM     21  N   UNL     1      -0.015  10.737  20.096  0.00  0.00    +0.000 N 
ATOM     22  C   UNL     1       1.357  10.486  20.501  0.00  0.00    +0.000 C 
ATOM     23  C   UNL     1       0.928   9.052  20.874  0.00  0.00    +0.000 C 
ATOM     24  C   UNL     1      -0.507   9.426  20.498  0.00  0.00    +0.000 C 
BRANCH  23  25
ATOM     25  C   UNL     1       1.667   7.827  20.180  0.00  0.00    +0.000 A 
ATOM     26  C   UNL     1       1.702   6.537  20.746  0.00  0.00    +0.000 A 
ATOM     27  C   UNL     1       2.011   5.413  19.976  0.00  0.00    +0.000 A 
ATOM     28  C   UNL     1       2.342   5.562  18.632  0.00  0.00    +0.000 A 
ATOM     29  C   UNL     1       2.505   6.840  18.103  0.00  0.00    +0.000 A 
ATOM     30  C   UNL     1       2.189   7.957  18.878  0.00  0.00    +0.000 A 
BRANCH  28  31
ATOM     31  C   UNL     1       2.400   4.417  17.774  0.00  0.00    +0.000 C 
ATOM     32  N   UNL     1       2.461   3.449  17.135  0.00  0.00    +0.000 NA
ENDBRANCH  28  31
ENDBRANCH  23  25
ENDBRANCH   5  19
TORSDOF 6
ENDMDL
MODEL 9
REMARK VINA RESULT:      -7.6      3.656     11.526
REMARK  Name = 
REMARK  9 active torsions:
REMARK  status: ('A' for Active; 'I' for Inactive)
REMARK    1  A    between atoms: C_1  and  C_2
REMARK    2  A    between atoms: C_5  and  C_6
REMARK    3  A    between atoms: C_10  and  C_11
REMARK    4  A    between atoms: C_14  and  C_15
REMARK    5  A    between atoms: C_21  and  C_22
REMARK    6  A    between atoms: C_24  and  C_25
REMARK    7  A    between atoms: C_25  and  C_26
REMARK    8  A    between atoms: C_25  and  O_27
REMARK    9  A    between atoms: C_29  and  C_30
REMARK                            x       y       z     vdW  Elec       q    Type
REMARK                         _______ _______ _______ _____ _____    ______ ____
ROOT
ATOM      1  C   UNL     1      -5.833  12.015  17.764  0.00  0.00    +0.000 C 
ATOM      2  C   UNL     1      -4.451  11.860  18.341  0.00  0.00    +0.000 A 
ATOM      3  C   UNL     1      -3.512  11.196  17.533  0.00  0.00    +0.000 A 
ATOM      4  C   UNL     1      -2.201  11.017  17.958  0.00  0.00    +0.000 A 
ATOM      5  C   UNL     1      -1.782  11.539  19.179  0.00  0.00    +0.000 A 
ATOM      6  C   UNL     1      -2.725  12.162  20.014  0.00  0.00    +0.000 A 
ATOM      7  C   UNL     1      -4.074  12.315  19.629  0.00  0.00    +0.000 A 
ENDROOT
BRANCH   7   8
ATOM      8  C   UNL     1      -5.039  12.900  20.582  0.00  0.00    +0.000 A 
ATOM      9  N   UNL     1      -5.300  12.355  21.824  0.00  0.00    +0.000 N 
ATOM     10  C   UNL     1      -6.268  13.083  22.454  0.00  0.00    +0.000 A 
ATOM     11  N   UNL     1      -6.573  14.140  21.734  0.00  0.00    +0.000 NA
ATOM     12  C   UNL     1      -5.810  14.061  20.591  0.00  0.00    +0.000 A 
ATOM     13  C   UNL     1      -5.928  15.147  19.592  0.00  0.00    +0.000 C 
ATOM     14  H   UNL     1      -4.889  11.521  22.216  0.00  0.00    +0.000 HD
BRANCH  10  15
ATOM     15  C   UNL     1      -6.820  12.688  23.786  0.00  0.00    +0.000 C 
ATOM     16  C   UNL     1      -7.760  13.740  24.360  0.00  0.00    +0.000 C 
BRANCH  15  17
ATOM     17  O   UNL     1      -7.524  11.454  23.607  0.00  0.00    +0.000 OA
ATOM     18  H   UNL     1      -8.448  11.684  23.405  0.00  0.00    +0.000 HD
ENDBRANCH  15  17
ENDBRANCH  10  15
ENDBRANCH   7   8
BRANCH   5  19
ATOM     19  C   UNL     1      -0.384  11.343  19.665  0.00  0.00    +0.000 C 
ATOM     20  O   UNL     1       0.497  12.114  19.297  0.00  0.00    +0.000 OA
ATOM     21  N   UNL     1      -0.135  10.315  20.553  0.00  0.00    +0.000 N 
ATOM     22  C   UNL     1       1.158   9.954  21.107  0.00  0.00    +0.000 C 
ATOM     23  C   UNL     1       0.670   8.491  21.154  0.00  0.00    +0.000 C 
ATOM     24  C   UNL     1      -0.690   8.969  20.639  0.00  0.00    +0.000 C 
BRANCH  23  25
ATOM     25  C   UNL     1       1.500   7.382  20.374  0.00  0.00    +0.000 A 
ATOM     26  C   UNL     1       2.300   7.674  19.253  0.00  0.00    +0.000 A 
ATOM     27  C   UNL     1       3.296   6.794  18.820  0.00  0.00    +0.000 A 
ATOM     28  C   UNL     1       3.478   5.578  19.472  0.00  0.00    +0.000 A 
ATOM     29  C   UNL     1       2.573   5.183  20.454  0.00  0.00    +0.000 A 
ATOM     30  C   UNL     1       1.585   6.071  20.884  0.00  0.00    +0.000 A 
BRANCH  28  31
ATOM     31  C   UNL     1       4.648   4.793  19.217  0.00  0.00    +0.000 C 
ATOM     32  N   UNL     1       5.556   4.107  18.983  0.00  0.00    +0.000 NA
ENDBRANCH  28  31
ENDBRANCH  23  25
ENDBRANCH   5  19
TORSDOF 6
ENDMDL
