MODEL 1
REMARK VINA RESULT:      -9.2      0.000      0.000
REMARK  Name = 
REMARK  5 active torsions:
REMARK  status: ('A' for Active; 'I' for Inactive)
REMARK    1  A    between atoms: C_1  and  O_2
REMARK    2  A    between atoms: O_2  and  C_3
REMARK    3  A    between atoms: C_7  and  C_8
REMARK    4  A    between atoms: N_18  and  N_19
REMARK    5  A    between atoms: C_20  and  C_22
REMARK                            x       y       z     vdW  Elec       q    Type
REMARK                         _______ _______ _______ _____ _____    ______ ____
ROOT
ATOM      1  C   UNL     1       2.117   6.434  19.559  0.00  0.00    +0.000 A 
ATOM      2  N   UNL     1       1.527   6.885  20.625  0.00  0.00    +0.000 NA
ATOM      3  C   UNL     1       1.304   8.263  20.730  0.00  0.00    +0.000 A 
ATOM      4  C   UNL     1       0.918   8.806  21.956  0.00  0.00    +0.000 A 
ATOM      5  C   UNL     1       0.604  10.160  22.060  0.00  0.00    +0.000 A 
ATOM      6  C   UNL     1       0.647  10.977  20.928  0.00  0.00    +0.000 A 
ATOM      7  C   UNL     1       1.044  10.451  19.698  0.00  0.00    +0.000 A 
ATOM      8  C   UNL     1       1.387   9.100  19.615  0.00  0.00    +0.000 A 
ATOM      9  C   UNL     1       1.896   8.499  18.366  0.00  0.00    +0.000 A 
ATOM     10  O   UNL     1       1.625   9.014  17.286  0.00  0.00    +0.000 OA
ATOM     11  N   UNL     1       2.582   7.302  18.562  0.00  0.00    +0.000 N 
ENDROOT
BRANCH   1  16
ATOM     12  C   UNL     1       3.017   2.840  20.352  0.00  0.00    +0.000 A 
ATOM     13  C   UNL     1       2.347   2.142  19.346  0.00  0.00    +0.000 A 
ATOM     14  C   UNL     1       1.592   2.824  18.395  0.00  0.00    +0.000 A 
ATOM     15  C   UNL     1       1.502   4.216  18.446  0.00  0.00    +0.000 A 
ATOM     16  C   UNL     1       2.228   4.941  19.403  0.00  0.00    +0.000 A 
ATOM     17  C   UNL     1       2.969   4.236  20.366  0.00  0.00    +0.000 A 
BRANCH  12  19
ATOM     18  C   UNL     1       4.907   1.489  20.846  0.00  0.00    +0.000 C 
ATOM     19  O   UNL     1       3.666   2.053  21.264  0.00  0.00    +0.000 OA
ENDBRANCH  12  19
ENDBRANCH   1  16
BRANCH  11  20
ATOM     20  N   UNL     1       3.553   6.863  17.611  0.00  0.00    +0.000 N 
ATOM     21  C   UNL     1       4.753   6.283  18.005  0.00  0.00    +0.000 C 
ATOM     22  O   UNL     1       5.203   6.229  19.142  0.00  0.00    +0.000 OA
ATOM     23  H   UNL     1       3.138   6.440  16.786  0.00  0.00    +0.000 HD
BRANCH  21  24
ATOM     24  C   UNL     1       5.567   5.686  16.916  0.00  0.00    +0.000 A 
ATOM     25  C   UNL     1       5.010   4.644  16.163  0.00  0.00    +0.000 A 
ATOM     26  C   UNL     1       5.739   4.079  15.115  0.00  0.00    +0.000 A 
ATOM     27  C   UNL     1       7.002   4.578  14.850  0.00  0.00    +0.000 A 
ATOM     28  N   UNL     1       7.571   5.579  15.553  0.00  0.00    +0.000 NA
ATOM     29  C   UNL     1       6.839   6.115  16.559  0.00  0.00    +0.000 A 
ATOM     30 CL   UNL     1       7.668   7.412  17.334  0.00  0.00    +0.000 Cl
ENDBRANCH  21  24
ENDBRANCH  11  20
TORSDOF 4
ENDMDL
MODEL 2
REMARK VINA RESULT:      -8.3      1.062      1.073
REMARK  Name = 
REMARK  5 active torsions:
REMARK  status: ('A' for Active; 'I' for Inactive)
REMARK    1  A    between atoms: C_1  and  O_2
REMARK    2  A    between atoms: O_2  and  C_3
REMARK    3  A    between atoms: C_7  and  C_8
REMARK    4  A    between atoms: N_18  and  N_19
REMARK    5  A    between atoms: C_20  and  C_22
REMARK                            x       y       z     vdW  Elec       q    Type
REMARK                         _______ _______ _______ _____ _____    ______ ____
ROOT
ATOM      1  C   UNL     1       2.081   6.507  19.807  0.00  0.00    +0.000 A 
ATOM      2  N   UNL     1       1.571   7.185  20.791  0.00  0.00    +0.000 NA
ATOM      3  C   UNL     1       1.378   8.561  20.622  0.00  0.00    +0.000 A 
ATOM      4  C   UNL     1       1.083   9.356  21.730  0.00  0.00    +0.000 A 
ATOM      5  C   UNL     1       0.799  10.710  21.571  0.00  0.00    +0.000 A 
ATOM      6  C   UNL     1       0.780  11.276  20.294  0.00  0.00    +0.000 A 
ATOM      7  C   UNL     1       1.086  10.496  19.178  0.00  0.00    +0.000 A 
ATOM      8  C   UNL     1       1.401   9.147  19.355  0.00  0.00    +0.000 A 
ATOM      9  C   UNL     1       1.816   8.288  18.228  0.00  0.00    +0.000 A 
ATOM     10  O   UNL     1       1.482   8.578  17.084  0.00  0.00    +0.000 OA
ATOM     11  N   UNL     1       2.493   7.137  18.625  0.00  0.00    +0.000 N 
ENDROOT
BRANCH   1  16
ATOM     12  C   UNL     1       3.579   3.032  20.020  0.00  0.00    +0.000 A 
ATOM     13  C   UNL     1       2.480   2.263  20.406  0.00  0.00    +0.000 A 
ATOM     14  C   UNL     1       1.236   2.858  20.603  0.00  0.00    +0.000 A 
ATOM     15  C   UNL     1       1.084   4.233  20.417  0.00  0.00    +0.000 A 
ATOM     16  C   UNL     1       2.158   5.011  19.957  0.00  0.00    +0.000 A 
ATOM     17  C   UNL     1       3.410   4.398  19.781  0.00  0.00    +0.000 A 
BRANCH  12  19
ATOM     18  C   UNL     1       5.014   1.381  20.945  0.00  0.00    +0.000 C 
ATOM     19  O   UNL     1       4.758   2.345  19.926  0.00  0.00    +0.000 OA
ENDBRANCH  12  19
ENDBRANCH   1  16
BRANCH  11  20
ATOM     20  N   UNL     1       3.392   6.483  17.729  0.00  0.00    +0.000 N 
ATOM     21  C   UNL     1       4.666   6.977  17.478  0.00  0.00    +0.000 C 
ATOM     22  O   UNL     1       5.112   8.063  17.824  0.00  0.00    +0.000 OA
ATOM     23  H   UNL     1       3.343   5.470  17.786  0.00  0.00    +0.000 HD
BRANCH  21  24
ATOM     24  C   UNL     1       5.559   6.087  16.695  0.00  0.00    +0.000 A 
ATOM     25  C   UNL     1       5.209   5.789  15.371  0.00  0.00    +0.000 A 
ATOM     26  C   UNL     1       6.042   4.977  14.600  0.00  0.00    +0.000 A 
ATOM     27  C   UNL     1       7.203   4.491  15.175  0.00  0.00    +0.000 A 
ATOM     28  N   UNL     1       7.572   4.756  16.446  0.00  0.00    +0.000 NA
ATOM     29  C   UNL     1       6.751   5.553  17.170  0.00  0.00    +0.000 A 
ATOM     30 CL   UNL     1       7.372   5.844  18.751  0.00  0.00    +0.000 Cl
ENDBRANCH  21  24
ENDBRANCH  11  20
TORSDOF 4
ENDMDL
MODEL 3
REMARK VINA RESULT:      -7.8      1.276      1.276
REMARK  Name = 
REMARK  5 active torsions:
REMARK  status: ('A' for Active; 'I' for Inactive)
REMARK    1  A    between atoms: C_1  and  O_2
REMARK    2  A    between atoms: O_2  and  C_3
REMARK    3  A    between atoms: C_7  and  C_8
REMARK    4  A    between atoms: N_18  and  N_19
REMARK    5  A    between atoms: C_20  and  C_22
REMARK                            x       y       z     vdW  Elec       q    Type
REMARK                         _______ _______ _______ _____ _____    ______ ____
ROOT
ATOM      1  C   UNL     1       1.853   6.412  20.167  0.00  0.00    +0.000 A 
ATOM      2  N   UNL     1       1.049   7.038  20.973  0.00  0.00    +0.000 NA
ATOM      3  C   UNL     1       0.927   8.427  20.847  0.00  0.00    +0.000 A 
ATOM      4  C   UNL     1       0.286   9.156  21.848  0.00  0.00    +0.000 A 
ATOM      5  C   UNL     1       0.075  10.525  21.700  0.00  0.00    +0.000 A 
ATOM      6  C   UNL     1       0.481  11.173  20.531  0.00  0.00    +0.000 A 
ATOM      7  C   UNL     1       1.136  10.459  19.526  0.00  0.00    +0.000 A 
ATOM      8  C   UNL     1       1.369   9.094  19.702  0.00  0.00    +0.000 A 
ATOM      9  C   UNL     1       2.131   8.299  18.718  0.00  0.00    +0.000 A 
ATOM     10  O   UNL     1       2.195   8.671  17.551  0.00  0.00    +0.000 OA
ATOM     11  N   UNL     1       2.635   7.107  19.234  0.00  0.00    +0.000 N 
ENDROOT
BRANCH   1  16
ATOM     12  C   UNL     1       3.057   2.905  20.948  0.00  0.00    +0.000 A 
ATOM     13  C   UNL     1       1.953   2.130  20.587  0.00  0.00    +0.000 A 
ATOM     14  C   UNL     1       0.802   2.731  20.087  0.00  0.00    +0.000 A 
ATOM     15  C   UNL     1       0.746   4.119  19.943  0.00  0.00    +0.000 A 
ATOM     16  C   UNL     1       1.870   4.908  20.228  0.00  0.00    +0.000 A 
ATOM     17  C   UNL     1       3.017   4.287  20.751  0.00  0.00    +0.000 A 
BRANCH  12  19
ATOM     18  C   UNL     1       4.992   1.580  20.570  0.00  0.00    +0.000 C 
ATOM     19  O   UNL     1       4.100   2.205  21.490  0.00  0.00    +0.000 OA
ENDBRANCH  12  19
ENDBRANCH   1  16
BRANCH  11  20
ATOM     20  N   UNL     1       3.777   6.489  18.640  0.00  0.00    +0.000 N 
ATOM     21  C   UNL     1       3.656   5.549  17.624  0.00  0.00    +0.000 C 
ATOM     22  O   UNL     1       2.624   5.017  17.237  0.00  0.00    +0.000 OA
ATOM     23  H   UNL     1       4.559   7.127  18.525  0.00  0.00    +0.000 HD
BRANCH  21  24
ATOM     24  C   UNL     1       4.923   5.151  16.961  0.00  0.00    +0.000 A 
ATOM     25  C   UNL     1       4.922   4.979  15.570  0.00  0.00    +0.000 A 
ATOM     26  C   UNL     1       6.103   4.631  14.914  0.00  0.00    +0.000 A 
ATOM     27  C   UNL     1       7.252   4.470  15.669  0.00  0.00    +0.000 A 
ATOM     28  N   UNL     1       7.291   4.626  17.008  0.00  0.00    +0.000 NA
ATOM     29  C   UNL     1       6.133   4.971  17.620  0.00  0.00    +0.000 A 
ATOM     30 CL   UNL     1       6.344   5.184  19.317  0.00  0.00    +0.000 Cl
ENDBRANCH  21  24
ENDBRANCH  11  20
TORSDOF 4
ENDMDL
MODEL 4
REMARK VINA RESULT:      -7.8      1.263      1.444
REMARK  Name = 
REMARK  5 active torsions:
REMARK  status: ('A' for Active; 'I' for Inactive)
REMARK    1  A    between atoms: C_1  and  O_2
REMARK    2  A    between atoms: O_2  and  C_3
REMARK    3  A    between atoms: C_7  and  C_8
REMARK    4  A    between atoms: N_18  and  N_19
REMARK    5  A    between atoms: C_20  and  C_22
REMARK                            x       y       z     vdW  Elec       q    Type
REMARK                         _______ _______ _______ _____ _____    ______ ____
ROOT
ATOM      1  C   UNL     1       1.952   6.393  19.771  0.00  0.00    +0.000 A 
ATOM      2  N   UNL     1       1.425   6.939  20.826  0.00  0.00    +0.000 NA
ATOM      3  C   UNL     1       1.275   8.330  20.851  0.00  0.00    +0.000 A 
ATOM      4  C   UNL     1       0.961   8.967  22.052  0.00  0.00    +0.000 A 
ATOM      5  C   UNL     1       0.719  10.339  22.081  0.00  0.00    +0.000 A 
ATOM      6  C   UNL     1       0.762  11.082  20.899  0.00  0.00    +0.000 A 
ATOM      7  C   UNL     1       1.087  10.461  19.692  0.00  0.00    +0.000 A 
ATOM      8  C   UNL     1       1.359   9.091  19.683  0.00  0.00    +0.000 A 
ATOM      9  C   UNL     1       1.792   8.389  18.458  0.00  0.00    +0.000 A 
ATOM     10  O   UNL     1       1.507   8.851  17.357  0.00  0.00    +0.000 OA
ATOM     11  N   UNL     1       2.423   7.173  18.706  0.00  0.00    +0.000 N 
ENDROOT
BRANCH   1  16
ATOM     12  C   UNL     1       2.936   2.824  20.581  0.00  0.00    +0.000 A 
ATOM     13  C   UNL     1       2.013   2.090  19.833  0.00  0.00    +0.000 A 
ATOM     14  C   UNL     1       1.058   2.739  19.056  0.00  0.00    +0.000 A 
ATOM     15  C   UNL     1       1.018   4.134  19.022  0.00  0.00    +0.000 A 
ATOM     16  C   UNL     1       1.983   4.889  19.706  0.00  0.00    +0.000 A 
ATOM     17  C   UNL     1       2.927   4.219  20.501  0.00  0.00    +0.000 A 
BRANCH  12  19
ATOM     18  C   UNL     1       4.960   1.591  20.724  0.00  0.00    +0.000 C 
ATOM     19  O   UNL     1       3.777   2.074  21.356  0.00  0.00    +0.000 OA
ENDBRANCH  12  19
ENDBRANCH   1  16
BRANCH  11  20
ATOM     20  N   UNL     1       3.336   6.626  17.754  0.00  0.00    +0.000 N 
ATOM     21  C   UNL     1       4.592   6.162  18.125  0.00  0.00    +0.000 C 
ATOM     22  O   UNL     1       5.134   6.307  19.213  0.00  0.00    +0.000 OA
ATOM     23  H   UNL     1       2.878   6.062  17.044  0.00  0.00    +0.000 HD
BRANCH  21  24
ATOM     24  C   UNL     1       5.345   5.432  17.075  0.00  0.00    +0.000 A 
ATOM     25  C   UNL     1       6.584   5.944  16.665  0.00  0.00    +0.000 A 
ATOM     26  C   UNL     1       7.329   5.267  15.700  0.00  0.00    +0.000 A 
ATOM     27  C   UNL     1       6.814   4.094  15.176  0.00  0.00    +0.000 A 
ATOM     28  N   UNL     1       5.627   3.571  15.545  0.00  0.00    +0.000 NA
ATOM     29  C   UNL     1       4.927   4.243  16.489  0.00  0.00    +0.000 A 
ATOM     30 CL   UNL     1       3.460   3.436  16.896  0.00  0.00    +0.000 Cl
ENDBRANCH  21  24
ENDBRANCH  11  20
TORSDOF 4
ENDMDL
MODEL 5
REMARK VINA RESULT:      -7.8      1.872      6.394
REMARK  Name = 
REMARK  5 active torsions:
REMARK  status: ('A' for Active; 'I' for Inactive)
REMARK    1  A    between atoms: C_1  and  O_2
REMARK    2  A    between atoms: O_2  and  C_3
REMARK    3  A    between atoms: C_7  and  C_8
REMARK    4  A    between atoms: N_18  and  N_19
REMARK    5  A    between atoms: C_20  and  C_22
REMARK                            x       y       z     vdW  Elec       q    Type
REMARK                         _______ _______ _______ _____ _____    ______ ____
ROOT
ATOM      1  C   UNL     1       4.495   4.168  16.679  0.00  0.00    +0.000 A 
ATOM      2  N   UNL     1       4.882   3.482  15.646  0.00  0.00    +0.000 NA
ATOM      3  C   UNL     1       5.772   4.078  14.745  0.00  0.00    +0.000 A 
ATOM      4  C   UNL     1       6.001   3.481  13.506  0.00  0.00    +0.000 A 
ATOM      5  C   UNL     1       6.951   4.009  12.633  0.00  0.00    +0.000 A 
ATOM      6  C   UNL     1       7.700   5.127  13.007  0.00  0.00    +0.000 A 
ATOM      7  C   UNL     1       7.473   5.742  14.239  0.00  0.00    +0.000 A 
ATOM      8  C   UNL     1       6.496   5.222  15.090  0.00  0.00    +0.000 A 
ATOM      9  C   UNL     1       6.146   5.874  16.368  0.00  0.00    +0.000 A 
ATOM     10  O   UNL     1       6.963   6.599  16.927  0.00  0.00    +0.000 OA
ATOM     11  N   UNL     1       4.901   5.496  16.864  0.00  0.00    +0.000 N 
ENDROOT
BRANCH   1  16
ATOM     12  C   UNL     1       3.520   2.485  19.931  0.00  0.00    +0.000 A 
ATOM     13  C   UNL     1       2.141   2.328  19.777  0.00  0.00    +0.000 A 
ATOM     14  C   UNL     1       1.506   2.765  18.618  0.00  0.00    +0.000 A 
ATOM     15  C   UNL     1       2.249   3.366  17.601  0.00  0.00    +0.000 A 
ATOM     16  C   UNL     1       3.645   3.465  17.703  0.00  0.00    +0.000 A 
ATOM     17  C   UNL     1       4.267   3.037  18.888  0.00  0.00    +0.000 A 
BRANCH  12  19
ATOM     18  C   UNL     1       5.185   1.265  21.107  0.00  0.00    +0.000 C 
ATOM     19  O   UNL     1       4.014   2.079  21.140  0.00  0.00    +0.000 OA
ENDBRANCH  12  19
ENDBRANCH   1  16
BRANCH  11  20
ATOM     20  N   UNL     1       4.186   6.357  17.752  0.00  0.00    +0.000 N 
ATOM     21  C   UNL     1       3.447   7.437  17.288  0.00  0.00    +0.000 C 
ATOM     22  O   UNL     1       3.442   7.888  16.150  0.00  0.00    +0.000 OA
ATOM     23  H   UNL     1       3.754   5.859  18.525  0.00  0.00    +0.000 HD
BRANCH  21  24
ATOM     24  C   UNL     1       2.591   8.113  18.296  0.00  0.00    +0.000 A 
ATOM     25  C   UNL     1       2.062   9.372  17.983  0.00  0.00    +0.000 A 
ATOM     26  C   UNL     1       1.232  10.021  18.898  0.00  0.00    +0.000 A 
ATOM     27  C   UNL     1       0.952   9.388  20.096  0.00  0.00    +0.000 A 
ATOM     28  N   UNL     1       1.443   8.177  20.432  0.00  0.00    +0.000 NA
ATOM     29  C   UNL     1       2.239   7.565  19.523  0.00  0.00    +0.000 A 
ATOM     30 CL   UNL     1       2.750   6.010  20.063  0.00  0.00    +0.000 Cl
ENDBRANCH  21  24
ENDBRANCH  11  20
TORSDOF 4
ENDMDL
MODEL 6
REMARK VINA RESULT:      -7.8      1.700      1.824
REMARK  Name = 
REMARK  5 active torsions:
REMARK  status: ('A' for Active; 'I' for Inactive)
REMARK    1  A    between atoms: C_1  and  O_2
REMARK    2  A    between atoms: O_2  and  C_3
REMARK    3  A    between atoms: C_7  and  C_8
REMARK    4  A    between atoms: N_18  and  N_19
REMARK    5  A    between atoms: C_20  and  C_22
REMARK                            x       y       z     vdW  Elec       q    Type
REMARK                         _______ _______ _______ _____ _____    ______ ____
ROOT
ATOM      1  C   UNL     1       1.692   6.470  20.408  0.00  0.00    +0.000 A 
ATOM      2  N   UNL     1       0.985   7.085  21.308  0.00  0.00    +0.000 NA
ATOM      3  C   UNL     1       0.867   8.477  21.226  0.00  0.00    +0.000 A 
ATOM      4  C   UNL     1       0.343   9.189  22.305  0.00  0.00    +0.000 A 
ATOM      5  C   UNL     1       0.134  10.563  22.209  0.00  0.00    +0.000 A 
ATOM      6  C   UNL     1       0.422  11.234  21.018  0.00  0.00    +0.000 A 
ATOM      7  C   UNL     1       0.959  10.537  19.935  0.00  0.00    +0.000 A 
ATOM      8  C   UNL     1       1.193   9.166  20.055  0.00  0.00    +0.000 A 
ATOM      9  C   UNL     1       1.837   8.386  18.979  0.00  0.00    +0.000 A 
ATOM     10  O   UNL     1       1.782   8.784  17.820  0.00  0.00    +0.000 OA
ATOM     11  N   UNL     1       2.378   7.178  19.413  0.00  0.00    +0.000 N 
ENDROOT
BRANCH   1  16
ATOM     12  C   UNL     1       2.863   2.937  21.119  0.00  0.00    +0.000 A 
ATOM     13  C   UNL     1       1.758   2.179  20.730  0.00  0.00    +0.000 A 
ATOM     14  C   UNL     1       0.615   2.800  20.232  0.00  0.00    +0.000 A 
ATOM     15  C   UNL     1       0.571   4.190  20.121  0.00  0.00    +0.000 A 
ATOM     16  C   UNL     1       1.698   4.965  20.435  0.00  0.00    +0.000 A 
ATOM     17  C   UNL     1       2.835   4.324  20.954  0.00  0.00    +0.000 A 
BRANCH  12  19
ATOM     18  C   UNL     1       4.827   1.659  20.731  0.00  0.00    +0.000 C 
ATOM     19  O   UNL     1       3.895   2.217  21.655  0.00  0.00    +0.000 OA
ENDBRANCH  12  19
ENDBRANCH   1  16
BRANCH  11  20
ATOM     20  N   UNL     1       3.444   6.563  18.688  0.00  0.00    +0.000 N 
ATOM     21  C   UNL     1       3.205   5.654  17.665  0.00  0.00    +0.000 C 
ATOM     22  O   UNL     1       2.131   5.145  17.373  0.00  0.00    +0.000 OA
ATOM     23  H   UNL     1       4.219   7.195  18.510  0.00  0.00    +0.000 HD
BRANCH  21  24
ATOM     24  C   UNL     1       4.391   5.259  16.864  0.00  0.00    +0.000 A 
ATOM     25  C   UNL     1       5.151   6.268  16.257  0.00  0.00    +0.000 A 
ATOM     26  C   UNL     1       6.287   5.931  15.520  0.00  0.00    +0.000 A 
ATOM     27  C   UNL     1       6.632   4.595  15.417  0.00  0.00    +0.000 A 
ATOM     28  N   UNL     1       5.925   3.597  15.987  0.00  0.00    +0.000 NA
ATOM     29  C   UNL     1       4.832   3.951  16.703  0.00  0.00    +0.000 A 
ATOM     30 CL   UNL     1       4.060   2.583  17.412  0.00  0.00    +0.000 Cl
ENDBRANCH  21  24
ENDBRANCH  11  20
TORSDOF 4
ENDMDL
MODEL 7
REMARK VINA RESULT:      -7.8      1.195      1.533
REMARK  Name = 
REMARK  5 active torsions:
REMARK  status: ('A' for Active; 'I' for Inactive)
REMARK    1  A    between atoms: C_1  and  O_2
REMARK    2  A    between atoms: O_2  and  C_3
REMARK    3  A    between atoms: C_7  and  C_8
REMARK    4  A    between atoms: N_18  and  N_19
REMARK    5  A    between atoms: C_20  and  C_22
REMARK                            x       y       z     vdW  Elec       q    Type
REMARK                         _______ _______ _______ _____ _____    ______ ____
ROOT
ATOM      1  C   UNL     1       1.929   6.672  19.933  0.00  0.00    +0.000 A 
ATOM      2  N   UNL     1       1.306   7.280  20.897  0.00  0.00    +0.000 NA
ATOM      3  C   UNL     1       1.134   8.666  20.808  0.00  0.00    +0.000 A 
ATOM      4  C   UNL     1       0.710   9.380  21.929  0.00  0.00    +0.000 A 
ATOM      5  C   UNL     1       0.446  10.745  21.838  0.00  0.00    +0.000 A 
ATOM      6  C   UNL     1       0.577  11.403  20.613  0.00  0.00    +0.000 A 
ATOM      7  C   UNL     1       1.014  10.704  19.486  0.00  0.00    +0.000 A 
ATOM      8  C   UNL     1       1.305   9.343  19.599  0.00  0.00    +0.000 A 
ATOM      9  C   UNL     1       1.851   8.565  18.469  0.00  0.00    +0.000 A 
ATOM     10  O   UNL     1       1.655   8.941  17.318  0.00  0.00    +0.000 OA
ATOM     11  N   UNL     1       2.477   7.383  18.857  0.00  0.00    +0.000 N 
ENDROOT
BRANCH   1  16
ATOM     12  C   UNL     1       2.105   3.086  18.719  0.00  0.00    +0.000 A 
ATOM     13  C   UNL     1       2.291   2.383  19.910  0.00  0.00    +0.000 A 
ATOM     14  C   UNL     1       2.363   3.059  21.125  0.00  0.00    +0.000 A 
ATOM     15  C   UNL     1       2.249   4.450  21.156  0.00  0.00    +0.000 A 
ATOM     16  C   UNL     1       1.987   5.168  19.980  0.00  0.00    +0.000 A 
ATOM     17  C   UNL     1       1.937   4.472  18.760  0.00  0.00    +0.000 A 
BRANCH  12  19
ATOM     18  C   UNL     1       3.319   1.587  17.333  0.00  0.00    +0.000 C 
ATOM     19  O   UNL     1       2.121   2.317  17.587  0.00  0.00    +0.000 OA
ENDBRANCH  12  19
ENDBRANCH   1  16
BRANCH  11  20
ATOM     20  N   UNL     1       3.475   6.789  18.027  0.00  0.00    +0.000 N 
ATOM     21  C   UNL     1       4.587   6.149  18.561  0.00  0.00    +0.000 C 
ATOM     22  O   UNL     1       4.943   6.154  19.732  0.00  0.00    +0.000 OA
ATOM     23  H   UNL     1       3.089   6.333  17.206  0.00  0.00    +0.000 HD
BRANCH  21  24
ATOM     24  C   UNL     1       5.426   5.399  17.593  0.00  0.00    +0.000 A 
ATOM     25  C   UNL     1       4.791   4.745  16.528  0.00  0.00    +0.000 A 
ATOM     26  C   UNL     1       5.554   4.055  15.586  0.00  0.00    +0.000 A 
ATOM     27  C   UNL     1       6.930   4.043  15.734  0.00  0.00    +0.000 A 
ATOM     28  N   UNL     1       7.576   4.660  16.745  0.00  0.00    +0.000 NA
ATOM     29  C   UNL     1       6.813   5.330  17.642  0.00  0.00    +0.000 A 
ATOM     30 CL   UNL     1       7.771   6.107  18.844  0.00  0.00    +0.000 Cl
ENDBRANCH  21  24
ENDBRANCH  11  20
TORSDOF 4
ENDMDL
MODEL 8
REMARK VINA RESULT:      -7.7      1.946      6.250
REMARK  Name = 
REMARK  5 active torsions:
REMARK  status: ('A' for Active; 'I' for Inactive)
REMARK    1  A    between atoms: C_1  and  O_2
REMARK    2  A    between atoms: O_2  and  C_3
REMARK    3  A    between atoms: C_7  and  C_8
REMARK    4  A    between atoms: N_18  and  N_19
REMARK    5  A    between atoms: C_20  and  C_22
REMARK                            x       y       z     vdW  Elec       q    Type
REMARK                         _______ _______ _______ _____ _____    ______ ____
ROOT
ATOM      1  C   UNL     1       3.818   4.376  17.404  0.00  0.00    +0.000 A 
ATOM      2  N   UNL     1       4.233   3.732  16.354  0.00  0.00    +0.000 NA
ATOM      3  C   UNL     1       5.273   4.287  15.601  0.00  0.00    +0.000 A 
ATOM      4  C   UNL     1       5.563   3.767  14.339  0.00  0.00    +0.000 A 
ATOM      5  C   UNL     1       6.651   4.245  13.612  0.00  0.00    +0.000 A 
ATOM      6  C   UNL     1       7.477   5.232  14.156  0.00  0.00    +0.000 A 
ATOM      7  C   UNL     1       7.191   5.771  15.411  0.00  0.00    +0.000 A 
ATOM      8  C   UNL     1       6.079   5.305  16.115  0.00  0.00    +0.000 A 
ATOM      9  C   UNL     1       5.672   5.891  17.408  0.00  0.00    +0.000 A 
ATOM     10  O   UNL     1       6.501   6.467  18.105  0.00  0.00    +0.000 OA
ATOM     11  N   UNL     1       4.347   5.627  17.747  0.00  0.00    +0.000 N 
ENDROOT
BRANCH   1  16
ATOM     12  C   UNL     1       2.205   2.911  20.505  0.00  0.00    +0.000 A 
ATOM     13  C   UNL     1       0.912   2.635  20.059  0.00  0.00    +0.000 A 
ATOM     14  C   UNL     1       0.541   2.919  18.747  0.00  0.00    +0.000 A 
ATOM     15  C   UNL     1       1.467   3.485  17.870  0.00  0.00    +0.000 A 
ATOM     16  C   UNL     1       2.792   3.701  18.276  0.00  0.00    +0.000 A 
ATOM     17  C   UNL     1       3.144   3.426  19.608  0.00  0.00    +0.000 A 
BRANCH  12  19
ATOM     18  C   UNL     1       1.289   2.263  22.598  0.00  0.00    +0.000 C 
ATOM     19  O   UNL     1       2.426   2.651  21.830  0.00  0.00    +0.000 OA
ENDBRANCH  12  19
ENDBRANCH   1  16
BRANCH  11  20
ATOM     20  N   UNL     1       3.643   6.494  18.637  0.00  0.00    +0.000 N 
ATOM     21  C   UNL     1       2.875   7.554  18.173  0.00  0.00    +0.000 C 
ATOM     22  O   UNL     1       2.834   7.983  17.027  0.00  0.00    +0.000 OA
ATOM     23  H   UNL     1       3.239   6.005  19.430  0.00  0.00    +0.000 HD
BRANCH  21  24
ATOM     24  C   UNL     1       2.036   8.236  19.190  0.00  0.00    +0.000 A 
ATOM     25  C   UNL     1       1.685   7.528  20.347  0.00  0.00    +0.000 A 
ATOM     26  C   UNL     1       0.920   8.149  21.335  0.00  0.00    +0.000 A 
ATOM     27  C   UNL     1       0.533   9.463  21.137  0.00  0.00    +0.000 A 
ATOM     28  N   UNL     1       0.851  10.176  20.037  0.00  0.00    +0.000 NA
ATOM     29  C   UNL     1       1.601   9.552  19.097  0.00  0.00    +0.000 A 
ATOM     30 CL   UNL     1       1.971  10.596  17.777  0.00  0.00    +0.000 Cl
ENDBRANCH  21  24
ENDBRANCH  11  20
TORSDOF 4
ENDMDL
MODEL 9
REMARK VINA RESULT:      -7.7      1.927      6.278
REMARK  Name = 
REMARK  5 active torsions:
REMARK  status: ('A' for Active; 'I' for Inactive)
REMARK    1  A    between atoms: C_1  and  O_2
REMARK    2  A    between atoms: O_2  and  C_3
REMARK    3  A    between atoms: C_7  and  C_8
REMARK    4  A    between atoms: N_18  and  N_19
REMARK    5  A    between atoms: C_20  and  C_22
REMARK                            x       y       z     vdW  Elec       q    Type
REMARK                         _______ _______ _______ _____ _____    ______ ____
ROOT
ATOM      1  C   UNL     1       3.828   4.467  17.344  0.00  0.00    +0.000 A 
ATOM      2  N   UNL     1       4.258   3.752  16.348  0.00  0.00    +0.000 NA
ATOM      3  C   UNL     1       5.282   4.273  15.549  0.00  0.00    +0.000 A 
ATOM      4  C   UNL     1       5.585   3.660  14.332  0.00  0.00    +0.000 A 
ATOM      5  C   UNL     1       6.659   4.107  13.565  0.00  0.00    +0.000 A 
ATOM      6  C   UNL     1       7.459   5.155  14.025  0.00  0.00    +0.000 A 
ATOM      7  C   UNL     1       7.161   5.786  15.234  0.00  0.00    +0.000 A 
ATOM      8  C   UNL     1       6.062   5.349  15.977  0.00  0.00    +0.000 A 
ATOM      9  C   UNL     1       5.641   6.026  17.220  0.00  0.00    +0.000 A 
ATOM     10  O   UNL     1       6.455   6.678  17.866  0.00  0.00    +0.000 OA
ATOM     11  N   UNL     1       4.324   5.756  17.583  0.00  0.00    +0.000 N 
ENDROOT
BRANCH   1  16
ATOM     12  C   UNL     1       2.362   2.957  20.495  0.00  0.00    +0.000 A 
ATOM     13  C   UNL     1       1.011   2.842  20.163  0.00  0.00    +0.000 A 
ATOM     14  C   UNL     1       0.553   3.252  18.914  0.00  0.00    +0.000 A 
ATOM     15  C   UNL     1       1.449   3.784  17.984  0.00  0.00    +0.000 A 
ATOM     16  C   UNL     1       2.821   3.838  18.270  0.00  0.00    +0.000 A 
ATOM     17  C   UNL     1       3.263   3.438  19.543  0.00  0.00    +0.000 A 
BRANCH  12  19
ATOM     18  C   UNL     1       1.582   2.213  22.612  0.00  0.00    +0.000 C 
ATOM     19  O   UNL     1       2.674   2.584  21.774  0.00  0.00    +0.000 OA
ENDBRANCH  12  19
ENDBRANCH   1  16
BRANCH  11  20
ATOM     20  N   UNL     1       3.598   6.673  18.403  0.00  0.00    +0.000 N 
ATOM     21  C   UNL     1       2.919   7.758  17.865  0.00  0.00    +0.000 C 
ATOM     22  O   UNL     1       2.984   8.165  16.712  0.00  0.00    +0.000 OA
ATOM     23  H   UNL     1       3.114   6.219  19.172  0.00  0.00    +0.000 HD
BRANCH  21  24
ATOM     24  C   UNL     1       2.041   8.499  18.805  0.00  0.00    +0.000 A 
ATOM     25  C   UNL     1       1.598   9.777  18.436  0.00  0.00    +0.000 A 
ATOM     26  C   UNL     1       0.750  10.488  19.285  0.00  0.00    +0.000 A 
ATOM     27  C   UNL     1       0.366   9.898  20.476  0.00  0.00    +0.000 A 
ATOM     28  N   UNL     1       0.772   8.671  20.865  0.00  0.00    +0.000 NA
ATOM     29  C   UNL     1       1.588   7.999  20.019  0.00  0.00    +0.000 A 
ATOM     30 CL   UNL     1       1.984   6.433  20.620  0.00  0.00    +0.000 Cl
ENDBRANCH  21  24
ENDBRANCH  11  20
TORSDOF 4
ENDMDL
