MODEL 1
REMARK VINA RESULT:      -7.7      0.000      0.000
REMARK  Name = 
REMARK  7 active torsions:
REMARK  status: ('A' for Active; 'I' for Inactive)
REMARK    1  A    between atoms: C_1  and  C_2
REMARK    2  A    between atoms: C_3  and  C_4
REMARK    3  A    between atoms: N_6  and  N_7
REMARK    4  A    between atoms: N_7  and  C_8
REMARK    5  A    between atoms: N_12  and  C_13
REMARK    6  A    between atoms: N_16  and  C_17
REMARK    7  A    between atoms: C_21  and  N_22
REMARK                            x       y       z     vdW  Elec       q    Type
REMARK                         _______ _______ _______ _____ _____    ______ ____
ROOT
ATOM      1  C   UNL     1       2.196   6.172  19.431  0.00  0.00    +0.000 C 
ATOM      2  O   UNL     1       2.150   6.331  18.212  0.00  0.00    +0.000 OA
ATOM      3  N   UNL     1       1.978   7.200  20.326  0.00  0.00    +0.000 N 
ATOM      4  H   UNL     1       1.728   7.047  21.297  0.00  0.00    +0.000 HD
ENDROOT
BRANCH   1   7
ATOM      5  C   UNL     1       4.801   4.403  19.123  0.00  0.00    +0.000 C 
ATOM      6  C   UNL     1       3.546   3.988  19.845  0.00  0.00    +0.000 A 
ATOM      7  C   UNL     1       2.395   4.799  19.994  0.00  0.00    +0.000 A 
ATOM      8  C   UNL     1       1.261   4.288  20.669  0.00  0.00    +0.000 A 
ATOM      9  C   UNL     1       1.237   3.000  21.204  0.00  0.00    +0.000 A 
ATOM     10  C   UNL     1       2.347   2.183  21.062  0.00  0.00    +0.000 A 
ATOM     11  C   UNL     1       3.473   2.674  20.385  0.00  0.00    +0.000 A 
BRANCH  11  12
ATOM     12  N   UNL     1       4.582   1.738  20.235  0.00  0.00    +0.000 N 
ATOM     13  O   UNL     1       4.634   1.078  19.191  0.00  0.00    +0.000 OA
ATOM     14  O   UNL     1       5.380   1.663  21.178  0.00  0.00    +0.000 OA
ENDBRANCH  11  12
ENDBRANCH   1   7
BRANCH   3  15
ATOM     15  N   UNL     1       1.788   8.495  19.812  0.00  0.00    +0.000 N 
ATOM     16  H   UNL     1       1.752   8.495  18.792  0.00  0.00    +0.000 HD
BRANCH  15  17
ATOM     17  C   UNL     1       0.913   9.372  20.440  0.00  0.00    +0.000 A 
ATOM     18  C   UNL     1       0.838   9.348  21.777  0.00  0.00    +0.000 A 
ATOM     19  C   UNL     1      -0.081  10.219  22.512  0.00  0.00    +0.000 A 
ATOM     20  O   UNL     1      -0.122  10.131  23.738  0.00  0.00    +0.000 OA
ATOM     21  N   UNL     1      -0.851  11.062  21.750  0.00  0.00    +0.000 N 
ATOM     22  C   UNL     1      -1.819  11.916  22.410  0.00  0.00    +0.000 C 
ATOM     23  C   UNL     1      -0.772  11.145  20.367  0.00  0.00    +0.000 A 
ATOM     24  O   UNL     1      -1.466  11.942  19.731  0.00  0.00    +0.000 OA
ATOM     25  N   UNL     1       0.121  10.271  19.743  0.00  0.00    +0.000 N 
ATOM     26  C   UNL     1       0.180  10.303  18.286  0.00  0.00    +0.000 C 
ENDBRANCH  15  17
ENDBRANCH   3  15
TORSDOF 4
ENDMDL
MODEL 2
REMARK VINA RESULT:      -7.3      2.424      4.001
REMARK  Name = 
REMARK  7 active torsions:
REMARK  status: ('A' for Active; 'I' for Inactive)
REMARK    1  A    between atoms: C_1  and  C_2
REMARK    2  A    between atoms: C_3  and  C_4
REMARK    3  A    between atoms: N_6  and  N_7
REMARK    4  A    between atoms: N_7  and  C_8
REMARK    5  A    between atoms: N_12  and  C_13
REMARK    6  A    between atoms: N_16  and  C_17
REMARK    7  A    between atoms: C_21  and  N_22
REMARK                            x       y       z     vdW  Elec       q    Type
REMARK                         _______ _______ _______ _____ _____    ______ ____
ROOT
ATOM      1  C   UNL     1       1.996   7.902  19.179  0.00  0.00    +0.000 C 
ATOM      2  O   UNL     1       1.939   7.902  20.408  0.00  0.00    +0.000 OA
ATOM      3  N   UNL     1       1.494   8.932  18.409  0.00  0.00    +0.000 N 
ATOM      4  H   UNL     1       1.776   9.095  17.449  0.00  0.00    +0.000 HD
ENDROOT
BRANCH   1   7
ATOM      5  C   UNL     1       1.560   4.801  19.631  0.00  0.00    +0.000 C 
ATOM      6  C   UNL     1       2.553   5.412  18.677  0.00  0.00    +0.000 A 
ATOM      7  C   UNL     1       2.722   6.802  18.469  0.00  0.00    +0.000 A 
ATOM      8  C   UNL     1       3.710   7.260  17.565  0.00  0.00    +0.000 A 
ATOM      9  C   UNL     1       4.533   6.380  16.861  0.00  0.00    +0.000 A 
ATOM     10  C   UNL     1       4.394   5.015  17.055  0.00  0.00    +0.000 A 
ATOM     11  C   UNL     1       3.425   4.549  17.956  0.00  0.00    +0.000 A 
BRANCH  11  12
ATOM     12  N   UNL     1       3.373   3.103  18.142  0.00  0.00    +0.000 N 
ATOM     13  O   UNL     1       4.156   2.605  18.957  0.00  0.00    +0.000 OA
ATOM     14  O   UNL     1       2.556   2.481  17.450  0.00  0.00    +0.000 OA
ENDBRANCH  11  12
ENDBRANCH   1   7
BRANCH   3  15
ATOM     15  N   UNL     1       0.810   9.973  19.063  0.00  0.00    +0.000 N 
ATOM     16  H   UNL     1       1.436  10.743  19.304  0.00  0.00    +0.000 HD
BRANCH  15  17
ATOM     17  C   UNL     1      -0.458  10.347  18.638  0.00  0.00    +0.000 A 
ATOM     18  C   UNL     1      -0.921   9.838  17.488  0.00  0.00    +0.000 A 
ATOM     19  C   UNL     1      -2.234  10.205  16.957  0.00  0.00    +0.000 A 
ATOM     20  O   UNL     1      -2.592   9.725  15.884  0.00  0.00    +0.000 OA
ATOM     21  N   UNL     1      -2.962  11.093  17.712  0.00  0.00    +0.000 N 
ATOM     22  C   UNL     1      -4.251  11.539  17.220  0.00  0.00    +0.000 C 
ATOM     23  C   UNL     1      -2.535  11.609  18.927  0.00  0.00    +0.000 A 
ATOM     24  O   UNL     1      -3.241  12.380  19.581  0.00  0.00    +0.000 OA
ATOM     25  N   UNL     1      -1.264  11.217  19.355  0.00  0.00    +0.000 N 
ATOM     26  C   UNL     1      -0.773  11.790  20.604  0.00  0.00    +0.000 C 
ENDBRANCH  15  17
ENDBRANCH   3  15
TORSDOF 4
ENDMDL
MODEL 3
REMARK VINA RESULT:      -7.3      2.370      3.544
REMARK  Name = 
REMARK  7 active torsions:
REMARK  status: ('A' for Active; 'I' for Inactive)
REMARK    1  A    between atoms: C_1  and  C_2
REMARK    2  A    between atoms: C_3  and  C_4
REMARK    3  A    between atoms: N_6  and  N_7
REMARK    4  A    between atoms: N_7  and  C_8
REMARK    5  A    between atoms: N_12  and  C_13
REMARK    6  A    between atoms: N_16  and  C_17
REMARK    7  A    between atoms: C_21  and  N_22
REMARK                            x       y       z     vdW  Elec       q    Type
REMARK                         _______ _______ _______ _____ _____    ______ ____
ROOT
ATOM      1  C   UNL     1       2.088   8.385  18.552  0.00  0.00    +0.000 C 
ATOM      2  O   UNL     1       2.399   8.735  17.414  0.00  0.00    +0.000 OA
ATOM      3  N   UNL     1       1.273   9.144  19.368  0.00  0.00    +0.000 N 
ATOM      4  H   UNL     1       0.778   8.763  20.167  0.00  0.00    +0.000 HD
ENDROOT
BRANCH   1   7
ATOM      5  C   UNL     1       4.361   6.570  17.308  0.00  0.00    +0.000 C 
ATOM      6  C   UNL     1       3.512   6.210  18.500  0.00  0.00    +0.000 A 
ATOM      7  C   UNL     1       2.512   7.042  19.059  0.00  0.00    +0.000 A 
ATOM      8  C   UNL     1       1.756   6.583  20.164  0.00  0.00    +0.000 A 
ATOM      9  C   UNL     1       1.964   5.325  20.731  0.00  0.00    +0.000 A 
ATOM     10  C   UNL     1       2.929   4.488  20.195  0.00  0.00    +0.000 A 
ATOM     11  C   UNL     1       3.678   4.928  19.093  0.00  0.00    +0.000 A 
BRANCH  11  12
ATOM     12  N   UNL     1       4.640   3.972  18.556  0.00  0.00    +0.000 N 
ATOM     13  O   UNL     1       5.786   3.997  19.016  0.00  0.00    +0.000 OA
ATOM     14  O   UNL     1       4.237   3.217  17.661  0.00  0.00    +0.000 OA
ENDBRANCH  11  12
ENDBRANCH   1   7
BRANCH   3  15
ATOM     15  N   UNL     1       0.865  10.408  18.905  0.00  0.00    +0.000 N 
ATOM     16  H   UNL     1       1.534  10.800  18.241  0.00  0.00    +0.000 HD
BRANCH  15  17
ATOM     17  C   UNL     1      -0.472  10.645  18.616  0.00  0.00    +0.000 A 
ATOM     18  C   UNL     1      -1.018  10.014  17.567  0.00  0.00    +0.000 A 
ATOM     19  C   UNL     1      -2.413  10.233  17.178  0.00  0.00    +0.000 A 
ATOM     20  O   UNL     1      -2.848   9.645  16.190  0.00  0.00    +0.000 OA
ATOM     21  N   UNL     1      -3.124  11.114  17.956  0.00  0.00    +0.000 N 
ATOM     22  C   UNL     1      -4.496  11.416  17.598  0.00  0.00    +0.000 C 
ATOM     23  C   UNL     1      -2.606  11.753  19.073  0.00  0.00    +0.000 A 
ATOM     24  O   UNL     1      -3.296  12.513  19.756  0.00  0.00    +0.000 OA
ATOM     25  N   UNL     1      -1.264  11.499  19.367  0.00  0.00    +0.000 N 
ATOM     26  C   UNL     1      -0.683  12.203  20.505  0.00  0.00    +0.000 C 
ENDBRANCH  15  17
ENDBRANCH   3  15
TORSDOF 4
ENDMDL
MODEL 4
REMARK VINA RESULT:      -7.3      2.146      2.527
REMARK  Name = 
REMARK  7 active torsions:
REMARK  status: ('A' for Active; 'I' for Inactive)
REMARK    1  A    between atoms: C_1  and  C_2
REMARK    2  A    between atoms: C_3  and  C_4
REMARK    3  A    between atoms: N_6  and  N_7
REMARK    4  A    between atoms: N_7  and  C_8
REMARK    5  A    between atoms: N_12  and  C_13
REMARK    6  A    between atoms: N_16  and  C_17
REMARK    7  A    between atoms: C_21  and  N_22
REMARK                            x       y       z     vdW  Elec       q    Type
REMARK                         _______ _______ _______ _____ _____    ______ ____
ROOT
ATOM      1  C   UNL     1       2.583   7.934  18.012  0.00  0.00    +0.000 C 
ATOM      2  O   UNL     1       2.641   8.546  16.947  0.00  0.00    +0.000 OA
ATOM      3  N   UNL     1       1.889   8.408  19.108  0.00  0.00    +0.000 N 
ATOM      4  H   UNL     1       1.588   7.815  19.873  0.00  0.00    +0.000 HD
ENDROOT
BRANCH   1   7
ATOM      5  C   UNL     1       5.556   7.172  17.245  0.00  0.00    +0.000 C 
ATOM      6  C   UNL     1       4.515   6.213  17.761  0.00  0.00    +0.000 A 
ATOM      7  C   UNL     1       3.194   6.572  18.121  0.00  0.00    +0.000 A 
ATOM      8  C   UNL     1       2.294   5.575  18.566  0.00  0.00    +0.000 A 
ATOM      9  C   UNL     1       2.666   4.234  18.667  0.00  0.00    +0.000 A 
ATOM     10  C   UNL     1       3.950   3.856  18.311  0.00  0.00    +0.000 A 
ATOM     11  C   UNL     1       4.849   4.833  17.857  0.00  0.00    +0.000 A 
BRANCH  11  12
ATOM     12  N   UNL     1       6.165   4.349  17.455  0.00  0.00    +0.000 N 
ATOM     13  O   UNL     1       6.302   3.977  16.285  0.00  0.00    +0.000 OA
ATOM     14  O   UNL     1       7.042   4.329  18.328  0.00  0.00    +0.000 OA
ENDBRANCH  11  12
ENDBRANCH   1   7
BRANCH   3  15
ATOM     15  N   UNL     1       1.308   9.686  19.020  0.00  0.00    +0.000 N 
ATOM     16  H   UNL     1       0.943   9.872  18.085  0.00  0.00    +0.000 HD
BRANCH  15  17
ATOM     17  C   UNL     1       0.540  10.175  20.069  0.00  0.00    +0.000 A 
ATOM     18  C   UNL     1       0.804   9.741  21.308  0.00  0.00    +0.000 A 
ATOM     19  C   UNL     1       0.021  10.184  22.463  0.00  0.00    +0.000 A 
ATOM     20  O   UNL     1       0.296   9.729  23.571  0.00  0.00    +0.000 OA
ATOM     21  N   UNL     1      -0.991  11.073  22.198  0.00  0.00    +0.000 N 
ATOM     22  C   UNL     1      -1.840  11.515  23.287  0.00  0.00    +0.000 C 
ATOM     23  C   UNL     1      -1.269  11.578  20.935  0.00  0.00    +0.000 A 
ATOM     24  O   UNL     1      -2.171  12.398  20.755  0.00  0.00    +0.000 OA
ATOM     25  N   UNL     1      -0.482  11.093  19.887  0.00  0.00    +0.000 N 
ATOM     26  C   UNL     1      -0.792  11.568  18.543  0.00  0.00    +0.000 C 
ENDBRANCH  15  17
ENDBRANCH   3  15
TORSDOF 4
ENDMDL
MODEL 5
REMARK VINA RESULT:      -7.3      2.994      8.302
REMARK  Name = 
REMARK  7 active torsions:
REMARK  status: ('A' for Active; 'I' for Inactive)
REMARK    1  A    between atoms: C_1  and  C_2
REMARK    2  A    between atoms: C_3  and  C_4
REMARK    3  A    between atoms: N_6  and  N_7
REMARK    4  A    between atoms: N_7  and  C_8
REMARK    5  A    between atoms: N_12  and  C_13
REMARK    6  A    between atoms: N_16  and  C_17
REMARK    7  A    between atoms: C_21  and  N_22
REMARK                            x       y       z     vdW  Elec       q    Type
REMARK                         _______ _______ _______ _____ _____    ______ ____
ROOT
ATOM      1  C   UNL     1       2.504   6.373  19.488  0.00  0.00    +0.000 C 
ATOM      2  O   UNL     1       1.917   5.517  18.828  0.00  0.00    +0.000 OA
ATOM      3  N   UNL     1       3.843   6.276  19.813  0.00  0.00    +0.000 N 
ATOM      4  H   UNL     1       4.405   7.072  20.093  0.00  0.00    +0.000 HD
ENDROOT
BRANCH   1   7
ATOM      5  C   UNL     1       2.072   8.911  17.650  0.00  0.00    +0.000 C 
ATOM      6  C   UNL     1       1.607   8.778  19.077  0.00  0.00    +0.000 A 
ATOM      7  C   UNL     1       1.789   7.628  19.881  0.00  0.00    +0.000 A 
ATOM      8  C   UNL     1       1.335   7.631  21.222  0.00  0.00    +0.000 A 
ATOM      9  C   UNL     1       0.703   8.740  21.786  0.00  0.00    +0.000 A 
ATOM     10  C   UNL     1       0.523   9.882  21.023  0.00  0.00    +0.000 A 
ATOM     11  C   UNL     1       0.979   9.895  19.695  0.00  0.00    +0.000 A 
BRANCH  11  12
ATOM     12  N   UNL     1       0.796  11.149  18.973  0.00  0.00    +0.000 N 
ATOM     13  O   UNL     1       1.737  11.949  18.974  0.00  0.00    +0.000 OA
ATOM     14  O   UNL     1      -0.301  11.323  18.427  0.00  0.00    +0.000 OA
ENDBRANCH  11  12
ENDBRANCH   1   7
BRANCH   3  15
ATOM     15  N   UNL     1       4.528   5.103  19.449  0.00  0.00    +0.000 N 
ATOM     16  H   UNL     1       3.991   4.265  19.675  0.00  0.00    +0.000 HD
BRANCH  15  17
ATOM     17  C   UNL     1       5.237   5.053  18.256  0.00  0.00    +0.000 A 
ATOM     18  C   UNL     1       6.149   6.005  18.016  0.00  0.00    +0.000 A 
ATOM     19  C   UNL     1       6.915   6.040  16.770  0.00  0.00    +0.000 A 
ATOM     20  O   UNL     1       7.719   6.954  16.598  0.00  0.00    +0.000 OA
ATOM     21  N   UNL     1       6.649   5.037  15.870  0.00  0.00    +0.000 N 
ATOM     22  C   UNL     1       7.336   5.040  14.593  0.00  0.00    +0.000 C 
ATOM     23  C   UNL     1       5.743   4.012  16.100  0.00  0.00    +0.000 A 
ATOM     24  O   UNL     1       5.562   3.118  15.270  0.00  0.00    +0.000 OA
ATOM     25  N   UNL     1       5.044   4.060  17.309  0.00  0.00    +0.000 N 
ATOM     26  C   UNL     1       4.048   3.022  17.547  0.00  0.00    +0.000 C 
ENDBRANCH  15  17
ENDBRANCH   3  15
TORSDOF 4
ENDMDL
MODEL 6
REMARK VINA RESULT:      -7.2      2.543      3.283
REMARK  Name = 
REMARK  7 active torsions:
REMARK  status: ('A' for Active; 'I' for Inactive)
REMARK    1  A    between atoms: C_1  and  C_2
REMARK    2  A    between atoms: C_3  and  C_4
REMARK    3  A    between atoms: N_6  and  N_7
REMARK    4  A    between atoms: N_7  and  C_8
REMARK    5  A    between atoms: N_12  and  C_13
REMARK    6  A    between atoms: N_16  and  C_17
REMARK    7  A    between atoms: C_21  and  N_22
REMARK                            x       y       z     vdW  Elec       q    Type
REMARK                         _______ _______ _______ _____ _____    ______ ____
ROOT
ATOM      1  C   UNL     1       3.109   5.205  19.712  0.00  0.00    +0.000 C 
ATOM      2  O   UNL     1       2.822   4.396  20.594  0.00  0.00    +0.000 OA
ATOM      3  N   UNL     1       2.762   6.539  19.783  0.00  0.00    +0.000 N 
ATOM      4  H   UNL     1       3.220   7.261  19.238  0.00  0.00    +0.000 HD
ENDROOT
BRANCH   1   7
ATOM      5  C   UNL     1       6.198   5.790  19.356  0.00  0.00    +0.000 C 
ATOM      6  C   UNL     1       5.332   5.047  18.372  0.00  0.00    +0.000 A 
ATOM      7  C   UNL     1       3.955   4.773  18.555  0.00  0.00    +0.000 A 
ATOM      8  C   UNL     1       3.237   4.091  17.544  0.00  0.00    +0.000 A 
ATOM      9  C   UNL     1       3.844   3.669  16.361  0.00  0.00    +0.000 A 
ATOM     10  C   UNL     1       5.188   3.935  16.154  0.00  0.00    +0.000 A 
ATOM     11  C   UNL     1       5.909   4.620  17.144  0.00  0.00    +0.000 A 
BRANCH  11  12
ATOM     12  N   UNL     1       7.305   4.904  16.832  0.00  0.00    +0.000 N 
ATOM     13  O   UNL     1       7.541   5.877  16.108  0.00  0.00    +0.000 OA
ATOM     14  O   UNL     1       8.150   4.131  17.303  0.00  0.00    +0.000 OA
ENDBRANCH  11  12
ENDBRANCH   1   7
BRANCH   3  15
ATOM     15  N   UNL     1       1.969   6.959  20.866  0.00  0.00    +0.000 N 
ATOM     16  H   UNL     1       2.345   6.636  21.758  0.00  0.00    +0.000 HD
BRANCH  15  17
ATOM     17  C   UNL     1       1.426   8.238  20.876  0.00  0.00    +0.000 A 
ATOM     18  C   UNL     1       0.962   8.724  22.035  0.00  0.00    +0.000 A 
ATOM     19  C   UNL     1       0.347  10.049  22.123  0.00  0.00    +0.000 A 
ATOM     20  O   UNL     1      -0.083  10.428  23.210  0.00  0.00    +0.000 OA
ATOM     21  N   UNL     1       0.284  10.763  20.951  0.00  0.00    +0.000 N 
ATOM     22  C   UNL     1      -0.357  12.063  20.956  0.00  0.00    +0.000 C 
ATOM     23  C   UNL     1       0.790  10.311  19.741  0.00  0.00    +0.000 A 
ATOM     24  O   UNL     1       0.735  11.004  18.723  0.00  0.00    +0.000 OA
ATOM     25  N   UNL     1       1.349   9.030  19.742  0.00  0.00    +0.000 N 
ATOM     26  C   UNL     1       1.838   8.514  18.468  0.00  0.00    +0.000 C 
ENDBRANCH  15  17
ENDBRANCH   3  15
TORSDOF 4
ENDMDL
MODEL 7
REMARK VINA RESULT:      -7.2      2.418      8.199
REMARK  Name = 
REMARK  7 active torsions:
REMARK  status: ('A' for Active; 'I' for Inactive)
REMARK    1  A    between atoms: C_1  and  C_2
REMARK    2  A    between atoms: C_3  and  C_4
REMARK    3  A    between atoms: N_6  and  N_7
REMARK    4  A    between atoms: N_7  and  C_8
REMARK    5  A    between atoms: N_12  and  C_13
REMARK    6  A    between atoms: N_16  and  C_17
REMARK    7  A    between atoms: C_21  and  N_22
REMARK                            x       y       z     vdW  Elec       q    Type
REMARK                         _______ _______ _______ _____ _____    ______ ____
ROOT
ATOM      1  C   UNL     1       1.643   9.007  18.511  0.00  0.00    +0.000 C 
ATOM      2  O   UNL     1       1.757   9.400  17.350  0.00  0.00    +0.000 OA
ATOM      3  N   UNL     1       2.016   7.739  18.908  0.00  0.00    +0.000 N 
ATOM      4  H   UNL     1       2.203   7.492  19.874  0.00  0.00    +0.000 HD
ENDROOT
BRANCH   1   7
ATOM      5  C   UNL     1       0.563   8.195  21.371  0.00  0.00    +0.000 C 
ATOM      6  C   UNL     1       0.675   9.604  20.848  0.00  0.00    +0.000 A 
ATOM      7  C   UNL     1       1.180   9.954  19.574  0.00  0.00    +0.000 A 
ATOM      8  C   UNL     1       1.209  11.313  19.181  0.00  0.00    +0.000 A 
ATOM      9  C   UNL     1       0.755  12.334  20.015  0.00  0.00    +0.000 A 
ATOM     10  C   UNL     1       0.245  12.016  21.264  0.00  0.00    +0.000 A 
ATOM     11  C   UNL     1       0.201  10.671  21.661  0.00  0.00    +0.000 A 
BRANCH  11  12
ATOM     12  N   UNL     1      -0.393  10.414  22.968  0.00  0.00    +0.000 N 
ATOM     13  O   UNL     1       0.305   9.836  23.807  0.00  0.00    +0.000 OA
ATOM     14  O   UNL     1      -1.565  10.778  23.129  0.00  0.00    +0.000 OA
ENDBRANCH  11  12
ENDBRANCH   1   7
BRANCH   3  15
ATOM     15  N   UNL     1       2.455   6.838  17.920  0.00  0.00    +0.000 N 
ATOM     16  H   UNL     1       2.122   7.104  16.992  0.00  0.00    +0.000 HD
BRANCH  15  17
ATOM     17  C   UNL     1       3.745   6.327  17.968  0.00  0.00    +0.000 A 
ATOM     18  C   UNL     1       4.704   6.953  17.273  0.00  0.00    +0.000 A 
ATOM     19  C   UNL     1       6.082   6.460  17.247  0.00  0.00    +0.000 A 
ATOM     20  O   UNL     1       6.911   7.063  16.569  0.00  0.00    +0.000 OA
ATOM     21  N   UNL     1       6.330   5.326  17.981  0.00  0.00    +0.000 N 
ATOM     22  C   UNL     1       7.662   4.754  17.960  0.00  0.00    +0.000 C 
ATOM     23  C   UNL     1       5.374   4.674  18.746  0.00  0.00    +0.000 A 
ATOM     24  O   UNL     1       5.656   3.676  19.412  0.00  0.00    +0.000 OA
ATOM     25  N   UNL     1       4.081   5.203  18.705  0.00  0.00    +0.000 N 
ATOM     26  C   UNL     1       3.048   4.501  19.459  0.00  0.00    +0.000 C 
ENDBRANCH  15  17
ENDBRANCH   3  15
TORSDOF 4
ENDMDL
MODEL 8
REMARK VINA RESULT:      -7.2      2.868      3.749
REMARK  Name = 
REMARK  7 active torsions:
REMARK  status: ('A' for Active; 'I' for Inactive)
REMARK    1  A    between atoms: C_1  and  C_2
REMARK    2  A    between atoms: C_3  and  C_4
REMARK    3  A    between atoms: N_6  and  N_7
REMARK    4  A    between atoms: N_7  and  C_8
REMARK    5  A    between atoms: N_12  and  C_13
REMARK    6  A    between atoms: N_16  and  C_17
REMARK    7  A    between atoms: C_21  and  N_22
REMARK                            x       y       z     vdW  Elec       q    Type
REMARK                         _______ _______ _______ _____ _____    ______ ____
ROOT
ATOM      1  C   UNL     1       2.362   7.385  18.864  0.00  0.00    +0.000 C 
ATOM      2  O   UNL     1       2.366   7.476  20.091  0.00  0.00    +0.000 OA
ATOM      3  N   UNL     1       2.069   8.451  18.038  0.00  0.00    +0.000 N 
ATOM      4  H   UNL     1       2.334   8.484  17.059  0.00  0.00    +0.000 HD
ENDROOT
BRANCH   1   7
ATOM      5  C   UNL     1       5.065   6.919  17.286  0.00  0.00    +0.000 C 
ATOM      6  C   UNL     1       3.983   5.889  17.487  0.00  0.00    +0.000 A 
ATOM      7  C   UNL     1       2.788   6.105  18.214  0.00  0.00    +0.000 A 
ATOM      8  C   UNL     1       1.830   5.068  18.309  0.00  0.00    +0.000 A 
ATOM      9  C   UNL     1       2.023   3.825  17.708  0.00  0.00    +0.000 A 
ATOM     10  C   UNL     1       3.180   3.592  16.982  0.00  0.00    +0.000 A 
ATOM     11  C   UNL     1       4.133   4.616  16.871  0.00  0.00    +0.000 A 
BRANCH  11  12
ATOM     12  N   UNL     1       5.300   4.311  16.050  0.00  0.00    +0.000 N 
ATOM     13  O   UNL     1       5.184   4.432  14.826  0.00  0.00    +0.000 OA
ATOM     14  O   UNL     1       6.318   3.933  16.646  0.00  0.00    +0.000 OA
ENDBRANCH  11  12
ENDBRANCH   1   7
BRANCH   3  15
ATOM     15  N   UNL     1       1.669   9.660  18.634  0.00  0.00    +0.000 N 
ATOM     16  H   UNL     1       2.367  10.393  18.507  0.00  0.00    +0.000 HD
BRANCH  15  17
ATOM     17  C   UNL     1       0.346  10.074  18.548  0.00  0.00    +0.000 A 
ATOM     18  C   UNL     1      -0.392   9.639  17.518  0.00  0.00    +0.000 A 
ATOM     19  C   UNL     1      -1.784  10.054  17.339  0.00  0.00    +0.000 A 
ATOM     20  O   UNL     1      -2.401   9.641  16.359  0.00  0.00    +0.000 OA
ATOM     21  N   UNL     1      -2.286  10.906  18.291  0.00  0.00    +0.000 N 
ATOM     22  C   UNL     1      -3.642  11.398  18.148  0.00  0.00    +0.000 C 
ATOM     23  C   UNL     1      -1.566  11.346  19.394  0.00  0.00    +0.000 A 
ATOM     24  O   UNL     1      -2.074  12.088  20.237  0.00  0.00    +0.000 OA
ATOM     25  N   UNL     1      -0.241  10.913  19.482  0.00  0.00    +0.000 N 
ATOM     26  C   UNL     1       0.550  11.407  20.604  0.00  0.00    +0.000 C 
ENDBRANCH  15  17
ENDBRANCH   3  15
TORSDOF 4
ENDMDL
MODEL 9
REMARK VINA RESULT:      -7.2      1.790      2.272
REMARK  Name = 
REMARK  7 active torsions:
REMARK  status: ('A' for Active; 'I' for Inactive)
REMARK    1  A    between atoms: C_1  and  C_2
REMARK    2  A    between atoms: C_3  and  C_4
REMARK    3  A    between atoms: N_6  and  N_7
REMARK    4  A    between atoms: N_7  and  C_8
REMARK    5  A    between atoms: N_12  and  C_13
REMARK    6  A    between atoms: N_16  and  C_17
REMARK    7  A    between atoms: C_21  and  N_22
REMARK                            x       y       z     vdW  Elec       q    Type
REMARK                         _______ _______ _______ _____ _____    ______ ____
ROOT
ATOM      1  C   UNL     1       2.795   7.447  18.187  0.00  0.00    +0.000 C 
ATOM      2  O   UNL     1       2.917   8.000  17.095  0.00  0.00    +0.000 OA
ATOM      3  N   UNL     1       2.002   7.956  19.196  0.00  0.00    +0.000 N 
ATOM      4  H   UNL     1       1.661   7.396  19.970  0.00  0.00    +0.000 HD
ENDROOT
BRANCH   1   7
ATOM      5  C   UNL     1       1.410   4.626  17.820  0.00  0.00    +0.000 C 
ATOM      6  C   UNL     1       2.827   4.849  18.283  0.00  0.00    +0.000 A 
ATOM      7  C   UNL     1       3.440   6.116  18.422  0.00  0.00    +0.000 A 
ATOM      8  C   UNL     1       4.771   6.203  18.896  0.00  0.00    +0.000 A 
ATOM      9  C   UNL     1       5.511   5.069  19.232  0.00  0.00    +0.000 A 
ATOM     10  C   UNL     1       4.930   3.817  19.115  0.00  0.00    +0.000 A 
ATOM     11  C   UNL     1       3.607   3.719  18.657  0.00  0.00    +0.000 A 
BRANCH  11  12
ATOM     12  N   UNL     1       3.049   2.372  18.607  0.00  0.00    +0.000 N 
ATOM     13  O   UNL     1       3.280   1.697  17.598  0.00  0.00    +0.000 OA
ATOM     14  O   UNL     1       2.367   2.014  19.576  0.00  0.00    +0.000 OA
ENDBRANCH  11  12
ENDBRANCH   1   7
BRANCH   3  15
ATOM     15  N   UNL     1       1.387   9.204  18.988  0.00  0.00    +0.000 N 
ATOM     16  H   UNL     1       0.976   9.272  18.057  0.00  0.00    +0.000 HD
BRANCH  15  17
ATOM     17  C   UNL     1       0.656   9.798  20.009  0.00  0.00    +0.000 A 
ATOM     18  C   UNL     1       0.940   9.462  21.274  0.00  0.00    +0.000 A 
ATOM     19  C   UNL     1       0.195  10.020  22.404  0.00  0.00    +0.000 A 
ATOM     20  O   UNL     1       0.485   9.652  23.541  0.00  0.00    +0.000 OA
ATOM     21  N   UNL     1      -0.802  10.910  22.088  0.00  0.00    +0.000 N 
ATOM     22  C   UNL     1      -1.613  11.463  23.155  0.00  0.00    +0.000 C 
ATOM     23  C   UNL     1      -1.098  11.314  20.793  0.00  0.00    +0.000 A 
ATOM     24  O   UNL     1      -1.984  12.140  20.565  0.00  0.00    +0.000 OA
ATOM     25  N   UNL     1      -0.348  10.723  19.773  0.00  0.00    +0.000 N 
ATOM     26  C   UNL     1      -0.679  11.093  18.401  0.00  0.00    +0.000 C 
ENDBRANCH  15  17
ENDBRANCH   3  15
TORSDOF 4
ENDMDL
