MODEL 1
REMARK VINA RESULT:      -6.3      0.000      0.000
REMARK  Name = 
REMARK  3 active torsions:
REMARK  status: ('A' for Active; 'I' for Inactive)
REMARK    1  A    between atoms: C_1  and  C_2
REMARK    2  A    between atoms: C_11  and  O_12
REMARK    3  A    between atoms: C_15  and  O_16
REMARK                            x       y       z     vdW  Elec       q    Type
REMARK                         _______ _______ _______ _____ _____    ______ ____
ROOT
ATOM      1  C   UNL     1       1.217   7.015  21.215  0.00  0.00    +0.000 C 
ATOM      2  C   UNL     1       1.908   7.331  19.909  0.00  0.00    +0.000 A 
ATOM      3  C   UNL     1       1.722   8.497  19.249  0.00  0.00    +0.000 A 
ATOM      4 BR   UNL     1       0.587   9.877  19.862  0.00  0.00    +0.000 Br
ATOM      5  C   UNL     1       2.407   8.799  17.962  0.00  0.00    +0.000 A 
ATOM      6  O   UNL     1       2.254   9.847  17.343  0.00  0.00    +0.000 OA
ATOM      7  O   UNL     1       3.251   7.818  17.475  0.00  0.00    +0.000 OA
ATOM      8  C   UNL     1       3.473   6.590  18.130  0.00  0.00    +0.000 A 
ATOM      9  C   UNL     1       4.359   5.694  17.506  0.00  0.00    +0.000 A 
ATOM     10 BR   UNL     1       5.207   6.142  15.861  0.00  0.00    +0.000 Br
ATOM     11  C   UNL     1       4.624   4.461  18.098  0.00  0.00    +0.000 A 
ATOM     12  C   UNL     1       4.004   4.134  19.301  0.00  0.00    +0.000 A 
ATOM     13 BR   UNL     1       4.345   2.454  20.135  0.00  0.00    +0.000 Br
ATOM     14  C   UNL     1       3.119   5.043  19.913  0.00  0.00    +0.000 A 
ATOM     15  C   UNL     1       2.828   6.302  19.340  0.00  0.00    +0.000 A 
ENDROOT
BRANCH  11  16
ATOM     16  O   UNL     1       5.483   3.564  17.519  0.00  0.00    +0.000 OA
ATOM     17  H   UNL     1       5.821   2.967  18.211  0.00  0.00    +0.000 HD
ENDBRANCH  11  16
BRANCH  14  18
ATOM     18  O   UNL     1       2.530   4.678  21.099  0.00  0.00    +0.000 OA
ATOM     19  H   UNL     1       3.098   4.012  21.533  0.00  0.00    +0.000 HD
ENDBRANCH  14  18
TORSDOF 2
ENDMDL
MODEL 2
REMARK VINA RESULT:      -6.1      2.390      4.393
REMARK  Name = 
REMARK  3 active torsions:
REMARK  status: ('A' for Active; 'I' for Inactive)
REMARK    1  A    between atoms: C_1  and  C_2
REMARK    2  A    between atoms: C_11  and  O_12
REMARK    3  A    between atoms: C_15  and  O_16
REMARK                            x       y       z     vdW  Elec       q    Type
REMARK                         _______ _______ _______ _____ _____    ______ ____
ROOT
ATOM      1  C   UNL     1       3.644   1.801  18.999  0.00  0.00    +0.000 C 
ATOM      2  C   UNL     1       3.245   3.254  19.111  0.00  0.00    +0.000 A 
ATOM      3  C   UNL     1       2.412   3.709  20.075  0.00  0.00    +0.000 A 
ATOM      4 BR   UNL     1       1.641   2.604  21.400  0.00  0.00    +0.000 Br
ATOM      5  C   UNL     1       2.024   5.143  20.178  0.00  0.00    +0.000 A 
ATOM      6  O   UNL     1       1.269   5.580  21.041  0.00  0.00    +0.000 OA
ATOM      7  O   UNL     1       2.566   5.991  19.231  0.00  0.00    +0.000 OA
ATOM      8  C   UNL     1       3.436   5.560  18.210  0.00  0.00    +0.000 A 
ATOM      9  C   UNL     1       3.903   6.544  17.321  0.00  0.00    +0.000 A 
ATOM     10 BR   UNL     1       3.372   8.363  17.508  0.00  0.00    +0.000 Br
ATOM     11  C   UNL     1       4.766   6.187  16.287  0.00  0.00    +0.000 A 
ATOM     12  C   UNL     1       5.154   4.857  16.150  0.00  0.00    +0.000 A 
ATOM     13 BR   UNL     1       6.333   4.337  14.745  0.00  0.00    +0.000 Br
ATOM     14  C   UNL     1       4.678   3.883  17.050  0.00  0.00    +0.000 A 
ATOM     15  C   UNL     1       3.802   4.211  18.109  0.00  0.00    +0.000 A 
ENDROOT
BRANCH  11  16
ATOM     16  O   UNL     1       5.240   7.120  15.403  0.00  0.00    +0.000 OA
ATOM     17  H   UNL     1       4.600   7.854  15.353  0.00  0.00    +0.000 HD
ENDBRANCH  11  16
BRANCH  14  18
ATOM     18  O   UNL     1       5.087   2.584  16.876  0.00  0.00    +0.000 OA
ATOM     19  H   UNL     1       5.215   2.425  15.922  0.00  0.00    +0.000 HD
ENDBRANCH  14  18
TORSDOF 2
ENDMDL
MODEL 3
REMARK VINA RESULT:      -5.8      1.664      3.407
REMARK  Name = 
REMARK  3 active torsions:
REMARK  status: ('A' for Active; 'I' for Inactive)
REMARK    1  A    between atoms: C_1  and  C_2
REMARK    2  A    between atoms: C_11  and  O_12
REMARK    3  A    between atoms: C_15  and  O_16
REMARK                            x       y       z     vdW  Elec       q    Type
REMARK                         _______ _______ _______ _____ _____    ______ ____
ROOT
ATOM      1  C   UNL     1       2.663   9.031  17.646  0.00  0.00    +0.000 C 
ATOM      2  C   UNL     1       2.227   8.160  18.801  0.00  0.00    +0.000 A 
ATOM      3  C   UNL     1       1.416   8.607  19.786  0.00  0.00    +0.000 A 
ATOM      4 BR   UNL     1       0.722  10.363  19.855  0.00  0.00    +0.000 Br
ATOM      5  C   UNL     1       0.992   7.741  20.920  0.00  0.00    +0.000 A 
ATOM      6  O   UNL     1       0.259   8.123  21.827  0.00  0.00    +0.000 OA
ATOM      7  O   UNL     1       1.473   6.446  20.912  0.00  0.00    +0.000 OA
ATOM      8  C   UNL     1       2.320   5.939  19.906  0.00  0.00    +0.000 A 
ATOM      9  C   UNL     1       2.726   4.599  20.039  0.00  0.00    +0.000 A 
ATOM     10 BR   UNL     1       2.146   3.542  21.512  0.00  0.00    +0.000 Br
ATOM     11  C   UNL     1       3.565   4.034  19.081  0.00  0.00    +0.000 A 
ATOM     12  C   UNL     1       3.989   4.807  18.003  0.00  0.00    +0.000 A 
ATOM     13 BR   UNL     1       5.138   4.062  16.676  0.00  0.00    +0.000 Br
ATOM     14  C   UNL     1       3.572   6.148  17.884  0.00  0.00    +0.000 A 
ATOM     15  C   UNL     1       2.722   6.752  18.838  0.00  0.00    +0.000 A 
ENDROOT
BRANCH  11  16
ATOM     16  O   UNL     1       3.980   2.732  19.179  0.00  0.00    +0.000 OA
ATOM     17  H   UNL     1       4.407   2.606  20.046  0.00  0.00    +0.000 HD
ENDBRANCH  11  16
BRANCH  14  18
ATOM     18  O   UNL     1       4.016   6.872  16.805  0.00  0.00    +0.000 OA
ATOM     19  H   UNL     1       3.298   7.468  16.517  0.00  0.00    +0.000 HD
ENDBRANCH  14  18
TORSDOF 2
ENDMDL
MODEL 4
REMARK VINA RESULT:      -5.6      2.508      6.568
REMARK  Name = 
REMARK  3 active torsions:
REMARK  status: ('A' for Active; 'I' for Inactive)
REMARK    1  A    between atoms: C_1  and  C_2
REMARK    2  A    between atoms: C_11  and  O_12
REMARK    3  A    between atoms: C_15  and  O_16
REMARK                            x       y       z     vdW  Elec       q    Type
REMARK                         _______ _______ _______ _____ _____    ______ ____
ROOT
ATOM      1  C   UNL     1       2.969   7.944  17.218  0.00  0.00    +0.000 C 
ATOM      2  C   UNL     1       2.374   7.722  18.589  0.00  0.00    +0.000 A 
ATOM      3  C   UNL     1       2.450   6.536  19.234  0.00  0.00    +0.000 A 
ATOM      4 BR   UNL     1       3.302   5.008  18.519  0.00  0.00    +0.000 Br
ATOM      5  C   UNL     1       1.860   6.327  20.585  0.00  0.00    +0.000 A 
ATOM      6  O   UNL     1       1.914   5.260  21.190  0.00  0.00    +0.000 OA
ATOM      7  O   UNL     1       1.227   7.418  21.150  0.00  0.00    +0.000 OA
ATOM      8  C   UNL     1       1.125   8.671  20.514  0.00  0.00    +0.000 A 
ATOM      9  C   UNL     1       0.449   9.683  21.219  0.00  0.00    +0.000 A 
ATOM     10 BR   UNL     1      -0.280   9.352  22.946  0.00  0.00    +0.000 Br
ATOM     11  C   UNL     1       0.309  10.946  20.648  0.00  0.00    +0.000 A 
ATOM     12  C   UNL     1       0.842  11.187  19.385  0.00  0.00    +0.000 A 
ATOM     13 BR   UNL     1       0.667  12.905  18.577  0.00  0.00    +0.000 Br
ATOM     14  C   UNL     1       1.518  10.162  18.692  0.00  0.00    +0.000 A 
ATOM     15  C   UNL     1       1.677   8.870  19.242  0.00  0.00    +0.000 A 
ENDROOT
BRANCH  11  16
ATOM     16  O   UNL     1      -0.343  11.955  21.306  0.00  0.00    +0.000 OA
ATOM     17  H   UNL     1      -1.069  11.567  21.828  0.00  0.00    +0.000 HD
ENDBRANCH  11  16
BRANCH  14  18
ATOM     18  O   UNL     1       2.027  10.446  17.449  0.00  0.00    +0.000 OA
ATOM     19  H   UNL     1       1.408  11.047  16.991  0.00  0.00    +0.000 HD
ENDBRANCH  14  18
TORSDOF 2
ENDMDL
MODEL 5
REMARK VINA RESULT:      -5.6      2.112      4.619
REMARK  Name = 
REMARK  3 active torsions:
REMARK  status: ('A' for Active; 'I' for Inactive)
REMARK    1  A    between atoms: C_1  and  C_2
REMARK    2  A    between atoms: C_11  and  O_12
REMARK    3  A    between atoms: C_15  and  O_16
REMARK                            x       y       z     vdW  Elec       q    Type
REMARK                         _______ _______ _______ _____ _____    ______ ____
ROOT
ATOM      1  C   UNL     1       4.975   2.400  16.808  0.00  0.00    +0.000 C 
ATOM      2  C   UNL     1       4.668   3.879  16.865  0.00  0.00    +0.000 A 
ATOM      3  C   UNL     1       5.188   4.765  15.986  0.00  0.00    +0.000 A 
ATOM      4 BR   UNL     1       6.355   4.285  14.580  0.00  0.00    +0.000 Br
ATOM      5  C   UNL     1       4.879   6.221  16.050  0.00  0.00    +0.000 A 
ATOM      6  O   UNL     1       5.339   7.045  15.266  0.00  0.00    +0.000 OA
ATOM      7  O   UNL     1       4.026   6.620  17.061  0.00  0.00    +0.000 OA
ATOM      8  C   UNL     1       3.463   5.730  17.998  0.00  0.00    +0.000 A 
ATOM      9  C   UNL     1       2.614   6.290  18.969  0.00  0.00    +0.000 A 
ATOM     10 BR   UNL     1       2.257   8.160  18.994  0.00  0.00    +0.000 Br
ATOM     11  C   UNL     1       2.024   5.469  19.927  0.00  0.00    +0.000 A 
ATOM     12  C   UNL     1       2.286   4.101  19.908  0.00  0.00    +0.000 A 
ATOM     13 BR   UNL     1       1.494   2.951  21.206  0.00  0.00    +0.000 Br
ATOM     14  C   UNL     1       3.139   3.555  18.927  0.00  0.00    +0.000 A 
ATOM     15  C   UNL     1       3.753   4.361  17.942  0.00  0.00    +0.000 A 
ENDROOT
BRANCH  11  16
ATOM     16  O   UNL     1       1.192   5.981  20.887  0.00  0.00    +0.000 OA
ATOM     17  H   UNL     1       1.665   5.982  21.739  0.00  0.00    +0.000 HD
ENDBRANCH  11  16
BRANCH  14  18
ATOM     18  O   UNL     1       3.368   2.202  18.948  0.00  0.00    +0.000 OA
ATOM     19  H   UNL     1       4.294   2.041  18.686  0.00  0.00    +0.000 HD
ENDBRANCH  14  18
TORSDOF 2
ENDMDL
MODEL 6
REMARK VINA RESULT:      -5.5      1.823      3.868
REMARK  Name = 
REMARK  3 active torsions:
REMARK  status: ('A' for Active; 'I' for Inactive)
REMARK    1  A    between atoms: C_1  and  C_2
REMARK    2  A    between atoms: C_11  and  O_12
REMARK    3  A    between atoms: C_15  and  O_16
REMARK                            x       y       z     vdW  Elec       q    Type
REMARK                         _______ _______ _______ _____ _____    ______ ____
ROOT
ATOM      1  C   UNL     1       3.409   8.350  17.781  0.00  0.00    +0.000 C 
ATOM      2  C   UNL     1       3.140   6.967  18.327  0.00  0.00    +0.000 A 
ATOM      3  C   UNL     1       2.332   6.746  19.389  0.00  0.00    +0.000 A 
ATOM      4 BR   UNL     1       1.438   8.121  20.327  0.00  0.00    +0.000 Br
ATOM      5  C   UNL     1       2.073   5.380  19.920  0.00  0.00    +0.000 A 
ATOM      6  O   UNL     1       1.346   5.154  20.882  0.00  0.00    +0.000 OA
ATOM      7  O   UNL     1       2.705   4.340  19.264  0.00  0.00    +0.000 OA
ATOM      8  C   UNL     1       3.554   4.525  18.154  0.00  0.00    +0.000 A 
ATOM      9  C   UNL     1       4.124   3.367  17.596  0.00  0.00    +0.000 A 
ATOM     10 BR   UNL     1       3.749   1.646  18.320  0.00  0.00    +0.000 Br
ATOM     11  C   UNL     1       4.974   3.476  16.498  0.00  0.00    +0.000 A 
ATOM     12  C   UNL     1       5.248   4.735  15.969  0.00  0.00    +0.000 A 
ATOM     13 BR   UNL     1       6.409   4.917  14.468  0.00  0.00    +0.000 Br
ATOM     14  C   UNL     1       4.668   5.886  16.540  0.00  0.00    +0.000 A 
ATOM     15  C   UNL     1       3.802   5.810  17.654  0.00  0.00    +0.000 A 
ENDROOT
BRANCH  11  16
ATOM     16  O   UNL     1       5.546   2.369  15.929  0.00  0.00    +0.000 OA
ATOM     17  H   UNL     1       5.223   1.577  16.397  0.00  0.00    +0.000 HD
ENDBRANCH  11  16
BRANCH  14  18
ATOM     18  O   UNL     1       4.967   7.105  15.985  0.00  0.00    +0.000 OA
ATOM     19  H   UNL     1       5.914   7.289  16.133  0.00  0.00    +0.000 HD
ENDBRANCH  14  18
TORSDOF 2
ENDMDL
MODEL 7
REMARK VINA RESULT:      -5.3      7.535      9.804
REMARK  Name = 
REMARK  3 active torsions:
REMARK  status: ('A' for Active; 'I' for Inactive)
REMARK    1  A    between atoms: C_1  and  C_2
REMARK    2  A    between atoms: C_11  and  O_12
REMARK    3  A    between atoms: C_15  and  O_16
REMARK                            x       y       z     vdW  Elec       q    Type
REMARK                         _______ _______ _______ _____ _____    ______ ____
ROOT
ATOM      1  C   UNL     1      -7.212  12.265  18.599  0.00  0.00    +0.000 C 
ATOM      2  C   UNL     1      -5.985  12.434  19.464  0.00  0.00    +0.000 A 
ATOM      3  C   UNL     1      -6.044  12.919  20.726  0.00  0.00    +0.000 A 
ATOM      4 BR   UNL     1      -7.649  13.444  21.572  0.00  0.00    +0.000 Br
ATOM      5  C   UNL     1      -4.829  13.082  21.571  0.00  0.00    +0.000 A 
ATOM      6  O   UNL     1      -4.855  13.521  22.717  0.00  0.00    +0.000 OA
ATOM      7  O   UNL     1      -3.630  12.709  20.995  0.00  0.00    +0.000 OA
ATOM      8  C   UNL     1      -3.523  12.200  19.685  0.00  0.00    +0.000 A 
ATOM      9  C   UNL     1      -2.232  11.865  19.241  0.00  0.00    +0.000 A 
ATOM     10 BR   UNL     1      -0.718  12.094  20.373  0.00  0.00    +0.000 Br
ATOM     11  C   UNL     1      -2.053  11.357  17.956  0.00  0.00    +0.000 A 
ATOM     12  C   UNL     1      -3.160  11.189  17.128  0.00  0.00    +0.000 A 
ATOM     13 BR   UNL     1      -2.949  10.498  15.364  0.00  0.00    +0.000 Br
ATOM     14  C   UNL     1      -4.448  11.529  17.589  0.00  0.00    +0.000 A 
ATOM     15  C   UNL     1      -4.664  12.046  18.886  0.00  0.00    +0.000 A 
ENDROOT
BRANCH  11  16
ATOM     16  O   UNL     1      -0.809  11.021  17.491  0.00  0.00    +0.000 OA
ATOM     17  H   UNL     1      -0.410  11.807  17.076  0.00  0.00    +0.000 HD
ENDBRANCH  11  16
BRANCH  14  18
ATOM     18  O   UNL     1      -5.510  11.347  16.738  0.00  0.00    +0.000 OA
ATOM     19  H   UNL     1      -5.566  10.399  16.512  0.00  0.00    +0.000 HD
ENDBRANCH  14  18
TORSDOF 2
ENDMDL
MODEL 8
REMARK VINA RESULT:      -5.2      5.974      8.387
REMARK  Name = 
REMARK  3 active torsions:
REMARK  status: ('A' for Active; 'I' for Inactive)
REMARK    1  A    between atoms: C_1  and  C_2
REMARK    2  A    between atoms: C_11  and  O_12
REMARK    3  A    between atoms: C_15  and  O_16
REMARK                            x       y       z     vdW  Elec       q    Type
REMARK                         _______ _______ _______ _____ _____    ______ ____
ROOT
ATOM      1  C   UNL     1      -3.768  10.776  16.683  0.00  0.00    +0.000 C 
ATOM      2  C   UNL     1      -3.696  11.438  18.040  0.00  0.00    +0.000 A 
ATOM      3  C   UNL     1      -4.755  12.061  18.604  0.00  0.00    +0.000 A 
ATOM      4 BR   UNL     1      -6.454  12.187  17.787  0.00  0.00    +0.000 Br
ATOM      5  C   UNL     1      -4.674  12.711  19.942  0.00  0.00    +0.000 A 
ATOM      6  O   UNL     1      -5.620  13.283  20.475  0.00  0.00    +0.000 OA
ATOM      7  O   UNL     1      -3.451  12.642  20.580  0.00  0.00    +0.000 OA
ATOM      8  C   UNL     1      -2.322  12.004  20.028  0.00  0.00    +0.000 A 
ATOM      9  C   UNL     1      -1.147  12.020  20.801  0.00  0.00    +0.000 A 
ATOM     10 BR   UNL     1      -1.110  12.866  22.506  0.00  0.00    +0.000 Br
ATOM     11  C   UNL     1       0.007  11.409  20.316  0.00  0.00    +0.000 A 
ATOM     12  C   UNL     1      -0.021  10.791  19.069  0.00  0.00    +0.000 A 
ATOM     13 BR   UNL     1       1.542   9.947  18.376  0.00  0.00    +0.000 Br
ATOM     14  C   UNL     1      -1.207  10.783  18.307  0.00  0.00    +0.000 A 
ATOM     15  C   UNL     1      -2.394  11.394  18.770  0.00  0.00    +0.000 A 
ENDROOT
BRANCH  11  16
ATOM     16  O   UNL     1       1.168  11.406  21.042  0.00  0.00    +0.000 OA
ATOM     17  H   UNL     1       1.910  11.212  20.440  0.00  0.00    +0.000 HD
ENDBRANCH  11  16
BRANCH  14  18
ATOM     18  O   UNL     1      -1.187  10.162  17.083  0.00  0.00    +0.000 OA
ATOM     19  H   UNL     1      -1.383  10.827  16.395  0.00  0.00    +0.000 HD
ENDBRANCH  14  18
TORSDOF 2
ENDMDL
MODEL 9
REMARK VINA RESULT:      -5.0      6.642      8.885
REMARK  Name = 
REMARK  3 active torsions:
REMARK  status: ('A' for Active; 'I' for Inactive)
REMARK    1  A    between atoms: C_1  and  C_2
REMARK    2  A    between atoms: C_11  and  O_12
REMARK    3  A    between atoms: C_15  and  O_16
REMARK                            x       y       z     vdW  Elec       q    Type
REMARK                         _______ _______ _______ _____ _____    ______ ____
ROOT
ATOM      1  C   UNL     1      -4.510  13.452  21.400  0.00  0.00    +0.000 C 
ATOM      2  C   UNL     1      -4.656  12.866  20.015  0.00  0.00    +0.000 A 
ATOM      3  C   UNL     1      -5.802  12.956  19.302  0.00  0.00    +0.000 A 
ATOM      4 BR   UNL     1      -7.362  13.817  19.932  0.00  0.00    +0.000 Br
ATOM      5  C   UNL     1      -5.937  12.375  17.938  0.00  0.00    +0.000 A 
ATOM      6  O   UNL     1      -6.966  12.442  17.272  0.00  0.00    +0.000 OA
ATOM      7  O   UNL     1      -4.820  11.736  17.433  0.00  0.00    +0.000 OA
ATOM      8  C   UNL     1      -3.607  11.620  18.141  0.00  0.00    +0.000 A 
ATOM      9  C   UNL     1      -2.561  10.939  17.493  0.00  0.00    +0.000 A 
ATOM     10 BR   UNL     1      -2.796  10.222  15.745  0.00  0.00    +0.000 Br
ATOM     11  C   UNL     1      -1.334  10.786  18.135  0.00  0.00    +0.000 A 
ATOM     12  C   UNL     1      -1.163  11.311  19.414  0.00  0.00    +0.000 A 
ATOM     13 BR   UNL     1       0.504  11.117  20.319  0.00  0.00    +0.000 Br
ATOM     14  C   UNL     1      -2.221  11.991  20.049  0.00  0.00    +0.000 A 
ATOM     15  C   UNL     1      -3.477  12.164  19.426  0.00  0.00    +0.000 A 
ENDROOT
BRANCH  11  16
ATOM     16  O   UNL     1      -0.294  10.129  17.533  0.00  0.00    +0.000 OA
ATOM     17  H   UNL     1      -0.458  10.101  16.573  0.00  0.00    +0.000 HD
ENDBRANCH  11  16
BRANCH  14  18
ATOM     18  O   UNL     1      -2.006  12.491  21.310  0.00  0.00    +0.000 OA
ATOM     19  H   UNL     1      -2.862  12.529  21.777  0.00  0.00    +0.000 HD
ENDBRANCH  14  18
TORSDOF 2
ENDMDL
