MODEL 1
REMARK VINA RESULT:      -7.7      0.000      0.000
REMARK  Name = 
REMARK  4 active torsions:
REMARK  status: ('A' for Active; 'I' for Inactive)
REMARK    1  A    between atoms: C_1  and  C_2
REMARK    2  A    between atoms: C_2  and  N_3
REMARK    3  A    between atoms: C_12  and  O_13
REMARK    4  A    between atoms: C_14  and  O_15
REMARK                            x       y       z     vdW  Elec       q    Type
REMARK                         _______ _______ _______ _____ _____    ______ ____
ROOT
ATOM      1  N   UNL     1       7.172   5.635  15.806  0.00  0.00    +0.000 NA
ATOM      2  C   UNL     1       7.280   4.579  16.834  0.00  0.00    +0.000 C 
ATOM      3  C   UNL     1       7.230   5.205  18.209  0.00  0.00    +0.000 C 
ATOM      4  C   UNL     1       5.787   5.604  18.325  0.00  0.00    +0.000 A 
ATOM      5  C   UNL     1       5.301   6.483  17.352  0.00  0.00    +0.000 A 
ATOM      6  C   UNL     1       3.994   6.953  17.472  0.00  0.00    +0.000 A 
ATOM      7  C   UNL     1       3.110   6.292  18.336  0.00  0.00    +0.000 A 
ATOM      8  C   UNL     1       3.508   5.130  18.996  0.00  0.00    +0.000 A 
ATOM      9  N   UNL     1       2.593   4.242  19.449  0.00  0.00    +0.000 NA
ATOM     10  C   UNL     1       3.103   3.038  19.786  0.00  0.00    +0.000 A 
ATOM     11  C   UNL     1       4.454   2.747  19.812  0.00  0.00    +0.000 A 
ATOM     12  N   UNL     1       5.366   3.667  19.522  0.00  0.00    +0.000 NA
ATOM     13  C   UNL     1       4.893   4.827  19.031  0.00  0.00    +0.000 A 
ATOM     14  C   UNL     1       6.142   6.685  16.085  0.00  0.00    +0.000 C 
ENDROOT
BRANCH   1  16
ATOM     15  C   UNL     1       5.887   4.066  14.323  0.00  0.00    +0.000 C 
ATOM     16  C   UNL     1       7.093   4.968  14.502  0.00  0.00    +0.000 C 
ENDBRANCH   1  16
BRANCH  10  17
ATOM     17  O   UNL     1       2.183   2.051  19.947  0.00  0.00    +0.000 OA
ATOM     18  H   UNL     1       2.710   1.399  20.443  0.00  0.00    +0.000 HD
ENDBRANCH  10  17
BRANCH  11  19
ATOM     19  O   UNL     1       4.930   1.472  19.936  0.00  0.00    +0.000 OA
ATOM     20  H   UNL     1       5.897   1.563  19.935  0.00  0.00    +0.000 HD
ENDBRANCH  11  19
TORSDOF 3
ENDMDL
MODEL 2
REMARK VINA RESULT:      -7.5      2.567      5.171
REMARK  Name = 
REMARK  4 active torsions:
REMARK  status: ('A' for Active; 'I' for Inactive)
REMARK    1  A    between atoms: C_1  and  C_2
REMARK    2  A    between atoms: C_2  and  N_3
REMARK    3  A    between atoms: C_12  and  O_13
REMARK    4  A    between atoms: C_14  and  O_15
REMARK                            x       y       z     vdW  Elec       q    Type
REMARK                         _______ _______ _______ _____ _____    ______ ____
ROOT
ATOM      1  N   UNL     1       2.426   2.806  19.627  0.00  0.00    +0.000 NA
ATOM      2  C   UNL     1       3.647   2.501  18.853  0.00  0.00    +0.000 C 
ATOM      3  C   UNL     1       3.414   2.820  17.394  0.00  0.00    +0.000 C 
ATOM      4  C   UNL     1       3.413   4.322  17.394  0.00  0.00    +0.000 A 
ATOM      5  C   UNL     1       2.461   4.947  18.205  0.00  0.00    +0.000 A 
ATOM      6  C   UNL     1       2.361   6.338  18.165  0.00  0.00    +0.000 A 
ATOM      7  C   UNL     1       3.408   7.079  17.600  0.00  0.00    +0.000 A 
ATOM      8  C   UNL     1       4.568   6.439  17.165  0.00  0.00    +0.000 A 
ATOM      9  N   UNL     1       5.732   7.119  17.050  0.00  0.00    +0.000 NA
ATOM     10  C   UNL     1       6.825   6.336  16.920  0.00  0.00    +0.000 A 
ATOM     11  C   UNL     1       6.783   4.962  16.773  0.00  0.00    +0.000 A 
ATOM     12  N   UNL     1       5.630   4.307  16.725  0.00  0.00    +0.000 NA
ATOM     13  C   UNL     1       4.531   5.030  17.007  0.00  0.00    +0.000 A 
ATOM     14  C   UNL     1       1.755   4.095  19.268  0.00  0.00    +0.000 C 
ENDROOT
BRANCH   1  16
ATOM     15  C   UNL     1       1.553   2.666  21.979  0.00  0.00    +0.000 C 
ATOM     16  C   UNL     1       2.746   2.605  21.045  0.00  0.00    +0.000 C 
ENDBRANCH   1  16
BRANCH  10  17
ATOM     17  O   UNL     1       8.011   6.972  17.110  0.00  0.00    +0.000 OA
ATOM     18  H   UNL     1       8.312   6.541  17.930  0.00  0.00    +0.000 HD
ENDBRANCH  10  17
BRANCH  11  19
ATOM     19  O   UNL     1       7.897   4.178  16.870  0.00  0.00    +0.000 OA
ATOM     20  H   UNL     1       8.640   4.767  16.655  0.00  0.00    +0.000 HD
ENDBRANCH  11  19
TORSDOF 3
ENDMDL
MODEL 3
REMARK VINA RESULT:      -6.9      2.589      5.000
REMARK  Name = 
REMARK  4 active torsions:
REMARK  status: ('A' for Active; 'I' for Inactive)
REMARK    1  A    between atoms: C_1  and  C_2
REMARK    2  A    between atoms: C_2  and  N_3
REMARK    3  A    between atoms: C_12  and  O_13
REMARK    4  A    between atoms: C_14  and  O_15
REMARK                            x       y       z     vdW  Elec       q    Type
REMARK                         _______ _______ _______ _____ _____    ______ ____
ROOT
ATOM      1  N   UNL     1       2.261   3.832  19.451  0.00  0.00    +0.000 NA
ATOM      2  C   UNL     1       3.580   3.674  20.096  0.00  0.00    +0.000 C 
ATOM      3  C   UNL     1       4.521   2.959  19.154  0.00  0.00    +0.000 C 
ATOM      4  C   UNL     1       4.803   4.015  18.124  0.00  0.00    +0.000 A 
ATOM      5  C   UNL     1       3.699   4.531  17.439  0.00  0.00    +0.000 A 
ATOM      6  C   UNL     1       3.922   5.446  16.410  0.00  0.00    +0.000 A 
ATOM      7  C   UNL     1       5.172   6.072  16.315  0.00  0.00    +0.000 A 
ATOM      8  C   UNL     1       6.146   5.849  17.288  0.00  0.00    +0.000 A 
ATOM      9  N   UNL     1       7.144   6.741  17.486  0.00  0.00    +0.000 NA
ATOM     10  C   UNL     1       7.828   6.566  18.637  0.00  0.00    +0.000 A 
ATOM     11  C   UNL     1       7.646   5.497  19.493  0.00  0.00    +0.000 A 
ATOM     12  N   UNL     1       6.777   4.532  19.219  0.00  0.00    +0.000 NA
ATOM     13  C   UNL     1       5.968   4.751  18.167  0.00  0.00    +0.000 A 
ATOM     14  C   UNL     1       2.304   4.254  18.016  0.00  0.00    +0.000 C 
ENDROOT
BRANCH   1  16
ATOM     15  C   UNL     1       1.875   6.085  20.494  0.00  0.00    +0.000 C 
ATOM     16  C   UNL     1       1.430   4.642  20.349  0.00  0.00    +0.000 C 
ENDBRANCH   1  16
BRANCH  10  17
ATOM     17  O   UNL     1       8.615   7.613  19.000  0.00  0.00    +0.000 OA
ATOM     18  H   UNL     1       8.985   7.862  18.135  0.00  0.00    +0.000 HD
ENDBRANCH  10  17
BRANCH  11  19
ATOM     19  O   UNL     1       8.183   5.460  20.749  0.00  0.00    +0.000 OA
ATOM     20  H   UNL     1       8.600   4.585  20.819  0.00  0.00    +0.000 HD
ENDBRANCH  11  19
TORSDOF 3
ENDMDL
MODEL 4
REMARK VINA RESULT:      -6.8      2.698      5.065
REMARK  Name = 
REMARK  4 active torsions:
REMARK  status: ('A' for Active; 'I' for Inactive)
REMARK    1  A    between atoms: C_1  and  C_2
REMARK    2  A    between atoms: C_2  and  N_3
REMARK    3  A    between atoms: C_12  and  O_13
REMARK    4  A    between atoms: C_14  and  O_15
REMARK                            x       y       z     vdW  Elec       q    Type
REMARK                         _______ _______ _______ _____ _____    ______ ____
ROOT
ATOM      1  N   UNL     1       2.585   3.655  19.523  0.00  0.00    +0.000 NA
ATOM      2  C   UNL     1       4.007   3.378  19.814  0.00  0.00    +0.000 C 
ATOM      3  C   UNL     1       4.731   3.053  18.528  0.00  0.00    +0.000 C 
ATOM      4  C   UNL     1       4.807   4.395  17.858  0.00  0.00    +0.000 A 
ATOM      5  C   UNL     1       3.591   5.037  17.604  0.00  0.00    +0.000 A 
ATOM      6  C   UNL     1       3.608   6.241  16.901  0.00  0.00    +0.000 A 
ATOM      7  C   UNL     1       4.818   6.937  16.771  0.00  0.00    +0.000 A 
ATOM      8  C   UNL     1       5.967   6.474  17.411  0.00  0.00    +0.000 A 
ATOM      9  N   UNL     1       6.992   7.313  17.687  0.00  0.00    +0.000 NA
ATOM     10  C   UNL     1       7.894   6.823  18.565  0.00  0.00    +0.000 A 
ATOM     11  C   UNL     1       7.880   5.529  19.051  0.00  0.00    +0.000 A 
ATOM     12  N   UNL     1       6.966   4.652  18.655  0.00  0.00    +0.000 NA
ATOM     13  C   UNL     1       5.963   5.146  17.908  0.00  0.00    +0.000 A 
ATOM     14  C   UNL     1       2.340   4.512  18.321  0.00  0.00    +0.000 C 
ENDROOT
BRANCH   1  16
ATOM     15  C   UNL     1       1.602   2.967  21.731  0.00  0.00    +0.000 C 
ATOM     16  C   UNL     1       1.960   4.091  20.778  0.00  0.00    +0.000 C 
ENDBRANCH   1  16
BRANCH  10  17
ATOM     17  O   UNL     1       8.746   7.745  19.085  0.00  0.00    +0.000 OA
ATOM     18  H   UNL     1       8.213   8.076  19.829  0.00  0.00    +0.000 HD
ENDBRANCH  10  17
BRANCH  11  19
ATOM     19  O   UNL     1       8.661   5.128  20.098  0.00  0.00    +0.000 OA
ATOM     20  H   UNL     1       9.571   5.152  19.758  0.00  0.00    +0.000 HD
ENDBRANCH  11  19
TORSDOF 3
ENDMDL
MODEL 5
REMARK VINA RESULT:      -6.6      1.189      1.379
REMARK  Name = 
REMARK  4 active torsions:
REMARK  status: ('A' for Active; 'I' for Inactive)
REMARK    1  A    between atoms: C_1  and  C_2
REMARK    2  A    between atoms: C_2  and  N_3
REMARK    3  A    between atoms: C_12  and  O_13
REMARK    4  A    between atoms: C_14  and  O_15
REMARK                            x       y       z     vdW  Elec       q    Type
REMARK                         _______ _______ _______ _____ _____    ______ ____
ROOT
ATOM      1  N   UNL     1       5.859   5.153  15.647  0.00  0.00    +0.000 NA
ATOM      2  C   UNL     1       5.815   4.176  16.754  0.00  0.00    +0.000 C 
ATOM      3  C   UNL     1       6.171   4.865  18.051  0.00  0.00    +0.000 C 
ATOM      4  C   UNL     1       4.945   5.692  18.318  0.00  0.00    +0.000 A 
ATOM      5  C   UNL     1       4.590   6.619  17.334  0.00  0.00    +0.000 A 
ATOM      6  C   UNL     1       3.515   7.473  17.580  0.00  0.00    +0.000 A 
ATOM      7  C   UNL     1       2.625   7.164  18.618  0.00  0.00    +0.000 A 
ATOM      8  C   UNL     1       2.765   5.975  19.334  0.00  0.00    +0.000 A 
ATOM      9  N   UNL     1       1.714   5.437  19.996  0.00  0.00    +0.000 NA
ATOM     10  C   UNL     1       1.896   4.156  20.384  0.00  0.00    +0.000 A 
ATOM     11  C   UNL     1       3.088   3.469  20.258  0.00  0.00    +0.000 A 
ATOM     12  N   UNL     1       4.171   4.048  19.754  0.00  0.00    +0.000 NA
ATOM     13  C   UNL     1       3.987   5.267  19.214  0.00  0.00    +0.000 A 
ATOM     14  C   UNL     1       5.241   6.482  15.951  0.00  0.00    +0.000 C 
ENDROOT
BRANCH   1  16
ATOM     15  C   UNL     1       6.478   3.984  13.511  0.00  0.00    +0.000 C 
ATOM     16  C   UNL     1       5.382   4.467  14.441  0.00  0.00    +0.000 C 
ENDBRANCH   1  16
BRANCH  10  17
ATOM     17  O   UNL     1       0.764   3.509  20.768  0.00  0.00    +0.000 OA
ATOM     18  H   UNL     1       0.095   4.182  20.550  0.00  0.00    +0.000 HD
ENDBRANCH  10  17
BRANCH  11  19
ATOM     19  O   UNL     1       3.182   2.119  20.447  0.00  0.00    +0.000 OA
ATOM     20  H   UNL     1       3.600   2.016  21.319  0.00  0.00    +0.000 HD
ENDBRANCH  11  19
TORSDOF 3
ENDMDL
MODEL 6
REMARK VINA RESULT:      -6.6      2.491      5.162
REMARK  Name = 
REMARK  4 active torsions:
REMARK  status: ('A' for Active; 'I' for Inactive)
REMARK    1  A    between atoms: C_1  and  C_2
REMARK    2  A    between atoms: C_2  and  N_3
REMARK    3  A    between atoms: C_12  and  O_13
REMARK    4  A    between atoms: C_14  and  O_15
REMARK                            x       y       z     vdW  Elec       q    Type
REMARK                         _______ _______ _______ _____ _____    ______ ____
ROOT
ATOM      1  N   UNL     1       1.922   3.194  20.170  0.00  0.00    +0.000 NA
ATOM      2  C   UNL     1       2.633   2.648  18.996  0.00  0.00    +0.000 C 
ATOM      3  C   UNL     1       2.063   3.252  17.733  0.00  0.00    +0.000 C 
ATOM      4  C   UNL     1       2.588   4.658  17.788  0.00  0.00    +0.000 A 
ATOM      5  C   UNL     1       2.238   5.413  18.912  0.00  0.00    +0.000 A 
ATOM      6  C   UNL     1       2.625   6.752  18.962  0.00  0.00    +0.000 A 
ATOM      7  C   UNL     1       3.618   7.207  18.083  0.00  0.00    +0.000 A 
ATOM      8  C   UNL     1       4.269   6.312  17.234  0.00  0.00    +0.000 A 
ATOM      9  N   UNL     1       5.491   6.600  16.730  0.00  0.00    +0.000 NA
ATOM     10  C   UNL     1       6.133   5.544  16.185  0.00  0.00    +0.000 A 
ATOM     11  C   UNL     1       5.566   4.296  16.013  0.00  0.00    +0.000 A 
ATOM     12  N   UNL     1       4.309   4.053  16.361  0.00  0.00    +0.000 NA
ATOM     13  C   UNL     1       3.691   5.031  17.049  0.00  0.00    +0.000 A 
ATOM     14  C   UNL     1       1.667   4.669  20.126  0.00  0.00    +0.000 C 
ENDROOT
BRANCH   1  16
ATOM     15  C   UNL     1       3.970   2.088  21.115  0.00  0.00    +0.000 C 
ATOM     16  C   UNL     1       2.596   2.680  21.367  0.00  0.00    +0.000 C 
ENDBRANCH   1  16
BRANCH  10  17
ATOM     17  O   UNL     1       7.459   5.736  15.956  0.00  0.00    +0.000 OA
ATOM     18  H   UNL     1       7.823   5.504  16.828  0.00  0.00    +0.000 HD
ENDBRANCH  10  17
BRANCH  11  19
ATOM     19  O   UNL     1       6.300   3.196  15.671  0.00  0.00    +0.000 OA
ATOM     20  H   UNL     1       5.670   2.598  15.236  0.00  0.00    +0.000 HD
ENDBRANCH  11  19
TORSDOF 3
ENDMDL
MODEL 7
REMARK VINA RESULT:      -6.5      3.659      4.880
REMARK  Name = 
REMARK  4 active torsions:
REMARK  status: ('A' for Active; 'I' for Inactive)
REMARK    1  A    between atoms: C_1  and  C_2
REMARK    2  A    between atoms: C_2  and  N_3
REMARK    3  A    between atoms: C_12  and  O_13
REMARK    4  A    between atoms: C_14  and  O_15
REMARK                            x       y       z     vdW  Elec       q    Type
REMARK                         _______ _______ _______ _____ _____    ______ ____
ROOT
ATOM      1  N   UNL     1       6.642   6.030  17.701  0.00  0.00    +0.000 NA
ATOM      2  C   UNL     1       5.859   7.093  17.038  0.00  0.00    +0.000 C 
ATOM      3  C   UNL     1       4.569   6.513  16.505  0.00  0.00    +0.000 C 
ATOM      4  C   UNL     1       3.780   6.284  17.762  0.00  0.00    +0.000 A 
ATOM      5  C   UNL     1       4.356   5.441  18.718  0.00  0.00    +0.000 A 
ATOM      6  C   UNL     1       3.619   5.127  19.859  0.00  0.00    +0.000 A 
ATOM      7  C   UNL     1       2.501   5.907  20.184  0.00  0.00    +0.000 A 
ATOM      8  C   UNL     1       2.184   7.033  19.424  0.00  0.00    +0.000 A 
ATOM      9  N   UNL     1       1.432   8.031  19.944  0.00  0.00    +0.000 NA
ATOM     10  C   UNL     1       1.456   9.178  19.231  0.00  0.00    +0.000 A 
ATOM     11  C   UNL     1       2.069   9.313  18.000  0.00  0.00    +0.000 A 
ATOM     12  N   UNL     1       2.672   8.288  17.411  0.00  0.00    +0.000 NA
ATOM     13  C   UNL     1       2.806   7.177  18.157  0.00  0.00    +0.000 A 
ATOM     14  C   UNL     1       5.848   5.111  18.576  0.00  0.00    +0.000 C 
ENDROOT
BRANCH   1  16
ATOM     15  C   UNL     1       8.043   8.106  17.890  0.00  0.00    +0.000 C 
ATOM     16  C   UNL     1       7.814   6.668  18.311  0.00  0.00    +0.000 C 
ENDBRANCH   1  16
BRANCH  10  17
ATOM     17  O   UNL     1       0.970  10.267  19.881  0.00  0.00    +0.000 OA
ATOM     18  H   UNL     1       1.578  10.304  20.640  0.00  0.00    +0.000 HD
ENDBRANCH  10  17
BRANCH  11  19
ATOM     19  O   UNL     1       2.272  10.528  17.409  0.00  0.00    +0.000 OA
ATOM     20  H   UNL     1       2.702  10.327  16.561  0.00  0.00    +0.000 HD
ENDBRANCH  11  19
TORSDOF 3
ENDMDL
MODEL 8
REMARK VINA RESULT:      -6.4      1.938      3.204
REMARK  Name = 
REMARK  4 active torsions:
REMARK  status: ('A' for Active; 'I' for Inactive)
REMARK    1  A    between atoms: C_1  and  C_2
REMARK    2  A    between atoms: C_2  and  N_3
REMARK    3  A    between atoms: C_12  and  O_13
REMARK    4  A    between atoms: C_14  and  O_15
REMARK                            x       y       z     vdW  Elec       q    Type
REMARK                         _______ _______ _______ _____ _____    ______ ____
ROOT
ATOM      1  N   UNL     1       6.260   6.628  16.732  0.00  0.00    +0.000 NA
ATOM      2  C   UNL     1       5.202   7.144  17.625  0.00  0.00    +0.000 C 
ATOM      3  C   UNL     1       3.846   6.796  17.055  0.00  0.00    +0.000 C 
ATOM      4  C   UNL     1       3.768   5.316  17.303  0.00  0.00    +0.000 A 
ATOM      5  C   UNL     1       4.773   4.532  16.730  0.00  0.00    +0.000 A 
ATOM      6  C   UNL     1       4.690   3.145  16.856  0.00  0.00    +0.000 A 
ATOM      7  C   UNL     1       3.825   2.600  17.814  0.00  0.00    +0.000 A 
ATOM      8  C   UNL     1       3.126   3.434  18.687  0.00  0.00    +0.000 A 
ATOM      9  N   UNL     1       2.664   2.968  19.870  0.00  0.00    +0.000 NA
ATOM     10  C   UNL     1       2.285   3.930  20.739  0.00  0.00    +0.000 A 
ATOM     11  C   UNL     1       2.226   5.276  20.430  0.00  0.00    +0.000 A 
ATOM     12  N   UNL     1       2.526   5.720  19.216  0.00  0.00    +0.000 NA
ATOM     13  C   UNL     1       3.057   4.816  18.374  0.00  0.00    +0.000 A 
ATOM     14  C   UNL     1       6.030   5.244  16.212  0.00  0.00    +0.000 C 
ENDROOT
BRANCH   1  16
ATOM     15  C   UNL     1       7.748   6.122  18.692  0.00  0.00    +0.000 C 
ATOM     16  C   UNL     1       7.547   6.877  17.393  0.00  0.00    +0.000 C 
ENDBRANCH   1  16
BRANCH  10  17
ATOM     17  O   UNL     1       2.114   3.509  22.020  0.00  0.00    +0.000 OA
ATOM     18  H   UNL     1       1.406   4.112  22.309  0.00  0.00    +0.000 HD
ENDBRANCH  10  17
BRANCH  11  19
ATOM     19  O   UNL     1       2.059   6.242  21.381  0.00  0.00    +0.000 OA
ATOM     20  H   UNL     1       2.943   6.625  21.510  0.00  0.00    +0.000 HD
ENDBRANCH  11  19
TORSDOF 3
ENDMDL
MODEL 9
REMARK VINA RESULT:      -6.4      1.987      3.345
REMARK  Name = 
REMARK  4 active torsions:
REMARK  status: ('A' for Active; 'I' for Inactive)
REMARK    1  A    between atoms: C_1  and  C_2
REMARK    2  A    between atoms: C_2  and  N_3
REMARK    3  A    between atoms: C_12  and  O_13
REMARK    4  A    between atoms: C_14  and  O_15
REMARK                            x       y       z     vdW  Elec       q    Type
REMARK                         _______ _______ _______ _____ _____    ______ ____
ROOT
ATOM      1  N   UNL     1       6.170   5.250  17.020  0.00  0.00    +0.000 NA
ATOM      2  C   UNL     1       5.310   5.949  17.998  0.00  0.00    +0.000 C 
ATOM      3  C   UNL     1       3.900   6.035  17.460  0.00  0.00    +0.000 C 
ATOM      4  C   UNL     1       3.425   4.616  17.587  0.00  0.00    +0.000 A 
ATOM      5  C   UNL     1       4.166   3.644  16.907  0.00  0.00    +0.000 A 
ATOM      6  C   UNL     1       3.708   2.327  16.920  0.00  0.00    +0.000 A 
ATOM      7  C   UNL     1       2.745   1.951  17.866  0.00  0.00    +0.000 A 
ATOM      8  C   UNL     1       2.318   2.859  18.835  0.00  0.00    +0.000 A 
ATOM      9  N   UNL     1       1.769   2.428  19.994  0.00  0.00    +0.000 NA
ATOM     10  C   UNL     1       1.684   3.372  20.956  0.00  0.00    +0.000 A 
ATOM     11  C   UNL     1       1.990   4.706  20.763  0.00  0.00    +0.000 A 
ATOM     12  N   UNL     1       2.377   5.163  19.578  0.00  0.00    +0.000 NA
ATOM     13  C   UNL     1       2.624   4.230  18.641  0.00  0.00    +0.000 A 
ATOM     14  C   UNL     1       5.560   4.034  16.396  0.00  0.00    +0.000 C 
ENDROOT
BRANCH   1  16
ATOM     15  C   UNL     1       7.739   5.962  18.849  0.00  0.00    +0.000 C 
ATOM     16  C   UNL     1       7.488   5.078  17.642  0.00  0.00    +0.000 C 
ENDBRANCH   1  16
BRANCH  10  17
ATOM     17  O   UNL     1       1.428   2.897  22.203  0.00  0.00    +0.000 OA
ATOM     18  H   UNL     1       0.741   3.523  22.491  0.00  0.00    +0.000 HD
ENDBRANCH  10  17
BRANCH  11  19
ATOM     19  O   UNL     1       2.112   5.589  21.798  0.00  0.00    +0.000 OA
ATOM     20  H   UNL     1       2.925   6.087  21.610  0.00  0.00    +0.000 HD
ENDBRANCH  11  19
TORSDOF 3
ENDMDL
