MODEL 1
REMARK VINA RESULT:      -8.8      0.000      0.000
REMARK  Name = 
REMARK  9 active torsions:
REMARK  status: ('A' for Active; 'I' for Inactive)
REMARK    1  A    between atoms: C_1  and  C_2
REMARK    2  A    between atoms: C_5  and  S_6
REMARK    3  A    between atoms: S_6  and  N_9
REMARK    4  A    between atoms: C_14  and  C_15
REMARK    5  A    between atoms: C_15  and  N_16
REMARK    6  A    between atoms: C_17  and  C_19
REMARK    7  A    between atoms: N_21  and  C_22
REMARK    8  A    between atoms: C_22  and  C_23
REMARK    9  A    between atoms: C_28  and  C_29
REMARK                            x       y       z     vdW  Elec       q    Type
REMARK                         _______ _______ _______ _____ _____    ______ ____
ROOT
ATOM      1  C   UNL     1       2.424   5.407  18.933  0.00  0.00    +0.000 C 
ENDROOT
BRANCH   1   7
ATOM      2  N   UNL     1       4.216   3.911  17.918  0.00  0.00    +0.000 NA
ATOM      3  C   UNL     1       4.232   2.940  19.026  0.00  0.00    +0.000 C 
ATOM      4  C   UNL     1       3.185   1.875  18.730  0.00  0.00    +0.000 C 
ATOM      5  C   UNL     1       1.847   2.489  18.348  0.00  0.00    +0.000 C 
ATOM      6  O   UNL     1       1.983   3.523  17.381  0.00  0.00    +0.000 OA
ATOM      7  C   UNL     1       2.914   4.553  17.737  0.00  0.00    +0.000 C 
BRANCH   2   8
ATOM      8  S   UNL     1       5.545   4.926  17.703  0.00  0.00    +0.000 S 
ATOM      9  O   UNL     1       6.628   4.382  18.500  0.00  0.00    +0.000 OA
ATOM     10  O   UNL     1       5.117   6.296  17.863  0.00  0.00    +0.000 OA
BRANCH   8  15
ATOM     11  C   UNL     1       7.059   3.948  11.909  0.00  0.00    +0.000 C 
ATOM     12  C   UNL     1       6.661   4.248  13.325  0.00  0.00    +0.000 A 
ATOM     13  C   UNL     1       7.504   4.983  14.168  0.00  0.00    +0.000 A 
ATOM     14  C   UNL     1       7.145   5.215  15.498  0.00  0.00    +0.000 A 
ATOM     15  C   UNL     1       5.933   4.715  15.984  0.00  0.00    +0.000 A 
ATOM     16  C   UNL     1       5.074   3.995  15.151  0.00  0.00    +0.000 A 
ATOM     17  C   UNL     1       5.442   3.764  13.824  0.00  0.00    +0.000 A 
ENDBRANCH   8  15
ENDBRANCH   2   8
ENDBRANCH   1   7
BRANCH   1  18
ATOM     18  N   UNL     1       2.116   6.758  18.504  0.00  0.00    +0.000 N 
ATOM     19  C   UNL     1       1.931   7.808  19.364  0.00  0.00    +0.000 C 
ATOM     20  O   UNL     1       2.079   7.797  20.575  0.00  0.00    +0.000 OA
ATOM     21  H   UNL     1       1.841   6.911  17.534  0.00  0.00    +0.000 HD
BRANCH  19  22
ATOM     22  C   UNL     1       1.544   9.098  18.618  0.00  0.00    +0.000 C 
ATOM     23  O   UNL     1       2.169   9.419  17.617  0.00  0.00    +0.000 OA
ATOM     24  N   UNL     1       0.556   9.826  19.234  0.00  0.00    +0.000 N 
ATOM     25  H   UNL     1       0.074   9.399  20.017  0.00  0.00    +0.000 HD
BRANCH  24  26
ATOM     26  C   UNL     1       0.034  11.033  18.644  0.00  0.00    +0.000 C 
BRANCH  26  27
ATOM     27  C   UNL     1      -1.430  10.933  18.285  0.00  0.00    +0.000 A 
ATOM     28  C   UNL     1      -1.811  10.001  17.301  0.00  0.00    +0.000 A 
ATOM     29  C   UNL     1      -3.136   9.896  16.874  0.00  0.00    +0.000 A 
ATOM     30  C   UNL     1      -4.109  10.711  17.435  0.00  0.00    +0.000 A 
ATOM     31  C   UNL     1      -3.761  11.628  18.423  0.00  0.00    +0.000 A 
ATOM     32  C   UNL     1      -2.428  11.754  18.861  0.00  0.00    +0.000 A 
ATOM     33  C   UNL     1      -2.132  12.779  19.923  0.00  0.00    +0.000 C 
ENDBRANCH  26  27
ENDBRANCH  24  26
ENDBRANCH  19  22
ENDBRANCH   1  18
TORSDOF 7
ENDMDL
MODEL 2
REMARK VINA RESULT:      -8.5      2.167      2.825
REMARK  Name = 
REMARK  9 active torsions:
REMARK  status: ('A' for Active; 'I' for Inactive)
REMARK    1  A    between atoms: C_1  and  C_2
REMARK    2  A    between atoms: C_5  and  S_6
REMARK    3  A    between atoms: S_6  and  N_9
REMARK    4  A    between atoms: C_14  and  C_15
REMARK    5  A    between atoms: C_15  and  N_16
REMARK    6  A    between atoms: C_17  and  C_19
REMARK    7  A    between atoms: N_21  and  C_22
REMARK    8  A    between atoms: C_22  and  C_23
REMARK    9  A    between atoms: C_28  and  C_29
REMARK                            x       y       z     vdW  Elec       q    Type
REMARK                         _______ _______ _______ _____ _____    ______ ____
ROOT
ATOM      1  C   UNL     1       2.990   5.672  19.752  0.00  0.00    +0.000 C 
ENDROOT
BRANCH   1   7
ATOM      2  N   UNL     1       2.812   3.200  19.173  0.00  0.00    +0.000 NA
ATOM      3  C   UNL     1       3.678   2.736  20.270  0.00  0.00    +0.000 C 
ATOM      4  C   UNL     1       2.802   2.505  21.493  0.00  0.00    +0.000 C 
ATOM      5  C   UNL     1       1.891   3.693  21.767  0.00  0.00    +0.000 C 
ATOM      6  O   UNL     1       1.226   4.146  20.594  0.00  0.00    +0.000 OA
ATOM      7  C   UNL     1       2.095   4.435  19.491  0.00  0.00    +0.000 C 
BRANCH   2   8
ATOM      8  S   UNL     1       3.374   3.094  17.587  0.00  0.00    +0.000 S 
ATOM      9  O   UNL     1       2.290   3.526  16.723  0.00  0.00    +0.000 OA
ATOM     10  O   UNL     1       4.008   1.810  17.401  0.00  0.00    +0.000 OA
BRANCH   8  15
ATOM     11  C   UNL     1       7.609   7.439  17.618  0.00  0.00    +0.000 C 
ATOM     12  C   UNL     1       6.592   6.336  17.561  0.00  0.00    +0.000 A 
ATOM     13  C   UNL     1       5.510   6.400  16.672  0.00  0.00    +0.000 A 
ATOM     14  C   UNL     1       4.545   5.390  16.661  0.00  0.00    +0.000 A 
ATOM     15  C   UNL     1       4.666   4.309  17.539  0.00  0.00    +0.000 A 
ATOM     16  C   UNL     1       5.747   4.222  18.418  0.00  0.00    +0.000 A 
ATOM     17  C   UNL     1       6.707   5.237  18.425  0.00  0.00    +0.000 A 
ENDBRANCH   8  15
ENDBRANCH   2   8
ENDBRANCH   1   7
BRANCH   1  18
ATOM     18  N   UNL     1       2.178   6.853  19.973  0.00  0.00    +0.000 N 
ATOM     19  C   UNL     1       2.144   7.926  19.122  0.00  0.00    +0.000 C 
ATOM     20  O   UNL     1       2.699   8.020  18.040  0.00  0.00    +0.000 OA
ATOM     21  H   UNL     1       1.748   6.985  20.889  0.00  0.00    +0.000 HD
BRANCH  19  22
ATOM     22  C   UNL     1       1.248   9.056  19.662  0.00  0.00    +0.000 C 
ATOM     23  O   UNL     1       1.101   9.177  20.869  0.00  0.00    +0.000 OA
ATOM     24  N   UNL     1       0.612   9.782  18.684  0.00  0.00    +0.000 N 
ATOM     25  H   UNL     1       0.889   9.621  17.722  0.00  0.00    +0.000 HD
BRANCH  24  26
ATOM     26  C   UNL     1      -0.222  10.911  19.010  0.00  0.00    +0.000 C 
BRANCH  26  27
ATOM     27  C   UNL     1      -1.579  10.858  18.347  0.00  0.00    +0.000 A 
ATOM     28  C   UNL     1      -1.744  10.006  17.239  0.00  0.00    +0.000 A 
ATOM     29  C   UNL     1      -2.950   9.950  16.538  0.00  0.00    +0.000 A 
ATOM     30  C   UNL     1      -4.021  10.735  16.944  0.00  0.00    +0.000 A 
ATOM     31  C   UNL     1      -3.888  11.572  18.048  0.00  0.00    +0.000 A 
ATOM     32  C   UNL     1      -2.676  11.647  18.762  0.00  0.00    +0.000 A 
ATOM     33  C   UNL     1      -2.611  12.588  19.936  0.00  0.00    +0.000 C 
ENDBRANCH  26  27
ENDBRANCH  24  26
ENDBRANCH  19  22
ENDBRANCH   1  18
TORSDOF 7
ENDMDL
MODEL 3
REMARK VINA RESULT:      -8.5      0.724      1.137
REMARK  Name = 
REMARK  9 active torsions:
REMARK  status: ('A' for Active; 'I' for Inactive)
REMARK    1  A    between atoms: C_1  and  C_2
REMARK    2  A    between atoms: C_5  and  S_6
REMARK    3  A    between atoms: S_6  and  N_9
REMARK    4  A    between atoms: C_14  and  C_15
REMARK    5  A    between atoms: C_15  and  N_16
REMARK    6  A    between atoms: C_17  and  C_19
REMARK    7  A    between atoms: N_21  and  C_22
REMARK    8  A    between atoms: C_22  and  C_23
REMARK    9  A    between atoms: C_28  and  C_29
REMARK                            x       y       z     vdW  Elec       q    Type
REMARK                         _______ _______ _______ _____ _____    ______ ____
ROOT
ATOM      1  C   UNL     1       2.592   5.987  19.548  0.00  0.00    +0.000 C 
ENDROOT
BRANCH   1   7
ATOM      2  N   UNL     1       4.274   4.608  18.225  0.00  0.00    +0.000 NA
ATOM      3  C   UNL     1       4.662   3.743  19.352  0.00  0.00    +0.000 C 
ATOM      4  C   UNL     1       3.715   2.551  19.376  0.00  0.00    +0.000 C 
ATOM      5  C   UNL     1       2.260   2.985  19.289  0.00  0.00    +0.000 C 
ATOM      6  O   UNL     1       2.042   3.941  18.258  0.00  0.00    +0.000 OA
ATOM      7  C   UNL     1       2.896   5.090  18.322  0.00  0.00    +0.000 C 
BRANCH   2   8
ATOM      8  S   UNL     1       5.382   5.736  17.640  0.00  0.00    +0.000 S 
ATOM      9  O   UNL     1       6.530   5.701  18.527  0.00  0.00    +0.000 OA
ATOM     10  O   UNL     1       4.690   6.973  17.366  0.00  0.00    +0.000 OA
BRANCH   8  15
ATOM     11  C   UNL     1       6.799   3.648  12.122  0.00  0.00    +0.000 C 
ATOM     12  C   UNL     1       6.472   4.110  13.513  0.00  0.00    +0.000 A 
ATOM     13  C   UNL     1       5.271   3.737  14.130  0.00  0.00    +0.000 A 
ATOM     14  C   UNL     1       4.955   4.211  15.406  0.00  0.00    +0.000 A 
ATOM     15  C   UNL     1       5.849   5.057  16.069  0.00  0.00    +0.000 A 
ATOM     16  C   UNL     1       7.058   5.424  15.474  0.00  0.00    +0.000 A 
ATOM     17  C   UNL     1       7.365   4.948  14.197  0.00  0.00    +0.000 A 
ENDBRANCH   8  15
ENDBRANCH   2   8
ENDBRANCH   1   7
BRANCH   1  18
ATOM     18  N   UNL     1       2.186   7.313  19.123  0.00  0.00    +0.000 N 
ATOM     19  C   UNL     1       1.624   8.243  19.957  0.00  0.00    +0.000 C 
ATOM     20  O   UNL     1       1.461   8.142  21.162  0.00  0.00    +0.000 OA
ATOM     21  H   UNL     1       2.144   7.514  18.124  0.00  0.00    +0.000 HD
BRANCH  19  22
ATOM     22  C   UNL     1       1.233   9.526  19.202  0.00  0.00    +0.000 C 
ATOM     23  O   UNL     1       1.952   9.933  18.302  0.00  0.00    +0.000 OA
ATOM     24  N   UNL     1       0.117  10.153  19.703  0.00  0.00    +0.000 N 
ATOM     25  H   UNL     1      -0.426   9.661  20.404  0.00  0.00    +0.000 HD
BRANCH  24  26
ATOM     26  C   UNL     1      -0.420  11.338  19.084  0.00  0.00    +0.000 C 
BRANCH  26  27
ATOM     27  C   UNL     1      -1.765  11.109  18.433  0.00  0.00    +0.000 A 
ATOM     28  C   UNL     1      -1.829  10.240  17.328  0.00  0.00    +0.000 A 
ATOM     29  C   UNL     1      -3.024  10.029  16.638  0.00  0.00    +0.000 A 
ATOM     30  C   UNL     1      -4.183  10.671  17.052  0.00  0.00    +0.000 A 
ATOM     31  C   UNL     1      -4.149  11.522  18.153  0.00  0.00    +0.000 A 
ATOM     32  C   UNL     1      -2.951  11.753  18.857  0.00  0.00    +0.000 A 
ATOM     33  C   UNL     1      -2.996  12.698  20.028  0.00  0.00    +0.000 C 
ENDBRANCH  26  27
ENDBRANCH  24  26
ENDBRANCH  19  22
ENDBRANCH   1  18
TORSDOF 7
ENDMDL
MODEL 4
REMARK VINA RESULT:      -8.4      0.512      1.685
REMARK  Name = 
REMARK  9 active torsions:
REMARK  status: ('A' for Active; 'I' for Inactive)
REMARK    1  A    between atoms: C_1  and  C_2
REMARK    2  A    between atoms: C_5  and  S_6
REMARK    3  A    between atoms: S_6  and  N_9
REMARK    4  A    between atoms: C_14  and  C_15
REMARK    5  A    between atoms: C_15  and  N_16
REMARK    6  A    between atoms: C_17  and  C_19
REMARK    7  A    between atoms: N_21  and  C_22
REMARK    8  A    between atoms: C_22  and  C_23
REMARK    9  A    between atoms: C_28  and  C_29
REMARK                            x       y       z     vdW  Elec       q    Type
REMARK                         _______ _______ _______ _____ _____    ______ ____
ROOT
ATOM      1  C   UNL     1       2.356   5.322  18.826  0.00  0.00    +0.000 C 
ENDROOT
BRANCH   1   7
ATOM      2  N   UNL     1       4.220   3.854  17.903  0.00  0.00    +0.000 NA
ATOM      3  C   UNL     1       4.207   2.892  19.018  0.00  0.00    +0.000 C 
ATOM      4  C   UNL     1       3.195   1.804  18.687  0.00  0.00    +0.000 C 
ATOM      5  C   UNL     1       1.862   2.389  18.243  0.00  0.00    +0.000 C 
ATOM      6  O   UNL     1       2.020   3.418  17.273  0.00  0.00    +0.000 OA
ATOM      7  C   UNL     1       2.914   4.468  17.660  0.00  0.00    +0.000 C 
BRANCH   2   8
ATOM      8  S   UNL     1       5.537   4.894  17.736  0.00  0.00    +0.000 S 
ATOM      9  O   UNL     1       6.576   4.408  18.625  0.00  0.00    +0.000 OA
ATOM     10  O   UNL     1       5.068   6.257  17.811  0.00  0.00    +0.000 OA
BRANCH   8  15
ATOM     11  C   UNL     1       7.101   4.239  11.909  0.00  0.00    +0.000 C 
ATOM     12  C   UNL     1       6.736   4.341  13.362  0.00  0.00    +0.000 A 
ATOM     13  C   UNL     1       5.517   3.838  13.835  0.00  0.00    +0.000 A 
ATOM     14  C   UNL     1       5.167   3.981  15.180  0.00  0.00    +0.000 A 
ATOM     15  C   UNL     1       6.045   4.625  16.057  0.00  0.00    +0.000 A 
ATOM     16  C   UNL     1       7.271   5.117  15.605  0.00  0.00    +0.000 A 
ATOM     17  C   UNL     1       7.612   4.972  14.258  0.00  0.00    +0.000 A 
ENDBRANCH   8  15
ENDBRANCH   2   8
ENDBRANCH   1   7
BRANCH   1  18
ATOM     18  N   UNL     1       2.166   6.697  18.408  0.00  0.00    +0.000 N 
ATOM     19  C   UNL     1       1.916   7.730  19.272  0.00  0.00    +0.000 C 
ATOM     20  O   UNL     1       1.903   7.678  20.491  0.00  0.00    +0.000 OA
ATOM     21  H   UNL     1       2.028   6.890  17.416  0.00  0.00    +0.000 HD
BRANCH  19  22
ATOM     22  C   UNL     1       1.686   9.057  18.526  0.00  0.00    +0.000 C 
ATOM     23  O   UNL     1       2.146   9.198  17.403  0.00  0.00    +0.000 OA
ATOM     24  N   UNL     1       1.039  10.013  19.271  0.00  0.00    +0.000 N 
ATOM     25  H   UNL     1       0.646   9.731  20.162  0.00  0.00    +0.000 HD
BRANCH  24  26
ATOM     26  C   UNL     1       0.695  11.295  18.711  0.00  0.00    +0.000 C 
BRANCH  26  27
ATOM     27  C   UNL     1      -0.741  11.690  18.970  0.00  0.00    +0.000 A 
ATOM     28  C   UNL     1      -0.999  12.620  19.995  0.00  0.00    +0.000 A 
ATOM     29  C   UNL     1      -2.303  12.985  20.333  0.00  0.00    +0.000 A 
ATOM     30  C   UNL     1      -3.375  12.439  19.641  0.00  0.00    +0.000 A 
ATOM     31  C   UNL     1      -3.145  11.530  18.612  0.00  0.00    +0.000 A 
ATOM     32  C   UNL     1      -1.836  11.144  18.261  0.00  0.00    +0.000 A 
ATOM     33  C   UNL     1      -1.674  10.145  17.146  0.00  0.00    +0.000 C 
ENDBRANCH  26  27
ENDBRANCH  24  26
ENDBRANCH  19  22
ENDBRANCH   1  18
TORSDOF 7
ENDMDL
MODEL 5
REMARK VINA RESULT:      -8.4      2.483      9.024
REMARK  Name = 
REMARK  9 active torsions:
REMARK  status: ('A' for Active; 'I' for Inactive)
REMARK    1  A    between atoms: C_1  and  C_2
REMARK    2  A    between atoms: C_5  and  S_6
REMARK    3  A    between atoms: S_6  and  N_9
REMARK    4  A    between atoms: C_14  and  C_15
REMARK    5  A    between atoms: C_15  and  N_16
REMARK    6  A    between atoms: C_17  and  C_19
REMARK    7  A    between atoms: N_21  and  C_22
REMARK    8  A    between atoms: C_22  and  C_23
REMARK    9  A    between atoms: C_28  and  C_29
REMARK                            x       y       z     vdW  Elec       q    Type
REMARK                         _______ _______ _______ _____ _____    ______ ____
ROOT
ATOM      1  C   UNL     1       0.925   7.639  21.059  0.00  0.00    +0.000 C 
ENDROOT
BRANCH   1   7
ATOM      2  N   UNL     1       0.686  10.146  20.689  0.00  0.00    +0.000 NA
ATOM      3  C   UNL     1      -0.706  10.225  21.162  0.00  0.00    +0.000 C 
ATOM      4  C   UNL     1      -0.677  10.458  22.667  0.00  0.00    +0.000 C 
ATOM      5  C   UNL     1       0.253   9.481  23.370  0.00  0.00    +0.000 C 
ATOM      6  O   UNL     1       1.517   9.378  22.725  0.00  0.00    +0.000 OA
ATOM      7  C   UNL     1       1.448   9.072  21.327  0.00  0.00    +0.000 C 
BRANCH   2   8
ATOM      8  S   UNL     1       1.005  10.365  19.048  0.00  0.00    +0.000 S 
ATOM      9  O   UNL     1       1.500   9.099  18.539  0.00  0.00    +0.000 OA
ATOM     10  O   UNL     1       1.762  11.584  18.877  0.00  0.00    +0.000 OA
BRANCH   8  15
ATOM     11  C   UNL     1      -4.626  11.222  16.957  0.00  0.00    +0.000 C 
ATOM     12  C   UNL     1      -3.210  11.032  17.419  0.00  0.00    +0.000 A 
ATOM     13  C   UNL     1      -2.496   9.873  17.090  0.00  0.00    +0.000 A 
ATOM     14  C   UNL     1      -1.195   9.687  17.564  0.00  0.00    +0.000 A 
ATOM     15  C   UNL     1      -0.604  10.669  18.366  0.00  0.00    +0.000 A 
ATOM     16  C   UNL     1      -1.297  11.837  18.687  0.00  0.00    +0.000 A 
ATOM     17  C   UNL     1      -2.598  12.015  18.212  0.00  0.00    +0.000 A 
ENDBRANCH   8  15
ENDBRANCH   2   8
ENDBRANCH   1   7
BRANCH   1  18
ATOM     18  N   UNL     1       2.012   6.763  20.668  0.00  0.00    +0.000 N 
ATOM     19  C   UNL     1       1.865   5.421  20.435  0.00  0.00    +0.000 C 
ATOM     20  O   UNL     1       0.822   4.789  20.432  0.00  0.00    +0.000 OA
ATOM     21  H   UNL     1       2.969   7.109  20.743  0.00  0.00    +0.000 HD
BRANCH  19  22
ATOM     22  C   UNL     1       3.210   4.745  20.110  0.00  0.00    +0.000 C 
ATOM     23  O   UNL     1       3.332   3.542  20.287  0.00  0.00    +0.000 OA
ATOM     24  N   UNL     1       4.197   5.620  19.726  0.00  0.00    +0.000 N 
ATOM     25  H   UNL     1       3.932   6.582  19.547  0.00  0.00    +0.000 HD
BRANCH  24  26
ATOM     26  C   UNL     1       5.502   5.152  19.333  0.00  0.00    +0.000 C 
BRANCH  26  27
ATOM     27  C   UNL     1       5.690   5.105  17.834  0.00  0.00    +0.000 A 
ATOM     28  C   UNL     1       4.894   4.212  17.093  0.00  0.00    +0.000 A 
ATOM     29  C   UNL     1       5.054   4.069  15.714  0.00  0.00    +0.000 A 
ATOM     30  C   UNL     1       6.003   4.830  15.046  0.00  0.00    +0.000 A 
ATOM     31  C   UNL     1       6.790   5.733  15.754  0.00  0.00    +0.000 A 
ATOM     32  C   UNL     1       6.649   5.886  17.147  0.00  0.00    +0.000 A 
ATOM     33  C   UNL     1       7.548   6.874  17.841  0.00  0.00    +0.000 C 
ENDBRANCH  26  27
ENDBRANCH  24  26
ENDBRANCH  19  22
ENDBRANCH   1  18
TORSDOF 7
ENDMDL
MODEL 6
REMARK VINA RESULT:      -8.4      0.910      1.161
REMARK  Name = 
REMARK  9 active torsions:
REMARK  status: ('A' for Active; 'I' for Inactive)
REMARK    1  A    between atoms: C_1  and  C_2
REMARK    2  A    between atoms: C_5  and  S_6
REMARK    3  A    between atoms: S_6  and  N_9
REMARK    4  A    between atoms: C_14  and  C_15
REMARK    5  A    between atoms: C_15  and  N_16
REMARK    6  A    between atoms: C_17  and  C_19
REMARK    7  A    between atoms: N_21  and  C_22
REMARK    8  A    between atoms: C_22  and  C_23
REMARK    9  A    between atoms: C_28  and  C_29
REMARK                            x       y       z     vdW  Elec       q    Type
REMARK                         _______ _______ _______ _____ _____    ______ ____
ROOT
ATOM      1  C   UNL     1       3.293   6.015  19.684  0.00  0.00    +0.000 C 
ENDROOT
BRANCH   1   7
ATOM      2  N   UNL     1       4.274   4.582  17.823  0.00  0.00    +0.000 NA
ATOM      3  C   UNL     1       4.199   3.314  18.569  0.00  0.00    +0.000 C 
ATOM      4  C   UNL     1       2.831   2.698  18.311  0.00  0.00    +0.000 C 
ATOM      5  C   UNL     1       1.711   3.707  18.519  0.00  0.00    +0.000 C 
ATOM      6  O   UNL     1       1.973   4.948  17.876  0.00  0.00    +0.000 OA
ATOM      7  C   UNL     1       3.236   5.537  18.212  0.00  0.00    +0.000 C 
BRANCH   2   8
ATOM      8  S   UNL     1       5.786   5.262  17.515  0.00  0.00    +0.000 S 
ATOM      9  O   UNL     1       6.748   4.541  18.328  0.00  0.00    +0.000 OA
ATOM     10  O   UNL     1       5.676   6.700  17.590  0.00  0.00    +0.000 OA
BRANCH   8  15
ATOM     11  C   UNL     1       6.909   3.644  11.776  0.00  0.00    +0.000 C 
ATOM     12  C   UNL     1       6.609   4.102  13.174  0.00  0.00    +0.000 A 
ATOM     13  C   UNL     1       7.533   4.873  13.892  0.00  0.00    +0.000 A 
ATOM     14  C   UNL     1       7.264   5.252  15.209  0.00  0.00    +0.000 A 
ATOM     15  C   UNL     1       6.061   4.863  15.808  0.00  0.00    +0.000 A 
ATOM     16  C   UNL     1       5.124   4.110  15.100  0.00  0.00    +0.000 A 
ATOM     17  C   UNL     1       5.401   3.732  13.785  0.00  0.00    +0.000 A 
ENDBRANCH   8  15
ENDBRANCH   2   8
ENDBRANCH   1   7
BRANCH   1  18
ATOM     18  N   UNL     1       2.224   6.956  19.958  0.00  0.00    +0.000 N 
ATOM     19  C   UNL     1       2.030   8.116  19.257  0.00  0.00    +0.000 C 
ATOM     20  O   UNL     1       2.646   8.488  18.272  0.00  0.00    +0.000 OA
ATOM     21  H   UNL     1       1.694   6.854  20.824  0.00  0.00    +0.000 HD
BRANCH  19  22
ATOM     22  C   UNL     1       0.862   8.942  19.828  0.00  0.00    +0.000 C 
ATOM     23  O   UNL     1       0.485   8.732  20.971  0.00  0.00    +0.000 OA
ATOM     24  N   UNL     1       0.287   9.799  18.921  0.00  0.00    +0.000 N 
ATOM     25  H   UNL     1       0.754   9.926  18.030  0.00  0.00    +0.000 HD
BRANCH  24  26
ATOM     26  C   UNL     1      -0.783  10.686  19.302  0.00  0.00    +0.000 C 
BRANCH  26  27
ATOM     27  C   UNL     1      -1.909  10.723  18.295  0.00  0.00    +0.000 A 
ATOM     28  C   UNL     1      -1.787   9.940  17.132  0.00  0.00    +0.000 A 
ATOM     29  C   UNL     1      -2.757   9.971  16.129  0.00  0.00    +0.000 A 
ATOM     30  C   UNL     1      -3.878  10.776  16.278  0.00  0.00    +0.000 A 
ATOM     31  C   UNL     1      -4.031  11.546  17.427  0.00  0.00    +0.000 A 
ATOM     32  C   UNL     1      -3.059  11.534  18.446  0.00  0.00    +0.000 A 
ATOM     33  C   UNL     1      -3.292  12.406  19.651  0.00  0.00    +0.000 C 
ENDBRANCH  26  27
ENDBRANCH  24  26
ENDBRANCH  19  22
ENDBRANCH   1  18
TORSDOF 7
ENDMDL
MODEL 7
REMARK VINA RESULT:      -8.2      3.296      8.973
REMARK  Name = 
REMARK  9 active torsions:
REMARK  status: ('A' for Active; 'I' for Inactive)
REMARK    1  A    between atoms: C_1  and  C_2
REMARK    2  A    between atoms: C_5  and  S_6
REMARK    3  A    between atoms: S_6  and  N_9
REMARK    4  A    between atoms: C_14  and  C_15
REMARK    5  A    between atoms: C_15  and  N_16
REMARK    6  A    between atoms: C_17  and  C_19
REMARK    7  A    between atoms: N_21  and  C_22
REMARK    8  A    between atoms: C_22  and  C_23
REMARK    9  A    between atoms: C_28  and  C_29
REMARK                            x       y       z     vdW  Elec       q    Type
REMARK                         _______ _______ _______ _____ _____    ______ ____
ROOT
ATOM      1  C   UNL     1       0.863   7.504  21.080  0.00  0.00    +0.000 C 
ENDROOT
BRANCH   1   7
ATOM      2  N   UNL     1       0.603   9.990  20.596  0.00  0.00    +0.000 NA
ATOM      3  C   UNL     1      -0.742  10.107  21.184  0.00  0.00    +0.000 C 
ATOM      4  C   UNL     1      -0.581  10.421  22.665  0.00  0.00    +0.000 C 
ATOM      5  C   UNL     1       0.403   9.475  23.337  0.00  0.00    +0.000 C 
ATOM      6  O   UNL     1       1.605   9.326  22.591  0.00  0.00    +0.000 OA
ATOM      7  C   UNL     1       1.413   8.945  21.223  0.00  0.00    +0.000 C 
BRANCH   2   8
ATOM      8  S   UNL     1       0.779  10.118  18.924  0.00  0.00    +0.000 S 
ATOM      9  O   UNL     1      -0.535   9.910  18.343  0.00  0.00    +0.000 OA
ATOM     10  O   UNL     1       1.910   9.322  18.510  0.00  0.00    +0.000 OA
BRANCH   8  15
ATOM     11  C   UNL     1       2.446  15.935  18.479  0.00  0.00    +0.000 C 
ATOM     12  C   UNL     1       2.005  14.500  18.531  0.00  0.00    +0.000 A 
ATOM     13  C   UNL     1       0.722  14.158  18.976  0.00  0.00    +0.000 A 
ATOM     14  C   UNL     1       0.339  12.817  19.065  0.00  0.00    +0.000 A 
ATOM     15  C   UNL     1       1.244  11.815  18.701  0.00  0.00    +0.000 A 
ATOM     16  C   UNL     1       2.520  12.141  18.239  0.00  0.00    +0.000 A 
ATOM     17  C   UNL     1       2.897  13.484  18.156  0.00  0.00    +0.000 A 
ENDBRANCH   8  15
ENDBRANCH   2   8
ENDBRANCH   1   7
BRANCH   1  18
ATOM     18  N   UNL     1       1.862   6.631  20.496  0.00  0.00    +0.000 N 
ATOM     19  C   UNL     1       1.704   5.277  20.355  0.00  0.00    +0.000 C 
ATOM     20  O   UNL     1       0.703   4.627  20.606  0.00  0.00    +0.000 OA
ATOM     21  H   UNL     1       2.802   6.997  20.344  0.00  0.00    +0.000 HD
BRANCH  19  22
ATOM     22  C   UNL     1       2.963   4.612  19.770  0.00  0.00    +0.000 C 
ATOM     23  O   UNL     1       3.576   3.797  20.444  0.00  0.00    +0.000 OA
ATOM     24  N   UNL     1       3.330   5.094  18.537  0.00  0.00    +0.000 N 
ATOM     25  H   UNL     1       2.684   5.715  18.062  0.00  0.00    +0.000 HD
BRANCH  24  26
ATOM     26  C   UNL     1       4.453   4.545  17.820  0.00  0.00    +0.000 C 
BRANCH  26  27
ATOM     27  C   UNL     1       5.696   5.399  17.921  0.00  0.00    +0.000 A 
ATOM     28  C   UNL     1       6.585   5.156  18.984  0.00  0.00    +0.000 A 
ATOM     29  C   UNL     1       7.721   5.944  19.177  0.00  0.00    +0.000 A 
ATOM     30  C   UNL     1       7.998   6.983  18.298  0.00  0.00    +0.000 A 
ATOM     31  C   UNL     1       7.143   7.233  17.229  0.00  0.00    +0.000 A 
ATOM     32  C   UNL     1       5.988   6.453  17.023  0.00  0.00    +0.000 A 
ATOM     33  C   UNL     1       5.108   6.797  15.851  0.00  0.00    +0.000 C 
ENDBRANCH  26  27
ENDBRANCH  24  26
ENDBRANCH  19  22
ENDBRANCH   1  18
TORSDOF 7
ENDMDL
MODEL 8
REMARK VINA RESULT:      -8.2      2.764      9.034
REMARK  Name = 
REMARK  9 active torsions:
REMARK  status: ('A' for Active; 'I' for Inactive)
REMARK    1  A    between atoms: C_1  and  C_2
REMARK    2  A    between atoms: C_5  and  S_6
REMARK    3  A    between atoms: S_6  and  N_9
REMARK    4  A    between atoms: C_14  and  C_15
REMARK    5  A    between atoms: C_15  and  N_16
REMARK    6  A    between atoms: C_17  and  C_19
REMARK    7  A    between atoms: N_21  and  C_22
REMARK    8  A    between atoms: C_22  and  C_23
REMARK    9  A    between atoms: C_28  and  C_29
REMARK                            x       y       z     vdW  Elec       q    Type
REMARK                         _______ _______ _______ _____ _____    ______ ____
ROOT
ATOM      1  C   UNL     1       0.889   7.562  21.045  0.00  0.00    +0.000 C 
ENDROOT
BRANCH   1   7
ATOM      2  N   UNL     1       0.765  10.074  20.651  0.00  0.00    +0.000 NA
ATOM      3  C   UNL     1      -0.605  10.229  21.167  0.00  0.00    +0.000 C 
ATOM      4  C   UNL     1      -0.516  10.477  22.667  0.00  0.00    +0.000 C 
ATOM      5  C   UNL     1       0.386   9.461  23.353  0.00  0.00    +0.000 C 
ATOM      6  O   UNL     1       1.621   9.287  22.670  0.00  0.00    +0.000 OA
ATOM      7  C   UNL     1       1.492   8.970  21.278  0.00  0.00    +0.000 C 
BRANCH   2   8
ATOM      8  S   UNL     1       1.042  10.259  18.998  0.00  0.00    +0.000 S 
ATOM      9  O   UNL     1       1.476   8.969  18.494  0.00  0.00    +0.000 OA
ATOM     10  O   UNL     1       1.836  11.447  18.787  0.00  0.00    +0.000 OA
BRANCH   8  15
ATOM     11  C   UNL     1      -4.616  11.297  17.068  0.00  0.00    +0.000 C 
ATOM     12  C   UNL     1      -3.194  11.060  17.488  0.00  0.00    +0.000 A 
ATOM     13  C   UNL     1      -2.544   9.858  17.179  0.00  0.00    +0.000 A 
ATOM     14  C   UNL     1      -1.237   9.629  17.616  0.00  0.00    +0.000 A 
ATOM     15  C   UNL     1      -0.575  10.611  18.360  0.00  0.00    +0.000 A 
ATOM     16  C   UNL     1      -1.204  11.821  18.660  0.00  0.00    +0.000 A 
ATOM     17  C   UNL     1      -2.511  12.041  18.223  0.00  0.00    +0.000 A 
ENDBRANCH   8  15
ENDBRANCH   2   8
ENDBRANCH   1   7
BRANCH   1  18
ATOM     18  N   UNL     1       1.887   6.663  20.498  0.00  0.00    +0.000 N 
ATOM     19  C   UNL     1       1.711   5.309  20.380  0.00  0.00    +0.000 C 
ATOM     20  O   UNL     1       0.695   4.679  20.622  0.00  0.00    +0.000 OA
ATOM     21  H   UNL     1       2.835   7.012  20.359  0.00  0.00    +0.000 HD
BRANCH  19  22
ATOM     22  C   UNL     1       2.972   4.614  19.834  0.00  0.00    +0.000 C 
ATOM     23  O   UNL     1       3.528   3.765  20.515  0.00  0.00    +0.000 OA
ATOM     24  N   UNL     1       3.407   5.109  18.629  0.00  0.00    +0.000 N 
ATOM     25  H   UNL     1       2.803   5.761  18.141  0.00  0.00    +0.000 HD
BRANCH  24  26
ATOM     26  C   UNL     1       4.542   4.538  17.949  0.00  0.00    +0.000 C 
BRANCH  26  27
ATOM     27  C   UNL     1       5.775   5.407  18.018  0.00  0.00    +0.000 A 
ATOM     28  C   UNL     1       6.663   5.217  19.094  0.00  0.00    +0.000 A 
ATOM     29  C   UNL     1       7.790   6.024  19.259  0.00  0.00    +0.000 A 
ATOM     30  C   UNL     1       8.060   7.028  18.339  0.00  0.00    +0.000 A 
ATOM     31  C   UNL     1       7.207   7.225  17.257  0.00  0.00    +0.000 A 
ATOM     32  C   UNL     1       6.061   6.426  17.079  0.00  0.00    +0.000 A 
ATOM     33  C   UNL     1       5.183   6.712  15.890  0.00  0.00    +0.000 C 
ENDBRANCH  26  27
ENDBRANCH  24  26
ENDBRANCH  19  22
ENDBRANCH   1  18
TORSDOF 7
ENDMDL
MODEL 9
REMARK VINA RESULT:      -8.1      3.186      9.011
REMARK  Name = 
REMARK  9 active torsions:
REMARK  status: ('A' for Active; 'I' for Inactive)
REMARK    1  A    between atoms: C_1  and  C_2
REMARK    2  A    between atoms: C_5  and  S_6
REMARK    3  A    between atoms: S_6  and  N_9
REMARK    4  A    between atoms: C_14  and  C_15
REMARK    5  A    between atoms: C_15  and  N_16
REMARK    6  A    between atoms: C_17  and  C_19
REMARK    7  A    between atoms: N_21  and  C_22
REMARK    8  A    between atoms: C_22  and  C_23
REMARK    9  A    between atoms: C_28  and  C_29
REMARK                            x       y       z     vdW  Elec       q    Type
REMARK                         _______ _______ _______ _____ _____    ______ ____
ROOT
ATOM      1  C   UNL     1       0.879   7.647  21.147  0.00  0.00    +0.000 C 
ENDROOT
BRANCH   1   7
ATOM      2  N   UNL     1       0.638  10.165  20.859  0.00  0.00    +0.000 NA
ATOM      3  C   UNL     1      -0.751  10.230  21.347  0.00  0.00    +0.000 C 
ATOM      4  C   UNL     1      -0.708  10.414  22.858  0.00  0.00    +0.000 C 
ATOM      5  C   UNL     1       0.228   9.415  23.522  0.00  0.00    +0.000 C 
ATOM      6  O   UNL     1       1.486   9.332  22.863  0.00  0.00    +0.000 OA
ATOM      7  C   UNL     1       1.405   9.071  21.456  0.00  0.00    +0.000 C 
BRANCH   2   8
ATOM      8  S   UNL     1       0.943  10.437  19.223  0.00  0.00    +0.000 S 
ATOM      9  O   UNL     1      -0.346  10.546  18.564  0.00  0.00    +0.000 OA
ATOM     10  O   UNL     1       1.934   9.491  18.769  0.00  0.00    +0.000 OA
BRANCH   8  15
ATOM     11  C   UNL     1       3.347  16.007  19.085  0.00  0.00    +0.000 C 
ATOM     12  C   UNL     1       2.811  14.605  19.131  0.00  0.00    +0.000 A 
ATOM     13  C   UNL     1       2.861  13.778  18.002  0.00  0.00    +0.000 A 
ATOM     14  C   UNL     1       2.317  12.492  18.043  0.00  0.00    +0.000 A 
ATOM     15  C   UNL     1       1.724  12.030  19.223  0.00  0.00    +0.000 A 
ATOM     16  C   UNL     1       1.682  12.836  20.362  0.00  0.00    +0.000 A 
ATOM     17  C   UNL     1       2.226  14.121  20.312  0.00  0.00    +0.000 A 
ENDBRANCH   8  15
ENDBRANCH   2   8
ENDBRANCH   1   7
BRANCH   1  18
ATOM     18  N   UNL     1       1.969   6.772  20.764  0.00  0.00    +0.000 N 
ATOM     19  C   UNL     1       1.816   5.439  20.486  0.00  0.00    +0.000 C 
ATOM     20  O   UNL     1       0.767   4.819  20.430  0.00  0.00    +0.000 OA
ATOM     21  H   UNL     1       2.926   7.105  20.878  0.00  0.00    +0.000 HD
BRANCH  19  22
ATOM     22  C   UNL     1       3.164   4.759  20.182  0.00  0.00    +0.000 C 
ATOM     23  O   UNL     1       3.299   3.568  20.422  0.00  0.00    +0.000 OA
ATOM     24  N   UNL     1       4.139   5.621  19.741  0.00  0.00    +0.000 N 
ATOM     25  H   UNL     1       3.862   6.570  19.515  0.00  0.00    +0.000 HD
BRANCH  24  26
ATOM     26  C   UNL     1       5.444   5.144  19.360  0.00  0.00    +0.000 C 
BRANCH  26  27
ATOM     27  C   UNL     1       5.652   5.119  17.863  0.00  0.00    +0.000 A 
ATOM     28  C   UNL     1       4.837   4.267  17.094  0.00  0.00    +0.000 A 
ATOM     29  C   UNL     1       5.013   4.144  15.715  0.00  0.00    +0.000 A 
ATOM     30  C   UNL     1       5.999   4.884  15.075  0.00  0.00    +0.000 A 
ATOM     31  C   UNL     1       6.805   5.747  15.812  0.00  0.00    +0.000 A 
ATOM     32  C   UNL     1       6.648   5.878  17.205  0.00  0.00    +0.000 A 
ATOM     33  C   UNL     1       7.570   6.822  17.930  0.00  0.00    +0.000 C 
ENDBRANCH  26  27
ENDBRANCH  24  26
ENDBRANCH  19  22
ENDBRANCH   1  18
TORSDOF 7
ENDMDL
