MODEL 1
REMARK VINA RESULT:      -7.2      0.000      0.000
REMARK  Name = 
REMARK  2 active torsions:
REMARK  status: ('A' for Active; 'I' for Inactive)
REMARK    1  A    between atoms: C_1  and  C_2
REMARK    2  A    between atoms: C_2  and  N_3
REMARK                            x       y       z     vdW  Elec       q    Type
REMARK                         _______ _______ _______ _____ _____    ______ ____
ROOT
ATOM      1  N   UNL     1       5.986   4.473  15.923  0.00  0.00    +0.000 N 
ATOM      2  C   UNL     1       7.345   4.675  15.921  0.00  0.00    +0.000 A 
ATOM      3  N   UNL     1       7.802   4.977  17.111  0.00  0.00    +0.000 NA
ATOM      4  C   UNL     1       6.693   4.981  17.924  0.00  0.00    +0.000 A 
ATOM      5  C   UNL     1       6.680   5.251  19.356  0.00  0.00    +0.000 A 
ATOM      6  O   UNL     1       7.676   5.510  20.026  0.00  0.00    +0.000 OA
ATOM      7  O   UNL     1       5.403   5.188  19.958  0.00  0.00    +0.000 OA
ATOM      8  C   UNL     1       4.212   4.912  19.228  0.00  0.00    +0.000 A 
ATOM      9  C   UNL     1       3.034   4.921  19.977  0.00  0.00    +0.000 A 
ATOM     10  C   UNL     1       1.828   4.674  19.334  0.00  0.00    +0.000 A 
ATOM     11  C   UNL     1       1.827   4.430  17.963  0.00  0.00    +0.000 A 
ATOM     12  F   UNL     1       0.662   4.199  17.343  0.00  0.00    +0.000 F 
ATOM     13  C   UNL     1       3.007   4.425  17.213  0.00  0.00    +0.000 A 
ATOM     14  C   UNL     1       4.229   4.658  17.840  0.00  0.00    +0.000 A 
ATOM     15  C   UNL     1       5.539   4.690  17.205  0.00  0.00    +0.000 A 
ENDROOT
BRANCH   1  17
ATOM     16  C   UNL     1       6.194   3.851  13.545  0.00  0.00    +0.000 C 
ATOM     17  C   UNL     1       5.270   4.068  14.731  0.00  0.00    +0.000 C 
ENDBRANCH   1  17
TORSDOF 1
ENDMDL
MODEL 2
REMARK VINA RESULT:      -7.2      2.241      4.444
REMARK  Name = 
REMARK  2 active torsions:
REMARK  status: ('A' for Active; 'I' for Inactive)
REMARK    1  A    between atoms: C_1  and  C_2
REMARK    2  A    between atoms: C_2  and  N_3
REMARK                            x       y       z     vdW  Elec       q    Type
REMARK                         _______ _______ _______ _____ _____    ______ ____
ROOT
ATOM      1  N   UNL     1       3.960   3.717  17.884  0.00  0.00    +0.000 N 
ATOM      2  C   UNL     1       4.126   3.799  19.246  0.00  0.00    +0.000 A 
ATOM      3  N   UNL     1       5.317   4.235  19.573  0.00  0.00    +0.000 NA
ATOM      4  C   UNL     1       5.960   4.437  18.374  0.00  0.00    +0.000 A 
ATOM      5  C   UNL     1       7.319   4.936  18.203  0.00  0.00    +0.000 A 
ATOM      6  O   UNL     1       8.070   5.244  19.124  0.00  0.00    +0.000 OA
ATOM      7  O   UNL     1       7.740   5.056  16.859  0.00  0.00    +0.000 OA
ATOM      8  C   UNL     1       6.920   4.695  15.753  0.00  0.00    +0.000 A 
ATOM      9  C   UNL     1       7.508   4.848  14.496  0.00  0.00    +0.000 A 
ATOM     10  C   UNL     1       6.776   4.503  13.366  0.00  0.00    +0.000 A 
ATOM     11  C   UNL     1       5.482   4.012  13.519  0.00  0.00    +0.000 A 
ATOM     12  F   UNL     1       4.781   3.674  12.429  0.00  0.00    +0.000 F 
ATOM     13  C   UNL     1       4.896   3.856  14.779  0.00  0.00    +0.000 A 
ATOM     14  C   UNL     1       5.607   4.206  15.924  0.00  0.00    +0.000 A 
ATOM     15  C   UNL     1       5.144   4.102  17.301  0.00  0.00    +0.000 A 
ENDROOT
BRANCH   1  17
ATOM     16  C   UNL     1       1.549   4.213  17.713  0.00  0.00    +0.000 C 
ATOM     17  C   UNL     1       2.701   3.318  17.289  0.00  0.00    +0.000 C 
ENDBRANCH   1  17
TORSDOF 1
ENDMDL
MODEL 3
REMARK VINA RESULT:      -6.9      3.260      5.022
REMARK  Name = 
REMARK  2 active torsions:
REMARK  status: ('A' for Active; 'I' for Inactive)
REMARK    1  A    between atoms: C_1  and  C_2
REMARK    2  A    between atoms: C_2  and  N_3
REMARK                            x       y       z     vdW  Elec       q    Type
REMARK                         _______ _______ _______ _____ _____    ______ ____
ROOT
ATOM      1  N   UNL     1       2.845   3.957  19.858  0.00  0.00    +0.000 N 
ATOM      2  C   UNL     1       2.006   4.461  20.824  0.00  0.00    +0.000 A 
ATOM      3  N   UNL     1       1.767   5.737  20.652  0.00  0.00    +0.000 NA
ATOM      4  C   UNL     1       2.486   6.084  19.533  0.00  0.00    +0.000 A 
ATOM      5  C   UNL     1       2.538   7.407  18.923  0.00  0.00    +0.000 A 
ATOM      6  O   UNL     1       1.933   8.391  19.338  0.00  0.00    +0.000 OA
ATOM      7  O   UNL     1       3.353   7.495  17.772  0.00  0.00    +0.000 OA
ATOM      8  C   UNL     1       4.093   6.393  17.257  0.00  0.00    +0.000 A 
ATOM      9  C   UNL     1       4.871   6.667  16.131  0.00  0.00    +0.000 A 
ATOM     10  C   UNL     1       5.634   5.646  15.577  0.00  0.00    +0.000 A 
ATOM     11  C   UNL     1       5.603   4.382  16.161  0.00  0.00    +0.000 A 
ATOM     12  F   UNL     1       6.344   3.401  15.630  0.00  0.00    +0.000 F 
ATOM     13  C   UNL     1       4.826   4.110  17.291  0.00  0.00    +0.000 A 
ATOM     14  C   UNL     1       4.045   5.116  17.856  0.00  0.00    +0.000 A 
ATOM     15  C   UNL     1       3.188   4.997  19.027  0.00  0.00    +0.000 A 
ENDROOT
BRANCH   1  17
ATOM     16  C   UNL     1       2.380   1.782  18.790  0.00  0.00    +0.000 C 
ATOM     17  C   UNL     1       3.201   2.553  19.810  0.00  0.00    +0.000 C 
ENDBRANCH   1  17
TORSDOF 1
ENDMDL
MODEL 4
REMARK VINA RESULT:      -6.9      2.460      4.647
REMARK  Name = 
REMARK  2 active torsions:
REMARK  status: ('A' for Active; 'I' for Inactive)
REMARK    1  A    between atoms: C_1  and  C_2
REMARK    2  A    between atoms: C_2  and  N_3
REMARK                            x       y       z     vdW  Elec       q    Type
REMARK                         _______ _______ _______ _____ _____    ______ ____
ROOT
ATOM      1  N   UNL     1       4.219   4.113  17.496  0.00  0.00    +0.000 N 
ATOM      2  C   UNL     1       4.308   4.565  18.792  0.00  0.00    +0.000 A 
ATOM      3  N   UNL     1       5.353   5.334  18.976  0.00  0.00    +0.000 NA
ATOM      4  C   UNL     1       5.979   5.378  17.752  0.00  0.00    +0.000 A 
ATOM      5  C   UNL     1       7.192   6.121  17.436  0.00  0.00    +0.000 A 
ATOM      6  O   UNL     1       7.815   6.813  18.237  0.00  0.00    +0.000 OA
ATOM      7  O   UNL     1       7.627   6.001  16.097  0.00  0.00    +0.000 OA
ATOM      8  C   UNL     1       6.957   5.198  15.132  0.00  0.00    +0.000 A 
ATOM      9  C   UNL     1       7.543   5.169  13.865  0.00  0.00    +0.000 A 
ATOM     10  C   UNL     1       6.956   4.395  12.871  0.00  0.00    +0.000 A 
ATOM     11  C   UNL     1       5.804   3.670  13.167  0.00  0.00    +0.000 A 
ATOM     12  F   UNL     1       5.244   2.920  12.209  0.00  0.00    +0.000 F 
ATOM     13  C   UNL     1       5.220   3.696  14.436  0.00  0.00    +0.000 A 
ATOM     14  C   UNL     1       5.786   4.474  15.445  0.00  0.00    +0.000 A 
ATOM     15  C   UNL     1       5.305   4.607  16.813  0.00  0.00    +0.000 A 
ENDROOT
BRANCH   1  17
ATOM     16  C   UNL     1       2.937   2.041  17.879  0.00  0.00    +0.000 C 
ATOM     17  C   UNL     1       3.111   3.298  17.044  0.00  0.00    +0.000 C 
ENDBRANCH   1  17
TORSDOF 1
ENDMDL
MODEL 5
REMARK VINA RESULT:      -6.9      1.430      1.430
REMARK  Name = 
REMARK  2 active torsions:
REMARK  status: ('A' for Active; 'I' for Inactive)
REMARK    1  A    between atoms: C_1  and  C_2
REMARK    2  A    between atoms: C_2  and  N_3
REMARK                            x       y       z     vdW  Elec       q    Type
REMARK                         _______ _______ _______ _____ _____    ______ ____
ROOT
ATOM      1  N   UNL     1       5.972   4.628  15.236  0.00  0.00    +0.000 N 
ATOM      2  C   UNL     1       7.056   5.437  14.991  0.00  0.00    +0.000 A 
ATOM      3  N   UNL     1       7.613   5.866  16.097  0.00  0.00    +0.000 NA
ATOM      4  C   UNL     1       6.855   5.321  17.107  0.00  0.00    +0.000 A 
ATOM      5  C   UNL     1       7.081   5.494  18.537  0.00  0.00    +0.000 A 
ATOM      6  O   UNL     1       7.992   6.156  19.024  0.00  0.00    +0.000 OA
ATOM      7  O   UNL     1       6.155   4.821  19.367  0.00  0.00    +0.000 OA
ATOM      8  C   UNL     1       5.068   4.056  18.858  0.00  0.00    +0.000 A 
ATOM      9  C   UNL     1       4.233   3.487  19.821  0.00  0.00    +0.000 A 
ATOM     10  C   UNL     1       3.141   2.737  19.404  0.00  0.00    +0.000 A 
ATOM     11  C   UNL     1       2.907   2.578  18.040  0.00  0.00    +0.000 A 
ATOM     12  F   UNL     1       1.850   1.860  17.640  0.00  0.00    +0.000 F 
ATOM     13  C   UNL     1       3.742   3.151  17.076  0.00  0.00    +0.000 A 
ATOM     14  C   UNL     1       4.850   3.898  17.472  0.00  0.00    +0.000 A 
ATOM     15  C   UNL     1       5.809   4.560  16.600  0.00  0.00    +0.000 A 
ENDROOT
BRANCH   1  17
ATOM     16  C   UNL     1       6.125   3.626  12.987  0.00  0.00    +0.000 C 
ATOM     17  C   UNL     1       5.236   3.988  14.165  0.00  0.00    +0.000 C 
ENDBRANCH   1  17
TORSDOF 1
ENDMDL
MODEL 6
REMARK VINA RESULT:      -6.9      2.784      3.828
REMARK  Name = 
REMARK  2 active torsions:
REMARK  status: ('A' for Active; 'I' for Inactive)
REMARK    1  A    between atoms: C_1  and  C_2
REMARK    2  A    between atoms: C_2  and  N_3
REMARK                            x       y       z     vdW  Elec       q    Type
REMARK                         _______ _______ _______ _____ _____    ______ ____
ROOT
ATOM      1  N   UNL     1       3.455   6.863  17.810  0.00  0.00    +0.000 N 
ATOM      2  C   UNL     1       4.425   7.446  17.030  0.00  0.00    +0.000 A 
ATOM      3  N   UNL     1       5.168   6.555  16.420  0.00  0.00    +0.000 NA
ATOM      4  C   UNL     1       4.669   5.341  16.827  0.00  0.00    +0.000 A 
ATOM      5  C   UNL     1       5.155   4.031  16.410  0.00  0.00    +0.000 A 
ATOM      6  O   UNL     1       6.085   3.848  15.630  0.00  0.00    +0.000 OA
ATOM      7  O   UNL     1       4.462   2.936  16.975  0.00  0.00    +0.000 OA
ATOM      8  C   UNL     1       3.391   3.088  17.900  0.00  0.00    +0.000 A 
ATOM      9  C   UNL     1       2.842   1.899  18.383  0.00  0.00    +0.000 A 
ATOM     10  C   UNL     1       1.802   1.963  19.301  0.00  0.00    +0.000 A 
ATOM     11  C   UNL     1       1.339   3.210  19.717  0.00  0.00    +0.000 A 
ATOM     12  F   UNL     1       0.341   3.270  20.607  0.00  0.00    +0.000 F 
ATOM     13  C   UNL     1       1.892   4.400  19.236  0.00  0.00    +0.000 A 
ATOM     14  C   UNL     1       2.929   4.359  18.306  0.00  0.00    +0.000 A 
ATOM     15  C   UNL     1       3.611   5.501  17.713  0.00  0.00    +0.000 A 
ENDROOT
BRANCH   1  17
ATOM     16  C   UNL     1       2.078   8.910  17.778  0.00  0.00    +0.000 C 
ATOM     17  C   UNL     1       2.476   7.651  18.530  0.00  0.00    +0.000 C 
ENDBRANCH   1  17
TORSDOF 1
ENDMDL
MODEL 7
REMARK VINA RESULT:      -6.8      3.006      3.973
REMARK  Name = 
REMARK  2 active torsions:
REMARK  status: ('A' for Active; 'I' for Inactive)
REMARK    1  A    between atoms: C_1  and  C_2
REMARK    2  A    between atoms: C_2  and  N_3
REMARK                            x       y       z     vdW  Elec       q    Type
REMARK                         _______ _______ _______ _____ _____    ______ ____
ROOT
ATOM      1  N   UNL     1       3.685   3.443  17.877  0.00  0.00    +0.000 N 
ATOM      2  C   UNL     1       3.872   2.156  18.323  0.00  0.00    +0.000 A 
ATOM      3  N   UNL     1       3.425   1.988  19.544  0.00  0.00    +0.000 NA
ATOM      4  C   UNL     1       2.936   3.218  19.914  0.00  0.00    +0.000 A 
ATOM      5  C   UNL     1       2.314   3.545  21.191  0.00  0.00    +0.000 A 
ATOM      6  O   UNL     1       2.147   2.748  22.110  0.00  0.00    +0.000 OA
ATOM      7  O   UNL     1       1.892   4.888  21.316  0.00  0.00    +0.000 OA
ATOM      8  C   UNL     1       2.078   5.860  20.293  0.00  0.00    +0.000 A 
ATOM      9  C   UNL     1       1.628   7.146  20.598  0.00  0.00    +0.000 A 
ATOM     10  C   UNL     1       1.787   8.154  19.656  0.00  0.00    +0.000 A 
ATOM     11  C   UNL     1       2.393   7.856  18.438  0.00  0.00    +0.000 A 
ATOM     12  F   UNL     1       2.551   8.831  17.533  0.00  0.00    +0.000 F 
ATOM     13  C   UNL     1       2.846   6.568  18.134  0.00  0.00    +0.000 A 
ATOM     14  C   UNL     1       2.686   5.539  19.060  0.00  0.00    +0.000 A 
ATOM     15  C   UNL     1       3.104   4.154  18.900  0.00  0.00    +0.000 A 
ENDROOT
BRANCH   1  17
ATOM     16  C   UNL     1       5.467   4.374  16.448  0.00  0.00    +0.000 C 
ATOM     17  C   UNL     1       4.045   3.847  16.533  0.00  0.00    +0.000 C 
ENDBRANCH   1  17
TORSDOF 1
ENDMDL
MODEL 8
REMARK VINA RESULT:      -6.6      3.281      4.862
REMARK  Name = 
REMARK  2 active torsions:
REMARK  status: ('A' for Active; 'I' for Inactive)
REMARK    1  A    between atoms: C_1  and  C_2
REMARK    2  A    between atoms: C_2  and  N_3
REMARK                            x       y       z     vdW  Elec       q    Type
REMARK                         _______ _______ _______ _____ _____    ______ ____
ROOT
ATOM      1  N   UNL     1       3.440   3.178  20.016  0.00  0.00    +0.000 N 
ATOM      2  C   UNL     1       2.652   3.178  21.142  0.00  0.00    +0.000 A 
ATOM      3  N   UNL     1       2.084   4.340  21.348  0.00  0.00    +0.000 NA
ATOM      4  C   UNL     1       2.528   5.137  20.318  0.00  0.00    +0.000 A 
ATOM      5  C   UNL     1       2.164   6.531  20.095  0.00  0.00    +0.000 A 
ATOM      6  O   UNL     1       1.403   7.176  20.809  0.00  0.00    +0.000 OA
ATOM      7  O   UNL     1       2.759   7.121  18.957  0.00  0.00    +0.000 OA
ATOM      8  C   UNL     1       3.665   6.428  18.105  0.00  0.00    +0.000 A 
ATOM      9  C   UNL     1       4.182   7.174  17.045  0.00  0.00    +0.000 A 
ATOM     10  C   UNL     1       5.084   6.572  16.177  0.00  0.00    +0.000 A 
ATOM     11  C   UNL     1       5.449   5.245  16.390  0.00  0.00    +0.000 A 
ATOM     12  F   UNL     1       6.324   4.668  15.556  0.00  0.00    +0.000 F 
ATOM     13  C   UNL     1       4.933   4.499  17.454  0.00  0.00    +0.000 A 
ATOM     14  C   UNL     1       4.019   5.079  18.330  0.00  0.00    +0.000 A 
ATOM     15  C   UNL     1       3.394   4.444  19.482  0.00  0.00    +0.000 A 
ENDROOT
BRANCH   1  17
ATOM     16  C   UNL     1       3.463   1.382  18.325  0.00  0.00    +0.000 C 
ATOM     17  C   UNL     1       4.119   1.984  19.556  0.00  0.00    +0.000 C 
ENDBRANCH   1  17
TORSDOF 1
ENDMDL
MODEL 9
REMARK VINA RESULT:      -6.5      3.373      5.151
REMARK  Name = 
REMARK  2 active torsions:
REMARK  status: ('A' for Active; 'I' for Inactive)
REMARK    1  A    between atoms: C_1  and  C_2
REMARK    2  A    between atoms: C_2  and  N_3
REMARK                            x       y       z     vdW  Elec       q    Type
REMARK                         _______ _______ _______ _____ _____    ______ ____
ROOT
ATOM      1  N   UNL     1       3.250   3.887  19.817  0.00  0.00    +0.000 N 
ATOM      2  C   UNL     1       2.010   4.197  20.324  0.00  0.00    +0.000 A 
ATOM      3  N   UNL     1       1.625   5.402  19.983  0.00  0.00    +0.000 NA
ATOM      4  C   UNL     1       2.661   5.904  19.231  0.00  0.00    +0.000 A 
ATOM      5  C   UNL     1       2.707   7.220  18.605  0.00  0.00    +0.000 A 
ATOM      6  O   UNL     1       1.811   8.056  18.672  0.00  0.00    +0.000 OA
ATOM      7  O   UNL     1       3.890   7.488  17.880  0.00  0.00    +0.000 OA
ATOM      8  C   UNL     1       4.970   6.565  17.785  0.00  0.00    +0.000 A 
ATOM      9  C   UNL     1       6.074   7.008  17.055  0.00  0.00    +0.000 A 
ATOM     10  C   UNL     1       7.175   6.170  16.928  0.00  0.00    +0.000 A 
ATOM     11  C   UNL     1       7.147   4.916  17.534  0.00  0.00    +0.000 A 
ATOM     12  F   UNL     1       8.212   4.112  17.416  0.00  0.00    +0.000 F 
ATOM     13  C   UNL     1       6.042   4.475  18.268  0.00  0.00    +0.000 A 
ATOM     14  C   UNL     1       4.923   5.295  18.398  0.00  0.00    +0.000 A 
ATOM     15  C   UNL     1       3.700   4.987  19.127  0.00  0.00    +0.000 A 
ENDROOT
BRANCH   1  17
ATOM     16  C   UNL     1       3.652   1.667  18.817  0.00  0.00    +0.000 C 
ATOM     17  C   UNL     1       3.853   2.584  20.012  0.00  0.00    +0.000 C 
ENDBRANCH   1  17
TORSDOF 1
ENDMDL
