MODEL 1
REMARK VINA RESULT:      -8.3      0.000      0.000
REMARK  Name = 
REMARK  11 active torsions:
REMARK  status: ('A' for Active; 'I' for Inactive)
REMARK    1  A    between atoms: C_1  and  C_2
REMARK    2  A    between atoms: C_2  and  N_3
REMARK    3  A    between atoms: N_3  and  C_4
REMARK    4  A    between atoms: N_3  and  C_19
REMARK    5  A    between atoms: C_4  and  C_5
REMARK    6  A    between atoms: C_6  and  C_7
REMARK    7  A    between atoms: C_6  and  C_13
REMARK    8  A    between atoms: C_19  and  C_20
REMARK    9  A    between atoms: C_19  and  C_21
REMARK   10  A    between atoms: C_24  and  O_25
REMARK   11  A    between atoms: O_25  and  C_26
REMARK                            x       y       z     vdW  Elec       q    Type
REMARK                         _______ _______ _______ _____ _____    ______ ____
ROOT
ATOM      1  C   UNL     1       5.238   7.053  17.513  0.00  0.00    +0.000 C 
ENDROOT
BRANCH   1   2
ATOM      2  C   UNL     1       4.221   5.966  17.746  0.00  0.00    +0.000 C 
ATOM      3  C   UNL     1       3.027   5.977  18.380  0.00  0.00    +0.000 C 
BRANCH   3   4
ATOM      4  C   UNL     1       2.408   7.300  18.649  0.00  0.00    +0.000 A 
ATOM      5  C   UNL     1       2.031   7.609  19.968  0.00  0.00    +0.000 A 
ATOM      6  C   UNL     1       1.403   8.818  20.272  0.00  0.00    +0.000 A 
ATOM      7  C   UNL     1       1.123   9.724  19.255  0.00  0.00    +0.000 A 
ATOM      8  C   UNL     1       1.485   9.435  17.940  0.00  0.00    +0.000 A 
ATOM      9  C   UNL     1       2.137   8.227  17.639  0.00  0.00    +0.000 A 
ENDBRANCH   3   4
BRANCH   3  10
ATOM     10  C   UNL     1       2.362   4.643  18.604  0.00  0.00    +0.000 A 
ATOM     11  C   UNL     1       1.492   4.430  19.696  0.00  0.00    +0.000 A 
ATOM     12  C   UNL     1       0.906   3.188  19.948  0.00  0.00    +0.000 A 
ATOM     13  C   UNL     1       1.137   2.130  19.081  0.00  0.00    +0.000 A 
ATOM     14  C   UNL     1       1.939   2.325  17.959  0.00  0.00    +0.000 A 
ATOM     15  C   UNL     1       2.541   3.570  17.719  0.00  0.00    +0.000 A 
ENDBRANCH   3  10
ENDBRANCH   1   2
BRANCH   1  16
ATOM     16  N   UNL     1       6.574   6.466  17.526  0.00  0.00    +0.000 NA
BRANCH  16  18
ATOM     17  C   UNL     1       7.865   8.627  17.535  0.00  0.00    +0.000 C 
ATOM     18  C   UNL     1       7.669   7.234  18.117  0.00  0.00    +0.000 C 
ENDBRANCH  16  18
BRANCH  16  19
ATOM     19  C   UNL     1       6.816   5.036  17.313  0.00  0.00    +0.000 C 
ATOM     20  C   UNL     1       8.052   4.443  18.003  0.00  0.00    +0.000 C 
BRANCH  19  21
ATOM     21  C   UNL     1       6.753   4.632  15.843  0.00  0.00    +0.000 A 
ATOM     22  C   UNL     1       5.778   3.707  15.425  0.00  0.00    +0.000 A 
ATOM     23  C   UNL     1       5.625   3.393  14.073  0.00  0.00    +0.000 A 
ATOM     24  C   UNL     1       6.427   4.009  13.115  0.00  0.00    +0.000 A 
ATOM     25  C   UNL     1       7.435   4.883  13.519  0.00  0.00    +0.000 A 
ATOM     26  C   UNL     1       7.599   5.191  14.875  0.00  0.00    +0.000 A 
BRANCH  24  27
ATOM     27  O   UNL     1       6.160   3.669  11.816  0.00  0.00    +0.000 OA
ATOM     28  C   UNL     1       4.983   2.885  11.643  0.00  0.00    +0.000 C 
ENDBRANCH  24  27
ENDBRANCH  19  21
ENDBRANCH  16  19
ENDBRANCH   1  16
TORSDOF 8
ENDMDL
MODEL 2
REMARK VINA RESULT:      -8.2      0.562      1.355
REMARK  Name = 
REMARK  11 active torsions:
REMARK  status: ('A' for Active; 'I' for Inactive)
REMARK    1  A    between atoms: C_1  and  C_2
REMARK    2  A    between atoms: C_2  and  N_3
REMARK    3  A    between atoms: N_3  and  C_4
REMARK    4  A    between atoms: N_3  and  C_19
REMARK    5  A    between atoms: C_4  and  C_5
REMARK    6  A    between atoms: C_6  and  C_7
REMARK    7  A    between atoms: C_6  and  C_13
REMARK    8  A    between atoms: C_19  and  C_20
REMARK    9  A    between atoms: C_19  and  C_21
REMARK   10  A    between atoms: C_24  and  O_25
REMARK   11  A    between atoms: O_25  and  C_26
REMARK                            x       y       z     vdW  Elec       q    Type
REMARK                         _______ _______ _______ _____ _____    ______ ____
ROOT
ATOM      1  C   UNL     1       5.113   7.158  17.614  0.00  0.00    +0.000 C 
ENDROOT
BRANCH   1   2
ATOM      2  C   UNL     1       4.078   6.145  18.026  0.00  0.00    +0.000 C 
ATOM      3  C   UNL     1       2.905   6.280  18.685  0.00  0.00    +0.000 C 
BRANCH   3   4
ATOM      4  C   UNL     1       2.327   7.645  18.780  0.00  0.00    +0.000 A 
ATOM      5  C   UNL     1       1.789   8.062  20.010  0.00  0.00    +0.000 A 
ATOM      6  C   UNL     1       1.191   9.317  20.145  0.00  0.00    +0.000 A 
ATOM      7  C   UNL     1       1.104  10.161  19.044  0.00  0.00    +0.000 A 
ATOM      8  C   UNL     1       1.628   9.764  17.815  0.00  0.00    +0.000 A 
ATOM      9  C   UNL     1       2.249   8.511  17.685  0.00  0.00    +0.000 A 
ENDBRANCH   3   4
BRANCH   3  10
ATOM     10  C   UNL     1       2.215   5.010  19.115  0.00  0.00    +0.000 A 
ATOM     11  C   UNL     1       1.725   4.084  18.166  0.00  0.00    +0.000 A 
ATOM     12  C   UNL     1       1.040   2.927  18.543  0.00  0.00    +0.000 A 
ATOM     13  C   UNL     1       0.868   2.638  19.889  0.00  0.00    +0.000 A 
ATOM     14  C   UNL     1       1.394   3.498  20.849  0.00  0.00    +0.000 A 
ATOM     15  C   UNL     1       2.066   4.670  20.466  0.00  0.00    +0.000 A 
ENDBRANCH   3  10
ENDBRANCH   1   2
BRANCH   1  16
ATOM     16  N   UNL     1       6.429   6.526  17.623  0.00  0.00    +0.000 NA
BRANCH  16  18
ATOM     17  C   UNL     1       7.907   8.564  17.595  0.00  0.00    +0.000 C 
ATOM     18  C   UNL     1       7.542   7.238  18.250  0.00  0.00    +0.000 C 
ENDBRANCH  16  18
BRANCH  16  19
ATOM     19  C   UNL     1       6.625   5.096  17.370  0.00  0.00    +0.000 C 
ATOM     20  C   UNL     1       7.944   4.490  17.869  0.00  0.00    +0.000 C 
BRANCH  19  21
ATOM     21  C   UNL     1       6.345   4.701  15.923  0.00  0.00    +0.000 A 
ATOM     22  C   UNL     1       7.270   5.054  14.923  0.00  0.00    +0.000 A 
ATOM     23  C   UNL     1       7.097   4.621  13.607  0.00  0.00    +0.000 A 
ATOM     24  C   UNL     1       6.013   3.814  13.270  0.00  0.00    +0.000 A 
ATOM     25  C   UNL     1       5.058   3.505  14.237  0.00  0.00    +0.000 A 
ATOM     26  C   UNL     1       5.221   3.947  15.556  0.00  0.00    +0.000 A 
BRANCH  24  27
ATOM     27  O   UNL     1       5.967   3.403  11.965  0.00  0.00    +0.000 OA
ATOM     28  C   UNL     1       4.651   3.205  11.456  0.00  0.00    +0.000 C 
ENDBRANCH  24  27
ENDBRANCH  19  21
ENDBRANCH  16  19
ENDBRANCH   1  16
TORSDOF 8
ENDMDL
MODEL 3
REMARK VINA RESULT:      -8.0      3.779      8.083
REMARK  Name = 
REMARK  11 active torsions:
REMARK  status: ('A' for Active; 'I' for Inactive)
REMARK    1  A    between atoms: C_1  and  C_2
REMARK    2  A    between atoms: C_2  and  N_3
REMARK    3  A    between atoms: N_3  and  C_4
REMARK    4  A    between atoms: N_3  and  C_19
REMARK    5  A    between atoms: C_4  and  C_5
REMARK    6  A    between atoms: C_6  and  C_7
REMARK    7  A    between atoms: C_6  and  C_13
REMARK    8  A    between atoms: C_19  and  C_20
REMARK    9  A    between atoms: C_19  and  C_21
REMARK   10  A    between atoms: C_24  and  O_25
REMARK   11  A    between atoms: O_25  and  C_26
REMARK                            x       y       z     vdW  Elec       q    Type
REMARK                         _______ _______ _______ _____ _____    ______ ____
ROOT
ATOM      1  C   UNL     1       1.570   7.686  20.311  0.00  0.00    +0.000 C 
ENDROOT
BRANCH   1   2
ATOM      2  C   UNL     1       2.358   7.156  19.141  0.00  0.00    +0.000 C 
ATOM      3  C   UNL     1       2.858   5.926  18.880  0.00  0.00    +0.000 C 
BRANCH   3   4
ATOM      4  C   UNL     1       2.326   4.790  19.674  0.00  0.00    +0.000 A 
ATOM      5  C   UNL     1       1.315   3.992  19.112  0.00  0.00    +0.000 A 
ATOM      6  C   UNL     1       0.745   2.939  19.831  0.00  0.00    +0.000 A 
ATOM      7  C   UNL     1       1.165   2.686  21.132  0.00  0.00    +0.000 A 
ATOM      8  C   UNL     1       2.164   3.469  21.709  0.00  0.00    +0.000 A 
ATOM      9  C   UNL     1       2.752   4.514  20.977  0.00  0.00    +0.000 A 
ENDBRANCH   3   4
BRANCH   3  10
ATOM     10  C   UNL     1       3.783   5.805  17.696  0.00  0.00    +0.000 A 
ATOM     11  C   UNL     1       4.341   6.948  17.081  0.00  0.00    +0.000 A 
ATOM     12  C   UNL     1       5.161   6.858  15.953  0.00  0.00    +0.000 A 
ATOM     13  C   UNL     1       5.486   5.613  15.437  0.00  0.00    +0.000 A 
ATOM     14  C   UNL     1       5.003   4.464  16.059  0.00  0.00    +0.000 A 
ATOM     15  C   UNL     1       4.165   4.558  17.181  0.00  0.00    +0.000 A 
ENDBRANCH   3  10
ENDBRANCH   1   2
BRANCH   1  16
ATOM     16  N   UNL     1       1.144   9.050  20.018  0.00  0.00    +0.000 NA
BRANCH  16  18
ATOM     17  C   UNL     1       0.195   9.829  22.217  0.00  0.00    +0.000 C 
ATOM     18  C   UNL     1       1.197  10.044  21.090  0.00  0.00    +0.000 C 
ENDBRANCH  16  18
BRANCH  16  19
ATOM     19  C   UNL     1       1.009   9.566  18.653  0.00  0.00    +0.000 C 
ATOM     20  C   UNL     1       2.188  10.389  18.116  0.00  0.00    +0.000 C 
BRANCH  19  21
ATOM     21  C   UNL     1      -0.320  10.274  18.411  0.00  0.00    +0.000 A 
ATOM     22  C   UNL     1      -1.312   9.634  17.644  0.00  0.00    +0.000 A 
ATOM     23  C   UNL     1      -2.576  10.207  17.489  0.00  0.00    +0.000 A 
ATOM     24  C   UNL     1      -2.878  11.416  18.109  0.00  0.00    +0.000 A 
ATOM     25  C   UNL     1      -1.889  12.091  18.823  0.00  0.00    +0.000 A 
ATOM     26  C   UNL     1      -0.617  11.525  18.972  0.00  0.00    +0.000 A 
BRANCH  24  27
ATOM     27  O   UNL     1      -4.160  11.863  17.935  0.00  0.00    +0.000 OA
ATOM     28  C   UNL     1      -4.771  11.441  16.719  0.00  0.00    +0.000 C 
ENDBRANCH  24  27
ENDBRANCH  19  21
ENDBRANCH  16  19
ENDBRANCH   1  16
TORSDOF 8
ENDMDL
MODEL 4
REMARK VINA RESULT:      -8.0      2.395      7.022
REMARK  Name = 
REMARK  11 active torsions:
REMARK  status: ('A' for Active; 'I' for Inactive)
REMARK    1  A    between atoms: C_1  and  C_2
REMARK    2  A    between atoms: C_2  and  N_3
REMARK    3  A    between atoms: N_3  and  C_4
REMARK    4  A    between atoms: N_3  and  C_19
REMARK    5  A    between atoms: C_4  and  C_5
REMARK    6  A    between atoms: C_6  and  C_7
REMARK    7  A    between atoms: C_6  and  C_13
REMARK    8  A    between atoms: C_19  and  C_20
REMARK    9  A    between atoms: C_19  and  C_21
REMARK   10  A    between atoms: C_24  and  O_25
REMARK   11  A    between atoms: O_25  and  C_26
REMARK                            x       y       z     vdW  Elec       q    Type
REMARK                         _______ _______ _______ _____ _____    ______ ____
ROOT
ATOM      1  C   UNL     1       4.669   3.678  18.510  0.00  0.00    +0.000 C 
ENDROOT
BRANCH   1   2
ATOM      2  C   UNL     1       5.181   3.697  17.093  0.00  0.00    +0.000 C 
ATOM      3  C   UNL     1       5.944   4.594  16.428  0.00  0.00    +0.000 C 
BRANCH   3   4
ATOM      4  C   UNL     1       6.690   5.589  17.238  0.00  0.00    +0.000 A 
ATOM      5  C   UNL     1       6.634   6.942  16.859  0.00  0.00    +0.000 A 
ATOM      6  C   UNL     1       7.353   7.915  17.555  0.00  0.00    +0.000 A 
ATOM      7  C   UNL     1       8.157   7.544  18.627  0.00  0.00    +0.000 A 
ATOM      8  C   UNL     1       8.229   6.207  19.017  0.00  0.00    +0.000 A 
ATOM      9  C   UNL     1       7.488   5.231  18.330  0.00  0.00    +0.000 A 
ENDBRANCH   3   4
BRANCH   3  10
ATOM     10  C   UNL     1       6.094   4.391  14.942  0.00  0.00    +0.000 A 
ATOM     11  C   UNL     1       5.070   3.787  14.178  0.00  0.00    +0.000 A 
ATOM     12  C   UNL     1       5.210   3.546  12.809  0.00  0.00    +0.000 A 
ATOM     13  C   UNL     1       6.365   3.949  12.154  0.00  0.00    +0.000 A 
ATOM     14  C   UNL     1       7.365   4.605  12.867  0.00  0.00    +0.000 A 
ATOM     15  C   UNL     1       7.229   4.829  14.246  0.00  0.00    +0.000 A 
ENDBRANCH   3  10
ENDBRANCH   1   2
BRANCH   1  16
ATOM     16  N   UNL     1       3.451   4.478  18.587  0.00  0.00    +0.000 NA
BRANCH  16  18
ATOM     17  C   UNL     1       1.684   2.762  18.065  0.00  0.00    +0.000 C 
ATOM     18  C   UNL     1       2.317   4.108  17.740  0.00  0.00    +0.000 C 
ENDBRANCH  16  18
BRANCH  16  19
ATOM     19  C   UNL     1       3.169   5.392  19.697  0.00  0.00    +0.000 C 
ATOM     20  C   UNL     1       2.335   4.823  20.854  0.00  0.00    +0.000 C 
BRANCH  19  21
ATOM     21  C   UNL     1       2.631   6.744  19.237  0.00  0.00    +0.000 A 
ATOM     22  C   UNL     1       1.800   7.483  20.099  0.00  0.00    +0.000 A 
ATOM     23  C   UNL     1       1.374   8.767  19.753  0.00  0.00    +0.000 A 
ATOM     24  C   UNL     1       1.784   9.342  18.553  0.00  0.00    +0.000 A 
ATOM     25  C   UNL     1       2.559   8.600  17.663  0.00  0.00    +0.000 A 
ATOM     26  C   UNL     1       2.978   7.307  18.001  0.00  0.00    +0.000 A 
BRANCH  24  27
ATOM     27  O   UNL     1       1.352  10.622  18.335  0.00  0.00    +0.000 OA
ATOM     28  C   UNL     1       0.889  11.294  19.503  0.00  0.00    +0.000 C 
ENDBRANCH  24  27
ENDBRANCH  19  21
ENDBRANCH  16  19
ENDBRANCH   1  16
TORSDOF 8
ENDMDL
MODEL 5
REMARK VINA RESULT:      -8.0      3.657      7.988
REMARK  Name = 
REMARK  11 active torsions:
REMARK  status: ('A' for Active; 'I' for Inactive)
REMARK    1  A    between atoms: C_1  and  C_2
REMARK    2  A    between atoms: C_2  and  N_3
REMARK    3  A    between atoms: N_3  and  C_4
REMARK    4  A    between atoms: N_3  and  C_19
REMARK    5  A    between atoms: C_4  and  C_5
REMARK    6  A    between atoms: C_6  and  C_7
REMARK    7  A    between atoms: C_6  and  C_13
REMARK    8  A    between atoms: C_19  and  C_20
REMARK    9  A    between atoms: C_19  and  C_21
REMARK   10  A    between atoms: C_24  and  O_25
REMARK   11  A    between atoms: O_25  and  C_26
REMARK                            x       y       z     vdW  Elec       q    Type
REMARK                         _______ _______ _______ _____ _____    ______ ____
ROOT
ATOM      1  C   UNL     1       1.652   7.910  19.627  0.00  0.00    +0.000 C 
ENDROOT
BRANCH   1   2
ATOM      2  C   UNL     1       2.493   7.241  18.572  0.00  0.00    +0.000 C 
ATOM      3  C   UNL     1       2.939   5.969  18.456  0.00  0.00    +0.000 C 
BRANCH   3   4
ATOM      4  C   UNL     1       2.286   4.936  19.298  0.00  0.00    +0.000 A 
ATOM      5  C   UNL     1       2.701   4.797  20.634  0.00  0.00    +0.000 A 
ATOM      6  C   UNL     1       2.155   3.811  21.459  0.00  0.00    +0.000 A 
ATOM      7  C   UNL     1       1.202   2.936  20.949  0.00  0.00    +0.000 A 
ATOM      8  C   UNL     1       0.780   3.055  19.626  0.00  0.00    +0.000 A 
ATOM      9  C   UNL     1       1.313   4.061  18.803  0.00  0.00    +0.000 A 
ENDBRANCH   3   4
BRANCH   3  10
ATOM     10  C   UNL     1       3.942   5.697  17.364  0.00  0.00    +0.000 A 
ATOM     11  C   UNL     1       4.286   4.376  16.996  0.00  0.00    +0.000 A 
ATOM     12  C   UNL     1       5.248   4.104  16.021  0.00  0.00    +0.000 A 
ATOM     13  C   UNL     1       5.862   5.150  15.349  0.00  0.00    +0.000 A 
ATOM     14  C   UNL     1       5.498   6.462  15.644  0.00  0.00    +0.000 A 
ATOM     15  C   UNL     1       4.544   6.733  16.637  0.00  0.00    +0.000 A 
ENDBRANCH   3  10
ENDBRANCH   1   2
BRANCH   1  16
ATOM     16  N   UNL     1       1.436   9.304  19.250  0.00  0.00    +0.000 NA
BRANCH  16  18
ATOM     17  C   UNL     1       2.368  11.240  17.939  0.00  0.00    +0.000 C 
ATOM     18  C   UNL     1       1.968   9.771  17.970  0.00  0.00    +0.000 C 
ENDBRANCH  16  18
BRANCH  16  19
ATOM     19  C   UNL     1       0.431  10.155  19.893  0.00  0.00    +0.000 C 
ATOM     20  C   UNL     1      -0.036   9.721  21.290  0.00  0.00    +0.000 C 
BRANCH  19  21
ATOM     21  C   UNL     1      -0.753  10.471  18.985  0.00  0.00    +0.000 A 
ATOM     22  C   UNL     1      -0.992   9.661  17.860  0.00  0.00    +0.000 A 
ATOM     23  C   UNL     1      -2.125   9.858  17.066  0.00  0.00    +0.000 A 
ATOM     24  C   UNL     1      -3.045  10.851  17.391  0.00  0.00    +0.000 A 
ATOM     25  C   UNL     1      -2.792  11.699  18.469  0.00  0.00    +0.000 A 
ATOM     26  C   UNL     1      -1.652  11.512  19.260  0.00  0.00    +0.000 A 
BRANCH  24  27
ATOM     27  O   UNL     1      -4.144  10.925  16.579  0.00  0.00    +0.000 OA
ATOM     28  C   UNL     1      -5.117  11.882  16.990  0.00  0.00    +0.000 C 
ENDBRANCH  24  27
ENDBRANCH  19  21
ENDBRANCH  16  19
ENDBRANCH   1  16
TORSDOF 8
ENDMDL
MODEL 6
REMARK VINA RESULT:      -8.0      3.766      8.116
REMARK  Name = 
REMARK  11 active torsions:
REMARK  status: ('A' for Active; 'I' for Inactive)
REMARK    1  A    between atoms: C_1  and  C_2
REMARK    2  A    between atoms: C_2  and  N_3
REMARK    3  A    between atoms: N_3  and  C_4
REMARK    4  A    between atoms: N_3  and  C_19
REMARK    5  A    between atoms: C_4  and  C_5
REMARK    6  A    between atoms: C_6  and  C_7
REMARK    7  A    between atoms: C_6  and  C_13
REMARK    8  A    between atoms: C_19  and  C_20
REMARK    9  A    between atoms: C_19  and  C_21
REMARK   10  A    between atoms: C_24  and  O_25
REMARK   11  A    between atoms: O_25  and  C_26
REMARK                            x       y       z     vdW  Elec       q    Type
REMARK                         _______ _______ _______ _____ _____    ______ ____
ROOT
ATOM      1  C   UNL     1       1.470   7.741  20.356  0.00  0.00    +0.000 C 
ENDROOT
BRANCH   1   2
ATOM      2  C   UNL     1       2.277   7.220  19.195  0.00  0.00    +0.000 C 
ATOM      3  C   UNL     1       2.755   5.986  18.918  0.00  0.00    +0.000 C 
BRANCH   3   4
ATOM      4  C   UNL     1       2.177   4.844  19.671  0.00  0.00    +0.000 A 
ATOM      5  C   UNL     1       2.634   4.601  20.978  0.00  0.00    +0.000 A 
ATOM      6  C   UNL     1       2.160   3.515  21.716  0.00  0.00    +0.000 A 
ATOM      7  C   UNL     1       1.239   2.643  21.146  0.00  0.00    +0.000 A 
ATOM      8  C   UNL     1       0.777   2.864  19.849  0.00  0.00    +0.000 A 
ATOM      9  C   UNL     1       1.237   3.970  19.116  0.00  0.00    +0.000 A 
ENDBRANCH   3   4
BRANCH   3  10
ATOM     10  C   UNL     1       3.709   5.870  17.757  0.00  0.00    +0.000 A 
ATOM     11  C   UNL     1       4.273   7.016  17.153  0.00  0.00    +0.000 A 
ATOM     12  C   UNL     1       5.120   6.932  16.045  0.00  0.00    +0.000 A 
ATOM     13  C   UNL     1       5.466   5.688  15.538  0.00  0.00    +0.000 A 
ATOM     14  C   UNL     1       4.977   4.537  16.150  0.00  0.00    +0.000 A 
ATOM     15  C   UNL     1       4.112   4.626  17.252  0.00  0.00    +0.000 A 
ENDBRANCH   3  10
ENDBRANCH   1   2
BRANCH   1  16
ATOM     16  N   UNL     1       1.018   9.095  20.052  0.00  0.00    +0.000 NA
BRANCH  16  18
ATOM     17  C   UNL     1       0.806   9.480  22.531  0.00  0.00    +0.000 C 
ATOM     18  C   UNL     1       0.964  10.074  21.137  0.00  0.00    +0.000 C 
ENDBRANCH  16  18
BRANCH  16  19
ATOM     19  C   UNL     1       0.959   9.625  18.687  0.00  0.00    +0.000 C 
ATOM     20  C   UNL     1       2.125  10.526  18.255  0.00  0.00    +0.000 C 
BRANCH  19  21
ATOM     21  C   UNL     1      -0.387  10.259  18.350  0.00  0.00    +0.000 A 
ATOM     22  C   UNL     1      -1.236   9.620  17.427  0.00  0.00    +0.000 A 
ATOM     23  C   UNL     1      -2.517  10.116  17.173  0.00  0.00    +0.000 A 
ATOM     24  C   UNL     1      -2.978  11.244  17.847  0.00  0.00    +0.000 A 
ATOM     25  C   UNL     1      -2.128  11.921  18.720  0.00  0.00    +0.000 A 
ATOM     26  C   UNL     1      -0.839  11.434  18.969  0.00  0.00    +0.000 A 
BRANCH  24  27
ATOM     27  O   UNL     1      -4.264  11.615  17.562  0.00  0.00    +0.000 OA
ATOM     28  C   UNL     1      -5.015  12.053  18.692  0.00  0.00    +0.000 C 
ENDBRANCH  24  27
ENDBRANCH  19  21
ENDBRANCH  16  19
ENDBRANCH   1  16
TORSDOF 8
ENDMDL
MODEL 7
REMARK VINA RESULT:      -7.9      0.671      1.126
REMARK  Name = 
REMARK  11 active torsions:
REMARK  status: ('A' for Active; 'I' for Inactive)
REMARK    1  A    between atoms: C_1  and  C_2
REMARK    2  A    between atoms: C_2  and  N_3
REMARK    3  A    between atoms: N_3  and  C_4
REMARK    4  A    between atoms: N_3  and  C_19
REMARK    5  A    between atoms: C_4  and  C_5
REMARK    6  A    between atoms: C_6  and  C_7
REMARK    7  A    between atoms: C_6  and  C_13
REMARK    8  A    between atoms: C_19  and  C_20
REMARK    9  A    between atoms: C_19  and  C_21
REMARK   10  A    between atoms: C_24  and  O_25
REMARK   11  A    between atoms: O_25  and  C_26
REMARK                            x       y       z     vdW  Elec       q    Type
REMARK                         _______ _______ _______ _____ _____    ______ ____
ROOT
ATOM      1  C   UNL     1       5.056   7.197  17.586  0.00  0.00    +0.000 C 
ENDROOT
BRANCH   1   2
ATOM      2  C   UNL     1       4.014   6.181  17.973  0.00  0.00    +0.000 C 
ATOM      3  C   UNL     1       2.842   6.307  18.637  0.00  0.00    +0.000 C 
BRANCH   3   4
ATOM      4  C   UNL     1       2.276   7.673  18.769  0.00  0.00    +0.000 A 
ATOM      5  C   UNL     1       1.764   8.070  20.017  0.00  0.00    +0.000 A 
ATOM      6  C   UNL     1       1.177   9.325  20.188  0.00  0.00    +0.000 A 
ATOM      7  C   UNL     1       1.074  10.192  19.105  0.00  0.00    +0.000 A 
ATOM      8  C   UNL     1       1.572   9.815  17.858  0.00  0.00    +0.000 A 
ATOM      9  C   UNL     1       2.182   8.561  17.693  0.00  0.00    +0.000 A 
ENDBRANCH   3   4
BRANCH   3  10
ATOM     10  C   UNL     1       2.143   5.032  19.033  0.00  0.00    +0.000 A 
ATOM     11  C   UNL     1       1.802   4.770  20.378  0.00  0.00    +0.000 A 
ATOM     12  C   UNL     1       1.198   3.573  20.772  0.00  0.00    +0.000 A 
ATOM     13  C   UNL     1       0.874   2.621  19.818  0.00  0.00    +0.000 A 
ATOM     14  C   UNL     1       1.140   2.876  18.475  0.00  0.00    +0.000 A 
ATOM     15  C   UNL     1       1.763   4.072  18.085  0.00  0.00    +0.000 A 
ENDBRANCH   3  10
ENDBRANCH   1   2
BRANCH   1  16
ATOM     16  N   UNL     1       6.367   6.555  17.576  0.00  0.00    +0.000 NA
BRANCH  16  18
ATOM     17  C   UNL     1       7.884   8.564  17.540  0.00  0.00    +0.000 C 
ATOM     18  C   UNL     1       7.491   7.251  18.203  0.00  0.00    +0.000 C 
ENDBRANCH  16  18
BRANCH  16  19
ATOM     19  C   UNL     1       6.550   5.127  17.303  0.00  0.00    +0.000 C 
ATOM     20  C   UNL     1       7.838   4.489  17.843  0.00  0.00    +0.000 C 
BRANCH  19  21
ATOM     21  C   UNL     1       6.322   4.764  15.839  0.00  0.00    +0.000 A 
ATOM     22  C   UNL     1       7.339   5.021  14.901  0.00  0.00    +0.000 A 
ATOM     23  C   UNL     1       7.206   4.608  13.573  0.00  0.00    +0.000 A 
ATOM     24  C   UNL     1       6.068   3.918  13.163  0.00  0.00    +0.000 A 
ATOM     25  C   UNL     1       5.027   3.709  14.067  0.00  0.00    +0.000 A 
ATOM     26  C   UNL     1       5.152   4.131  15.397  0.00  0.00    +0.000 A 
BRANCH  24  27
ATOM     27  O   UNL     1       6.062   3.516  11.856  0.00  0.00    +0.000 OA
ATOM     28  C   UNL     1       7.118   2.625  11.509  0.00  0.00    +0.000 C 
ENDBRANCH  24  27
ENDBRANCH  19  21
ENDBRANCH  16  19
ENDBRANCH   1  16
TORSDOF 8
ENDMDL
MODEL 8
REMARK VINA RESULT:      -7.9      1.126      3.973
REMARK  Name = 
REMARK  11 active torsions:
REMARK  status: ('A' for Active; 'I' for Inactive)
REMARK    1  A    between atoms: C_1  and  C_2
REMARK    2  A    between atoms: C_2  and  N_3
REMARK    3  A    between atoms: N_3  and  C_4
REMARK    4  A    between atoms: N_3  and  C_19
REMARK    5  A    between atoms: C_4  and  C_5
REMARK    6  A    between atoms: C_6  and  C_7
REMARK    7  A    between atoms: C_6  and  C_13
REMARK    8  A    between atoms: C_19  and  C_20
REMARK    9  A    between atoms: C_19  and  C_21
REMARK   10  A    between atoms: C_24  and  O_25
REMARK   11  A    between atoms: O_25  and  C_26
REMARK                            x       y       z     vdW  Elec       q    Type
REMARK                         _______ _______ _______ _____ _____    ______ ____
ROOT
ATOM      1  C   UNL     1       4.928   5.002  18.370  0.00  0.00    +0.000 C 
ENDROOT
BRANCH   1   2
ATOM      2  C   UNL     1       4.036   6.151  18.762  0.00  0.00    +0.000 C 
ATOM      3  C   UNL     1       2.748   6.184  19.175  0.00  0.00    +0.000 C 
BRANCH   3   4
ATOM      4  C   UNL     1       2.144   4.908  19.635  0.00  0.00    +0.000 A 
ATOM      5  C   UNL     1       2.323   4.525  20.976  0.00  0.00    +0.000 A 
ATOM      6  C   UNL     1       1.818   3.314  21.452  0.00  0.00    +0.000 A 
ATOM      7  C   UNL     1       1.146   2.459  20.585  0.00  0.00    +0.000 A 
ATOM      8  C   UNL     1       0.962   2.819  19.251  0.00  0.00    +0.000 A 
ATOM      9  C   UNL     1       1.451   4.048  18.778  0.00  0.00    +0.000 A 
ENDBRANCH   3   4
BRANCH   3  10
ATOM     10  C   UNL     1       2.103   7.543  19.284  0.00  0.00    +0.000 A 
ATOM     11  C   UNL     1       1.957   8.378  18.154  0.00  0.00    +0.000 A 
ATOM     12  C   UNL     1       1.407   9.659  18.244  0.00  0.00    +0.000 A 
ATOM     13  C   UNL     1       0.942  10.123  19.466  0.00  0.00    +0.000 A 
ATOM     14  C   UNL     1       1.013   9.299  20.586  0.00  0.00    +0.000 A 
ATOM     15  C   UNL     1       1.583   8.019  20.495  0.00  0.00    +0.000 A 
ENDBRANCH   3  10
ENDBRANCH   1   2
BRANCH   1  16
ATOM     16  N   UNL     1       6.098   5.526  17.672  0.00  0.00    +0.000 NA
BRANCH  16  18
ATOM     17  C   UNL     1       8.069   5.795  19.215  0.00  0.00    +0.000 C 
ATOM     18  C   UNL     1       7.421   5.039  18.063  0.00  0.00    +0.000 C 
ENDBRANCH  16  18
BRANCH  16  19
ATOM     19  C   UNL     1       6.010   6.225  16.387  0.00  0.00    +0.000 C 
ATOM     20  C   UNL     1       4.759   7.087  16.164  0.00  0.00    +0.000 C 
BRANCH  19  21
ATOM     21  C   UNL     1       6.278   5.314  15.192  0.00  0.00    +0.000 A 
ATOM     22  C   UNL     1       5.328   4.334  14.849  0.00  0.00    +0.000 A 
ATOM     23  C   UNL     1       5.490   3.554  13.702  0.00  0.00    +0.000 A 
ATOM     24  C   UNL     1       6.590   3.750  12.870  0.00  0.00    +0.000 A 
ATOM     25  C   UNL     1       7.568   4.677  13.228  0.00  0.00    +0.000 A 
ATOM     26  C   UNL     1       7.415   5.453  14.384  0.00  0.00    +0.000 A 
BRANCH  24  27
ATOM     27  O   UNL     1       6.626   2.969  11.747  0.00  0.00    +0.000 OA
ATOM     28  C   UNL     1       5.419   2.258  11.485  0.00  0.00    +0.000 C 
ENDBRANCH  24  27
ENDBRANCH  19  21
ENDBRANCH  16  19
ENDBRANCH   1  16
TORSDOF 8
ENDMDL
MODEL 9
REMARK VINA RESULT:      -7.9      3.823      8.233
REMARK  Name = 
REMARK  11 active torsions:
REMARK  status: ('A' for Active; 'I' for Inactive)
REMARK    1  A    between atoms: C_1  and  C_2
REMARK    2  A    between atoms: C_2  and  N_3
REMARK    3  A    between atoms: N_3  and  C_4
REMARK    4  A    between atoms: N_3  and  C_19
REMARK    5  A    between atoms: C_4  and  C_5
REMARK    6  A    between atoms: C_6  and  C_7
REMARK    7  A    between atoms: C_6  and  C_13
REMARK    8  A    between atoms: C_19  and  C_20
REMARK    9  A    between atoms: C_19  and  C_21
REMARK   10  A    between atoms: C_24  and  O_25
REMARK   11  A    between atoms: O_25  and  C_26
REMARK                            x       y       z     vdW  Elec       q    Type
REMARK                         _______ _______ _______ _____ _____    ______ ____
ROOT
ATOM      1  C   UNL     1       1.223   7.760  20.438  0.00  0.00    +0.000 C 
ENDROOT
BRANCH   1   2
ATOM      2  C   UNL     1       2.354   7.361  19.526  0.00  0.00    +0.000 C 
ATOM      3  C   UNL     1       2.962   6.170  19.321  0.00  0.00    +0.000 C 
BRANCH   3   4
ATOM      4  C   UNL     1       2.262   4.953  19.805  0.00  0.00    +0.000 A 
ATOM      5  C   UNL     1       2.469   4.543  21.134  0.00  0.00    +0.000 A 
ATOM      6  C   UNL     1       1.874   3.381  21.629  0.00  0.00    +0.000 A 
ATOM      7  C   UNL     1       1.082   2.601  20.794  0.00  0.00    +0.000 A 
ATOM      8  C   UNL     1       0.868   2.989  19.472  0.00  0.00    +0.000 A 
ATOM      9  C   UNL     1       1.448   4.170  18.980  0.00  0.00    +0.000 A 
ENDBRANCH   3   4
BRANCH   3  10
ATOM     10  C   UNL     1       4.210   6.179  18.476  0.00  0.00    +0.000 A 
ATOM     11  C   UNL     1       5.408   5.585  18.931  0.00  0.00    +0.000 A 
ATOM     12  C   UNL     1       6.588   5.626  18.183  0.00  0.00    +0.000 A 
ATOM     13  C   UNL     1       6.588   6.223  16.932  0.00  0.00    +0.000 A 
ATOM     14  C   UNL     1       5.406   6.762  16.428  0.00  0.00    +0.000 A 
ATOM     15  C   UNL     1       4.228   6.735  17.189  0.00  0.00    +0.000 A 
ENDBRANCH   3  10
ENDBRANCH   1   2
BRANCH   1  16
ATOM     16  N   UNL     1       0.905   9.167  20.213  0.00  0.00    +0.000 NA
BRANCH  16  18
ATOM     17  C   UNL     1       0.187   9.749  22.555  0.00  0.00    +0.000 C 
ATOM     18  C   UNL     1       1.027  10.099  21.334  0.00  0.00    +0.000 C 
ENDBRANCH  16  18
BRANCH  16  19
ATOM     19  C   UNL     1       0.820   9.758  18.875  0.00  0.00    +0.000 C 
ATOM     20  C   UNL     1       1.838  10.861  18.551  0.00  0.00    +0.000 C 
BRANCH  19  21
ATOM     21  C   UNL     1      -0.596  10.181  18.497  0.00  0.00    +0.000 A 
ATOM     22  C   UNL     1      -1.230  11.197  19.237  0.00  0.00    +0.000 A 
ATOM     23  C   UNL     1      -2.484  11.681  18.855  0.00  0.00    +0.000 A 
ATOM     24  C   UNL     1      -3.116  11.175  17.722  0.00  0.00    +0.000 A 
ATOM     25  C   UNL     1      -2.526  10.129  17.014  0.00  0.00    +0.000 A 
ATOM     26  C   UNL     1      -1.275   9.633  17.400  0.00  0.00    +0.000 A 
BRANCH  24  27
ATOM     27  O   UNL     1      -4.316  11.754  17.409  0.00  0.00    +0.000 OA
ATOM     28  C   UNL     1      -5.448  11.117  17.994  0.00  0.00    +0.000 C 
ENDBRANCH  24  27
ENDBRANCH  19  21
ENDBRANCH  16  19
ENDBRANCH   1  16
TORSDOF 8
ENDMDL
