MODEL 1
REMARK VINA RESULT:      -8.3      0.000      0.000
REMARK  Name = 
REMARK  11 active torsions:
REMARK  status: ('A' for Active; 'I' for Inactive)
REMARK    1  A    between atoms: C_1  and  O_2
REMARK    2  A    between atoms: O_2  and  C_3
REMARK    3  A    between atoms: C_3  and  C_4
REMARK    4  A    between atoms: C_4  and  N_5
REMARK    5  A    between atoms: C_7  and  N_8
REMARK    6  A    between atoms: N_11  and  C_12
REMARK    7  A    between atoms: C_13  and  C_14
REMARK    8  A    between atoms: C_15  and  C_16
REMARK    9  A    between atoms: N_19  and  C_20
REMARK   10  A    between atoms: N_23  and  C_24
REMARK   11  A    between atoms: C_30  and  C_31
REMARK                            x       y       z     vdW  Elec       q    Type
REMARK                         _______ _______ _______ _____ _____    ______ ____
ROOT
ATOM      1  N   UNL     1       1.512   8.099  19.632  0.00  0.00    +0.000 N 
ATOM      2  C   UNL     1       1.425   9.356  19.113  0.00  0.00    +0.000 C 
ATOM      3  O   UNL     1       2.087   9.808  18.198  0.00  0.00    +0.000 OA
ATOM      4  N   UNL     1       0.504  10.184  19.808  0.00  0.00    +0.000 N 
ATOM      5  H   UNL     1       0.928   7.788  20.401  0.00  0.00    +0.000 HD
ATOM      6  H   UNL     1       0.166   9.914  20.721  0.00  0.00    +0.000 HD
ENDROOT
BRANCH   4   7
ATOM      7  C   UNL     1       0.306  11.516  19.403  0.00  0.00    +0.000 A 
ATOM      8  C   UNL     1       1.092  12.611  19.739  0.00  0.00    +0.000 A 
ATOM      9  C   UNL     1       2.279  12.665  20.628  0.00  0.00    +0.000 C 
ATOM     10  C   UNL     1       0.555  13.680  18.959  0.00  0.00    +0.000 A 
ATOM     11  N   UNL     1      -0.429  13.267  18.162  0.00  0.00    +0.000 NA
ATOM     12  N   UNL     1      -0.652  11.982  18.503  0.00  0.00    +0.000 N 
BRANCH  10  13
ATOM     13  C   UNL     1       1.013  15.072  18.919  0.00  0.00    +0.000 A 
ATOM     14  C   UNL     1       2.242  15.501  18.363  0.00  0.00    +0.000 A 
ATOM     15  N   UNL     1       2.434  16.818  18.491  0.00  0.00    +0.000 NA
ATOM     16  N   UNL     1       1.331  17.236  19.133  0.00  0.00    +0.000 N 
ATOM     17  C   UNL     1       1.202  18.613  19.545  0.00  0.00    +0.000 C 
ATOM     18  C   UNL     1       0.433  16.233  19.381  0.00  0.00    +0.000 A 
ENDBRANCH  10  13
BRANCH  12  19
ATOM     19  C   UNL     1      -1.788  11.305  17.989  0.00  0.00    +0.000 A 
ATOM     20  C   UNL     1      -3.063  11.661  18.461  0.00  0.00    +0.000 A 
ATOM     21  C   UNL     1      -4.193  11.003  17.981  0.00  0.00    +0.000 A 
ATOM     22  C   UNL     1      -4.059   9.971  17.057  0.00  0.00    +0.000 A 
ATOM     23  C   UNL     1      -2.793   9.588  16.611  0.00  0.00    +0.000 A 
ATOM     24  C   UNL     1      -1.658  10.255  17.072  0.00  0.00    +0.000 A 
ENDBRANCH  12  19
ENDBRANCH   4   7
BRANCH   1  27
ATOM     25  N   UNL     1       4.053   6.633  17.343  0.00  0.00    +0.000 NA
ATOM     26  C   UNL     1       3.348   7.778  17.939  0.00  0.00    +0.000 C 
ATOM     27  C   UNL     1       2.543   7.195  19.108  0.00  0.00    +0.000 C 
ATOM     28  C   UNL     1       2.046   5.842  18.543  0.00  0.00    +0.000 C 
ATOM     29  C   UNL     1       3.088   5.517  17.437  0.00  0.00    +0.000 C 
BRANCH  28  30
ATOM     30  C   UNL     1       1.867   4.695  19.532  0.00  0.00    +0.000 A 
ATOM     31  C   UNL     1       1.134   3.540  19.220  0.00  0.00    +0.000 A 
ATOM     32  C   UNL     1       0.938   2.525  20.157  0.00  0.00    +0.000 A 
ATOM     33  C   UNL     1       1.490   2.627  21.427  0.00  0.00    +0.000 A 
ATOM     34  C   UNL     1       2.249   3.747  21.756  0.00  0.00    +0.000 A 
ATOM     35  C   UNL     1       2.440   4.770  20.819  0.00  0.00    +0.000 A 
ENDBRANCH  28  30
BRANCH  25  36
ATOM     36  C   UNL     1       5.318   6.351  18.060  0.00  0.00    +0.000 C 
BRANCH  36  37
ATOM     37  C   UNL     1       5.477   4.882  18.494  0.00  0.00    +0.000 C 
BRANCH  37  39
ATOM     38  C   UNL     1       7.276   4.584  17.006  0.00  0.00    +0.000 C 
ATOM     39  O   UNL     1       6.848   4.496  18.362  0.00  0.00    +0.000 OA
ENDBRANCH  37  39
ENDBRANCH  36  37
ENDBRANCH  25  36
ENDBRANCH   1  27
TORSDOF 8
ENDMDL
MODEL 2
REMARK VINA RESULT:      -8.3      0.434      1.202
REMARK  Name = 
REMARK  11 active torsions:
REMARK  status: ('A' for Active; 'I' for Inactive)
REMARK    1  A    between atoms: C_1  and  O_2
REMARK    2  A    between atoms: O_2  and  C_3
REMARK    3  A    between atoms: C_3  and  C_4
REMARK    4  A    between atoms: C_4  and  N_5
REMARK    5  A    between atoms: C_7  and  N_8
REMARK    6  A    between atoms: N_11  and  C_12
REMARK    7  A    between atoms: C_13  and  C_14
REMARK    8  A    between atoms: C_15  and  C_16
REMARK    9  A    between atoms: N_19  and  C_20
REMARK   10  A    between atoms: N_23  and  C_24
REMARK   11  A    between atoms: C_30  and  C_31
REMARK                            x       y       z     vdW  Elec       q    Type
REMARK                         _______ _______ _______ _____ _____    ______ ____
ROOT
ATOM      1  N   UNL     1       1.484   8.122  19.683  0.00  0.00    +0.000 N 
ATOM      2  C   UNL     1       1.387   9.376  19.158  0.00  0.00    +0.000 C 
ATOM      3  O   UNL     1       2.038   9.826  18.236  0.00  0.00    +0.000 OA
ATOM      4  N   UNL     1       0.469  10.203  19.859  0.00  0.00    +0.000 N 
ATOM      5  H   UNL     1       0.909   7.812  20.458  0.00  0.00    +0.000 HD
ATOM      6  H   UNL     1       0.141   9.936  20.776  0.00  0.00    +0.000 HD
ENDROOT
BRANCH   4   7
ATOM      7  C   UNL     1       0.261  11.532  19.450  0.00  0.00    +0.000 A 
ATOM      8  C   UNL     1       1.041  12.633  19.779  0.00  0.00    +0.000 A 
ATOM      9  C   UNL     1       2.231  12.698  20.665  0.00  0.00    +0.000 C 
ATOM     10  C   UNL     1       0.496  13.697  18.997  0.00  0.00    +0.000 A 
ATOM     11  N   UNL     1      -0.488  13.274  18.204  0.00  0.00    +0.000 NA
ATOM     12  N   UNL     1      -0.701  11.989  18.551  0.00  0.00    +0.000 N 
BRANCH  10  13
ATOM     13  C   UNL     1       0.945  15.091  18.950  0.00  0.00    +0.000 A 
ATOM     14  C   UNL     1       2.155  15.530  18.362  0.00  0.00    +0.000 A 
ATOM     15  N   UNL     1       2.344  16.847  18.491  0.00  0.00    +0.000 NA
ATOM     16  N   UNL     1       1.257  17.255  19.166  0.00  0.00    +0.000 N 
ATOM     17  C   UNL     1       1.133  18.630  19.588  0.00  0.00    +0.000 C 
ATOM     18  C   UNL     1       0.372  16.246  19.435  0.00  0.00    +0.000 A 
ENDBRANCH  10  13
BRANCH  12  19
ATOM     19  C   UNL     1      -1.834  11.303  18.042  0.00  0.00    +0.000 A 
ATOM     20  C   UNL     1      -1.646  10.318  17.057  0.00  0.00    +0.000 A 
ATOM     21  C   UNL     1      -2.743   9.638  16.533  0.00  0.00    +0.000 A 
ATOM     22  C   UNL     1      -4.029   9.953  16.960  0.00  0.00    +0.000 A 
ATOM     23  C   UNL     1      -4.225  10.955  17.913  0.00  0.00    +0.000 A 
ATOM     24  C   UNL     1      -3.131  11.627  18.457  0.00  0.00    +0.000 A 
ENDBRANCH  12  19
ENDBRANCH   4   7
BRANCH   1  27
ATOM     25  N   UNL     1       3.998   6.646  17.370  0.00  0.00    +0.000 NA
ATOM     26  C   UNL     1       3.293   7.794  17.962  0.00  0.00    +0.000 C 
ATOM     27  C   UNL     1       2.514   7.219  19.153  0.00  0.00    +0.000 C 
ATOM     28  C   UNL     1       2.019   5.854  18.614  0.00  0.00    +0.000 C 
ATOM     29  C   UNL     1       3.044   5.523  17.495  0.00  0.00    +0.000 C 
BRANCH  28  30
ATOM     30  C   UNL     1       1.866   4.719  19.622  0.00  0.00    +0.000 A 
ATOM     31  C   UNL     1       2.387   4.794  20.922  0.00  0.00    +0.000 A 
ATOM     32  C   UNL     1       2.281   3.724  21.813  0.00  0.00    +0.000 A 
ATOM     33  C   UNL     1       1.631   2.558  21.433  0.00  0.00    +0.000 A 
ATOM     34  C   UNL     1       1.077   2.465  20.159  0.00  0.00    +0.000 A 
ATOM     35  C   UNL     1       1.189   3.536  19.261  0.00  0.00    +0.000 A 
ENDBRANCH  28  30
BRANCH  25  36
ATOM     36  C   UNL     1       5.277   6.384  18.068  0.00  0.00    +0.000 C 
BRANCH  36  37
ATOM     37  C   UNL     1       5.510   4.902  18.414  0.00  0.00    +0.000 C 
BRANCH  37  39
ATOM     38  C   UNL     1       7.654   5.626  19.061  0.00  0.00    +0.000 C 
ATOM     39  O   UNL     1       6.541   4.803  19.399  0.00  0.00    +0.000 OA
ENDBRANCH  37  39
ENDBRANCH  36  37
ENDBRANCH  25  36
ENDBRANCH   1  27
TORSDOF 8
ENDMDL
MODEL 3
REMARK VINA RESULT:      -8.1      2.273      5.463
REMARK  Name = 
REMARK  11 active torsions:
REMARK  status: ('A' for Active; 'I' for Inactive)
REMARK    1  A    between atoms: C_1  and  O_2
REMARK    2  A    between atoms: O_2  and  C_3
REMARK    3  A    between atoms: C_3  and  C_4
REMARK    4  A    between atoms: C_4  and  N_5
REMARK    5  A    between atoms: C_7  and  N_8
REMARK    6  A    between atoms: N_11  and  C_12
REMARK    7  A    between atoms: C_13  and  C_14
REMARK    8  A    between atoms: C_15  and  C_16
REMARK    9  A    between atoms: N_19  and  C_20
REMARK   10  A    between atoms: N_23  and  C_24
REMARK   11  A    between atoms: C_30  and  C_31
REMARK                            x       y       z     vdW  Elec       q    Type
REMARK                         _______ _______ _______ _____ _____    ______ ____
ROOT
ATOM      1  N   UNL     1       2.350   8.215  17.911  0.00  0.00    +0.000 N 
ATOM      2  C   UNL     1       1.387   8.955  18.530  0.00  0.00    +0.000 C 
ATOM      3  O   UNL     1       0.761   8.642  19.524  0.00  0.00    +0.000 OA
ATOM      4  N   UNL     1       1.087  10.163  17.845  0.00  0.00    +0.000 N 
ATOM      5  H   UNL     1       2.832   8.538  17.080  0.00  0.00    +0.000 HD
ATOM      6  H   UNL     1       1.390  10.295  16.891  0.00  0.00    +0.000 HD
ENDROOT
BRANCH   4   7
ATOM      7  C   UNL     1       0.105  11.035  18.347  0.00  0.00    +0.000 A 
ATOM      8  C   UNL     1      -1.270  10.844  18.314  0.00  0.00    +0.000 A 
ATOM      9  C   UNL     1      -2.039   9.727  17.710  0.00  0.00    +0.000 C 
ATOM     10  C   UNL     1      -1.794  11.931  19.078  0.00  0.00    +0.000 A 
ATOM     11  N   UNL     1      -0.826  12.685  19.595  0.00  0.00    +0.000 NA
ATOM     12  N   UNL     1       0.320  12.208  19.070  0.00  0.00    +0.000 N 
BRANCH  10  13
ATOM     13  C   UNL     1      -3.201  12.217  19.374  0.00  0.00    +0.000 A 
ATOM     14  C   UNL     1      -3.665  12.851  20.550  0.00  0.00    +0.000 A 
ATOM     15  N   UNL     1      -4.998  12.957  20.588  0.00  0.00    +0.000 NA
ATOM     16  N   UNL     1      -5.391  12.386  19.438  0.00  0.00    +0.000 N 
ATOM     17  C   UNL     1      -6.795  12.218  19.148  0.00  0.00    +0.000 C 
ATOM     18  C   UNL     1      -4.350  11.958  18.659  0.00  0.00    +0.000 A 
ENDBRANCH  10  13
BRANCH  12  19
ATOM     19  C   UNL     1       1.530  12.928  19.250  0.00  0.00    +0.000 A 
ATOM     20  C   UNL     1       1.981  13.182  20.557  0.00  0.00    +0.000 A 
ATOM     21  C   UNL     1       3.159  13.896  20.761  0.00  0.00    +0.000 A 
ATOM     22  C   UNL     1       3.876  14.386  19.673  0.00  0.00    +0.000 A 
ATOM     23  C   UNL     1       3.414  14.168  18.373  0.00  0.00    +0.000 A 
ATOM     24  C   UNL     1       2.246  13.436  18.160  0.00  0.00    +0.000 A 
ENDBRANCH  12  19
ENDBRANCH   4   7
BRANCH   1  27
ATOM     25  N   UNL     1       2.922   5.432  20.313  0.00  0.00    +0.000 NA
ATOM     26  C   UNL     1       2.248   6.671  19.898  0.00  0.00    +0.000 C 
ATOM     27  C   UNL     1       2.639   6.871  18.427  0.00  0.00    +0.000 C 
ATOM     28  C   UNL     1       4.124   6.432  18.404  0.00  0.00    +0.000 C 
ATOM     29  C   UNL     1       4.228   5.473  19.621  0.00  0.00    +0.000 C 
BRANCH  28  30
ATOM     30  C   UNL     1       4.645   5.801  17.116  0.00  0.00    +0.000 A 
ATOM     31  C   UNL     1       5.090   6.570  16.030  0.00  0.00    +0.000 A 
ATOM     32  C   UNL     1       5.515   5.974  14.841  0.00  0.00    +0.000 A 
ATOM     33  C   UNL     1       5.528   4.591  14.716  0.00  0.00    +0.000 A 
ATOM     34  C   UNL     1       5.122   3.802  15.788  0.00  0.00    +0.000 A 
ATOM     35  C   UNL     1       4.688   4.398  16.979  0.00  0.00    +0.000 A 
ENDBRANCH  28  30
BRANCH  25  36
ATOM     36  C   UNL     1       2.124   4.239  19.948  0.00  0.00    +0.000 C 
BRANCH  36  37
ATOM     37  C   UNL     1       2.899   2.912  20.049  0.00  0.00    +0.000 C 
BRANCH  37  39
ATOM     38  C   UNL     1       1.127   2.416  18.582  0.00  0.00    +0.000 C 
ATOM     39  O   UNL     1       2.396   1.996  19.073  0.00  0.00    +0.000 OA
ENDBRANCH  37  39
ENDBRANCH  36  37
ENDBRANCH  25  36
ENDBRANCH   1  27
TORSDOF 8
ENDMDL
MODEL 4
REMARK VINA RESULT:      -8.1      0.895      1.003
REMARK  Name = 
REMARK  11 active torsions:
REMARK  status: ('A' for Active; 'I' for Inactive)
REMARK    1  A    between atoms: C_1  and  O_2
REMARK    2  A    between atoms: O_2  and  C_3
REMARK    3  A    between atoms: C_3  and  C_4
REMARK    4  A    between atoms: C_4  and  N_5
REMARK    5  A    between atoms: C_7  and  N_8
REMARK    6  A    between atoms: N_11  and  C_12
REMARK    7  A    between atoms: C_13  and  C_14
REMARK    8  A    between atoms: C_15  and  C_16
REMARK    9  A    between atoms: N_19  and  C_20
REMARK   10  A    between atoms: N_23  and  C_24
REMARK   11  A    between atoms: C_30  and  C_31
REMARK                            x       y       z     vdW  Elec       q    Type
REMARK                         _______ _______ _______ _____ _____    ______ ____
ROOT
ATOM      1  N   UNL     1       1.675   8.005  19.460  0.00  0.00    +0.000 N 
ATOM      2  C   UNL     1       1.555   9.282  19.003  0.00  0.00    +0.000 C 
ATOM      3  O   UNL     1       2.219   9.803  18.128  0.00  0.00    +0.000 OA
ATOM      4  N   UNL     1       0.590  10.042  19.718  0.00  0.00    +0.000 N 
ATOM      5  H   UNL     1       1.087   7.634  20.198  0.00  0.00    +0.000 HD
ATOM      6  H   UNL     1       0.243   9.713  20.608  0.00  0.00    +0.000 HD
ENDROOT
BRANCH   4   7
ATOM      7  C   UNL     1       0.352  11.384  19.376  0.00  0.00    +0.000 A 
ATOM      8  C   UNL     1       1.115  12.483  19.751  0.00  0.00    +0.000 A 
ATOM      9  C   UNL     1       2.314  12.527  20.626  0.00  0.00    +0.000 C 
ATOM     10  C   UNL     1       0.541  13.573  19.028  0.00  0.00    +0.000 A 
ATOM     11  N   UNL     1      -0.443  13.170  18.225  0.00  0.00    +0.000 NA
ATOM     12  N   UNL     1      -0.629  11.866  18.511  0.00  0.00    +0.000 N 
BRANCH  10  13
ATOM     13  C   UNL     1       0.964  14.976  19.045  0.00  0.00    +0.000 A 
ATOM     14  C   UNL     1       2.166  15.463  18.481  0.00  0.00    +0.000 A 
ATOM     15  N   UNL     1       2.329  16.777  18.669  0.00  0.00    +0.000 NA
ATOM     16  N   UNL     1       1.233  17.134  19.357  0.00  0.00    +0.000 N 
ATOM     17  C   UNL     1       1.081  18.486  19.840  0.00  0.00    +0.000 C 
ATOM     18  C   UNL     1       0.367  16.097  19.578  0.00  0.00    +0.000 A 
ENDBRANCH  10  13
BRANCH  12  19
ATOM     19  C   UNL     1      -1.755  11.183  17.981  0.00  0.00    +0.000 A 
ATOM     20  C   UNL     1      -3.037  11.533  18.437  0.00  0.00    +0.000 A 
ATOM     21  C   UNL     1      -4.158  10.870  17.941  0.00  0.00    +0.000 A 
ATOM     22  C   UNL     1      -4.007   9.840  17.018  0.00  0.00    +0.000 A 
ATOM     23  C   UNL     1      -2.733   9.463  16.589  0.00  0.00    +0.000 A 
ATOM     24  C   UNL     1      -1.608  10.135  17.065  0.00  0.00    +0.000 A 
ENDBRANCH  12  19
ENDBRANCH   4   7
BRANCH   1  27
ATOM     25  N   UNL     1       4.201   6.646  17.089  0.00  0.00    +0.000 NA
ATOM     26  C   UNL     1       3.435   7.757  17.676  0.00  0.00    +0.000 C 
ATOM     27  C   UNL     1       2.749   7.164  18.915  0.00  0.00    +0.000 C 
ATOM     28  C   UNL     1       2.338   5.750  18.437  0.00  0.00    +0.000 C 
ATOM     29  C   UNL     1       3.341   5.460  17.286  0.00  0.00    +0.000 C 
BRANCH  28  30
ATOM     30  C   UNL     1       2.312   4.640  19.483  0.00  0.00    +0.000 A 
ATOM     31  C   UNL     1       1.187   4.387  20.282  0.00  0.00    +0.000 A 
ATOM     32  C   UNL     1       1.201   3.400  21.269  0.00  0.00    +0.000 A 
ATOM     33  C   UNL     1       2.334   2.623  21.468  0.00  0.00    +0.000 A 
ATOM     34  C   UNL     1       3.455   2.830  20.669  0.00  0.00    +0.000 A 
ATOM     35  C   UNL     1       3.446   3.825  19.683  0.00  0.00    +0.000 A 
ENDBRANCH  28  30
BRANCH  25  36
ATOM     36  C   UNL     1       5.523   6.504  17.741  0.00  0.00    +0.000 C 
BRANCH  36  37
ATOM     37  C   UNL     1       6.582   5.812  16.863  0.00  0.00    +0.000 C 
BRANCH  37  39
ATOM     38  C   UNL     1       7.673   7.794  17.514  0.00  0.00    +0.000 C 
ATOM     39  O   UNL     1       7.620   6.746  16.551  0.00  0.00    +0.000 OA
ENDBRANCH  37  39
ENDBRANCH  36  37
ENDBRANCH  25  36
ENDBRANCH   1  27
TORSDOF 8
ENDMDL
MODEL 5
REMARK VINA RESULT:      -8.0      2.279      5.436
REMARK  Name = 
REMARK  11 active torsions:
REMARK  status: ('A' for Active; 'I' for Inactive)
REMARK    1  A    between atoms: C_1  and  O_2
REMARK    2  A    between atoms: O_2  and  C_3
REMARK    3  A    between atoms: C_3  and  C_4
REMARK    4  A    between atoms: C_4  and  N_5
REMARK    5  A    between atoms: C_7  and  N_8
REMARK    6  A    between atoms: N_11  and  C_12
REMARK    7  A    between atoms: C_13  and  C_14
REMARK    8  A    between atoms: C_15  and  C_16
REMARK    9  A    between atoms: N_19  and  C_20
REMARK   10  A    between atoms: N_23  and  C_24
REMARK   11  A    between atoms: C_30  and  C_31
REMARK                            x       y       z     vdW  Elec       q    Type
REMARK                         _______ _______ _______ _____ _____    ______ ____
ROOT
ATOM      1  N   UNL     1       2.390   8.261  17.972  0.00  0.00    +0.000 N 
ATOM      2  C   UNL     1       1.405   8.989  18.570  0.00  0.00    +0.000 C 
ATOM      3  O   UNL     1       0.740   8.654  19.530  0.00  0.00    +0.000 OA
ATOM      4  N   UNL     1       1.135  10.215  17.903  0.00  0.00    +0.000 N 
ATOM      5  H   UNL     1       2.905   8.602  17.168  0.00  0.00    +0.000 HD
ATOM      6  H   UNL     1       1.476  10.369  16.965  0.00  0.00    +0.000 HD
ENDROOT
BRANCH   4   7
ATOM      7  C   UNL     1       0.137  11.078  18.388  0.00  0.00    +0.000 A 
ATOM      8  C   UNL     1      -1.236  10.872  18.335  0.00  0.00    +0.000 A 
ATOM      9  C   UNL     1      -1.983   9.744  17.724  0.00  0.00    +0.000 C 
ATOM     10  C   UNL     1      -1.783  11.955  19.087  0.00  0.00    +0.000 A 
ATOM     11  N   UNL     1      -0.831  12.722  19.615  0.00  0.00    +0.000 NA
ATOM     12  N   UNL     1       0.328  12.256  19.108  0.00  0.00    +0.000 N 
BRANCH  10  13
ATOM     13  C   UNL     1      -3.197  12.227  19.360  0.00  0.00    +0.000 A 
ATOM     14  C   UNL     1      -4.259  11.951  18.467  0.00  0.00    +0.000 A 
ATOM     15  N   UNL     1      -5.448  12.333  18.946  0.00  0.00    +0.000 NA
ATOM     16  N   UNL     1      -5.150  12.858  20.145  0.00  0.00    +0.000 N 
ATOM     17  C   UNL     1      -6.178  13.477  20.947  0.00  0.00    +0.000 C 
ATOM     18  C   UNL     1      -3.819  12.788  20.454  0.00  0.00    +0.000 A 
ENDBRANCH  10  13
BRANCH  12  19
ATOM     19  C   UNL     1       1.527  12.989  19.303  0.00  0.00    +0.000 A 
ATOM     20  C   UNL     1       2.222  13.466  18.178  0.00  0.00    +0.000 A 
ATOM     21  C   UNL     1       3.408  14.178  18.342  0.00  0.00    +0.000 A 
ATOM     22  C   UNL     1       3.923  14.393  19.617  0.00  0.00    +0.000 A 
ATOM     23  C   UNL     1       3.256  13.891  20.736  0.00  0.00    +0.000 A 
ATOM     24  C   UNL     1       2.058  13.194  20.582  0.00  0.00    +0.000 A 
ENDBRANCH  12  19
ENDBRANCH   4   7
BRANCH   1  27
ATOM     25  N   UNL     1       2.936   5.434  20.329  0.00  0.00    +0.000 NA
ATOM     26  C   UNL     1       2.285   6.695  19.941  0.00  0.00    +0.000 C 
ATOM     27  C   UNL     1       2.655   6.904  18.466  0.00  0.00    +0.000 C 
ATOM     28  C   UNL     1       4.128   6.429  18.410  0.00  0.00    +0.000 C 
ATOM     29  C   UNL     1       4.230   5.452  19.614  0.00  0.00    +0.000 C 
BRANCH  28  30
ATOM     30  C   UNL     1       4.610   5.803  17.106  0.00  0.00    +0.000 A 
ATOM     31  C   UNL     1       4.635   4.415  16.903  0.00  0.00    +0.000 A 
ATOM     32  C   UNL     1       5.128   3.860  15.721  0.00  0.00    +0.000 A 
ATOM     33  C   UNL     1       5.590   4.680  14.700  0.00  0.00    +0.000 A 
ATOM     34  C   UNL     1       5.549   6.062  14.861  0.00  0.00    +0.000 A 
ATOM     35  C   UNL     1       5.061   6.621  16.049  0.00  0.00    +0.000 A 
ENDBRANCH  28  30
BRANCH  25  36
ATOM     36  C   UNL     1       2.102   4.266  19.964  0.00  0.00    +0.000 C 
BRANCH  36  37
ATOM     37  C   UNL     1       2.897   2.958  19.797  0.00  0.00    +0.000 C 
BRANCH  37  39
ATOM     38  C   UNL     1       0.876   2.362  18.748  0.00  0.00    +0.000 C 
ATOM     39  O   UNL     1       2.285   2.160  18.779  0.00  0.00    +0.000 OA
ENDBRANCH  37  39
ENDBRANCH  36  37
ENDBRANCH  25  36
ENDBRANCH   1  27
TORSDOF 8
ENDMDL
MODEL 6
REMARK VINA RESULT:      -7.9      3.429      8.774
REMARK  Name = 
REMARK  11 active torsions:
REMARK  status: ('A' for Active; 'I' for Inactive)
REMARK    1  A    between atoms: C_1  and  O_2
REMARK    2  A    between atoms: O_2  and  C_3
REMARK    3  A    between atoms: C_3  and  C_4
REMARK    4  A    between atoms: C_4  and  N_5
REMARK    5  A    between atoms: C_7  and  N_8
REMARK    6  A    between atoms: N_11  and  C_12
REMARK    7  A    between atoms: C_13  and  C_14
REMARK    8  A    between atoms: C_15  and  C_16
REMARK    9  A    between atoms: N_19  and  C_20
REMARK   10  A    between atoms: N_23  and  C_24
REMARK   11  A    between atoms: C_30  and  C_31
REMARK                            x       y       z     vdW  Elec       q    Type
REMARK                         _______ _______ _______ _____ _____    ______ ____
ROOT
ATOM      1  N   UNL     1       2.794  13.864  20.297  0.00  0.00    +0.000 N 
ATOM      2  C   UNL     1       1.723  13.371  19.613  0.00  0.00    +0.000 C 
ATOM      3  O   UNL     1       1.413  13.634  18.468  0.00  0.00    +0.000 OA
ATOM      4  N   UNL     1       0.893  12.533  20.406  0.00  0.00    +0.000 N 
ATOM      5  H   UNL     1       2.993  13.603  21.256  0.00  0.00    +0.000 HD
ATOM      6  H   UNL     1       0.983  12.534  21.412  0.00  0.00    +0.000 HD
ENDROOT
BRANCH   4   7
ATOM      7  C   UNL     1      -0.260  11.953  19.851  0.00  0.00    +0.000 A 
ATOM      8  C   UNL     1      -1.514  12.541  19.739  0.00  0.00    +0.000 A 
ATOM      9  C   UNL     1      -1.958  13.877  20.209  0.00  0.00    +0.000 C 
ATOM     10  C   UNL     1      -2.276  11.602  18.980  0.00  0.00    +0.000 A 
ATOM     11  N   UNL     1      -1.539  10.559  18.598  0.00  0.00    +0.000 NA
ATOM     12  N   UNL     1      -0.349  10.717  19.211  0.00  0.00    +0.000 N 
BRANCH  10  13
ATOM     13  C   UNL     1      -3.676  11.720  18.560  0.00  0.00    +0.000 A 
ATOM     14  C   UNL     1      -4.143  11.507  17.242  0.00  0.00    +0.000 A 
ATOM     15  N   UNL     1      -5.458  11.718  17.121  0.00  0.00    +0.000 NA
ATOM     16  N   UNL     1      -5.835  12.072  18.360  0.00  0.00    +0.000 N 
ATOM     17  C   UNL     1      -7.195  12.478  18.622  0.00  0.00    +0.000 C 
ATOM     18  C   UNL     1      -4.810  12.054  19.267  0.00  0.00    +0.000 A 
ENDBRANCH  10  13
BRANCH  12  19
ATOM     19  C   UNL     1       0.600   9.663  19.187  0.00  0.00    +0.000 A 
ATOM     20  C   UNL     1       1.244   9.356  17.976  0.00  0.00    +0.000 A 
ATOM     21  C   UNL     1       2.171   8.318  17.922  0.00  0.00    +0.000 A 
ATOM     22  C   UNL     1       2.438   7.562  19.060  0.00  0.00    +0.000 A 
ATOM     23  C   UNL     1       1.775   7.838  20.257  0.00  0.00    +0.000 A 
ATOM     24  C   UNL     1       0.860   8.889  20.324  0.00  0.00    +0.000 A 
ENDBRANCH  12  19
ENDBRANCH   4   7
BRANCH   1  27
ATOM     25  N   UNL     1       5.686  16.103  19.615  0.00  0.00    +0.000 NA
ATOM     26  C   UNL     1       5.107  14.839  20.094  0.00  0.00    +0.000 C 
ATOM     27  C   UNL     1       3.640  14.869  19.642  0.00  0.00    +0.000 C 
ATOM     28  C   UNL     1       3.243  16.350  19.862  0.00  0.00    +0.000 C 
ATOM     29  C   UNL     1       4.604  17.095  19.791  0.00  0.00    +0.000 C 
BRANCH  28  30
ATOM     30  C   UNL     1       2.203  16.942  18.916  0.00  0.00    +0.000 A 
ATOM     31  C   UNL     1       0.853  17.075  19.272  0.00  0.00    +0.000 A 
ATOM     32  C   UNL     1      -0.093  17.571  18.373  0.00  0.00    +0.000 A 
ATOM     33  C   UNL     1       0.291  17.970  17.100  0.00  0.00    +0.000 A 
ATOM     34  C   UNL     1       1.629  17.878  16.728  0.00  0.00    +0.000 A 
ATOM     35  C   UNL     1       2.579  17.374  17.627  0.00  0.00    +0.000 A 
ENDBRANCH  28  30
BRANCH  25  36
ATOM     36  C   UNL     1       6.128  15.990  18.206  0.00  0.00    +0.000 C 
BRANCH  36  37
ATOM     37  C   UNL     1       6.923  14.708  17.901  0.00  0.00    +0.000 C 
BRANCH  37  39
ATOM     38  C   UNL     1       8.871  16.026  17.812  0.00  0.00    +0.000 C 
ATOM     39  O   UNL     1       8.266  14.862  18.367  0.00  0.00    +0.000 OA
ENDBRANCH  37  39
ENDBRANCH  36  37
ENDBRANCH  25  36
ENDBRANCH   1  27
TORSDOF 8
ENDMDL
MODEL 7
REMARK VINA RESULT:      -7.9      3.362      8.534
REMARK  Name = 
REMARK  11 active torsions:
REMARK  status: ('A' for Active; 'I' for Inactive)
REMARK    1  A    between atoms: C_1  and  O_2
REMARK    2  A    between atoms: O_2  and  C_3
REMARK    3  A    between atoms: C_3  and  C_4
REMARK    4  A    between atoms: C_4  and  N_5
REMARK    5  A    between atoms: C_7  and  N_8
REMARK    6  A    between atoms: N_11  and  C_12
REMARK    7  A    between atoms: C_13  and  C_14
REMARK    8  A    between atoms: C_15  and  C_16
REMARK    9  A    between atoms: N_19  and  C_20
REMARK   10  A    between atoms: N_23  and  C_24
REMARK   11  A    between atoms: C_30  and  C_31
REMARK                            x       y       z     vdW  Elec       q    Type
REMARK                         _______ _______ _______ _____ _____    ______ ____
ROOT
ATOM      1  N   UNL     1       2.835  13.617  20.833  0.00  0.00    +0.000 N 
ATOM      2  C   UNL     1       1.833  13.169  20.026  0.00  0.00    +0.000 C 
ATOM      3  O   UNL     1       1.676  13.437  18.850  0.00  0.00    +0.000 OA
ATOM      4  N   UNL     1       0.874  12.379  20.715  0.00  0.00    +0.000 N 
ATOM      5  H   UNL     1       2.904  13.354  21.809  0.00  0.00    +0.000 HD
ATOM      6  H   UNL     1       0.841  12.384  21.724  0.00  0.00    +0.000 HD
ENDROOT
BRANCH   4   7
ATOM      7  C   UNL     1      -0.231  11.849  20.026  0.00  0.00    +0.000 A 
ATOM      8  C   UNL     1      -1.480  12.440  19.881  0.00  0.00    +0.000 A 
ATOM      9  C   UNL     1      -1.972  13.723  20.443  0.00  0.00    +0.000 C 
ATOM     10  C   UNL     1      -2.176  11.574  18.983  0.00  0.00    +0.000 A 
ATOM     11  N   UNL     1      -1.403  10.576  18.557  0.00  0.00    +0.000 NA
ATOM     12  N   UNL     1      -0.261  10.680  19.267  0.00  0.00    +0.000 N 
BRANCH  10  13
ATOM     13  C   UNL     1      -3.544  11.726  18.478  0.00  0.00    +0.000 A 
ATOM     14  C   UNL     1      -3.930  11.542  17.129  0.00  0.00    +0.000 A 
ATOM     15  N   UNL     1      -5.231  11.780  16.928  0.00  0.00    +0.000 NA
ATOM     16  N   UNL     1      -5.679  12.122  18.147  0.00  0.00    +0.000 N 
ATOM     17  C   UNL     1      -7.045  12.551  18.329  0.00  0.00    +0.000 C 
ATOM     18  C   UNL     1      -4.714  12.071  19.116  0.00  0.00    +0.000 A 
ENDBRANCH  10  13
BRANCH  12  19
ATOM     19  C   UNL     1       0.699   9.636  19.210  0.00  0.00    +0.000 A 
ATOM     20  C   UNL     1       1.345   9.373  17.990  0.00  0.00    +0.000 A 
ATOM     21  C   UNL     1       2.283   8.347  17.904  0.00  0.00    +0.000 A 
ATOM     22  C   UNL     1       2.559   7.560  19.019  0.00  0.00    +0.000 A 
ATOM     23  C   UNL     1       1.895   7.793  20.225  0.00  0.00    +0.000 A 
ATOM     24  C   UNL     1       0.969   8.832  20.323  0.00  0.00    +0.000 A 
ENDBRANCH  12  19
ENDBRANCH   4   7
BRANCH   1  27
ATOM     25  N   UNL     1       5.871  15.746  20.522  0.00  0.00    +0.000 NA
ATOM     26  C   UNL     1       5.185  14.515  20.945  0.00  0.00    +0.000 C 
ATOM     27  C   UNL     1       3.802  14.575  20.282  0.00  0.00    +0.000 C 
ATOM     28  C   UNL     1       3.428  16.073  20.401  0.00  0.00    +0.000 C 
ATOM     29  C   UNL     1       4.810  16.775  20.510  0.00  0.00    +0.000 C 
BRANCH  28  30
ATOM     30  C   UNL     1       2.557  16.665  19.297  0.00  0.00    +0.000 A 
ATOM     31  C   UNL     1       3.014  16.816  17.979  0.00  0.00    +0.000 A 
ATOM     32  C   UNL     1       2.220  17.407  16.995  0.00  0.00    +0.000 A 
ATOM     33  C   UNL     1       0.937  17.843  17.298  0.00  0.00    +0.000 A 
ATOM     34  C   UNL     1       0.445  17.679  18.590  0.00  0.00    +0.000 A 
ATOM     35  C   UNL     1       1.243  17.092  19.580  0.00  0.00    +0.000 A 
ENDBRANCH  28  30
BRANCH  25  36
ATOM     36  C   UNL     1       6.510  15.575  19.196  0.00  0.00    +0.000 C 
BRANCH  36  37
ATOM     37  C   UNL     1       7.620  14.509  19.170  0.00  0.00    +0.000 C 
BRANCH  37  39
ATOM     38  C   UNL     1       8.762  12.995  17.775  0.00  0.00    +0.000 C 
ATOM     39  O   UNL     1       7.757  14.002  17.839  0.00  0.00    +0.000 OA
ENDBRANCH  37  39
ENDBRANCH  36  37
ENDBRANCH  25  36
ENDBRANCH   1  27
TORSDOF 8
ENDMDL
MODEL 8
REMARK VINA RESULT:      -7.8      2.953      9.308
REMARK  Name = 
REMARK  11 active torsions:
REMARK  status: ('A' for Active; 'I' for Inactive)
REMARK    1  A    between atoms: C_1  and  O_2
REMARK    2  A    between atoms: O_2  and  C_3
REMARK    3  A    between atoms: C_3  and  C_4
REMARK    4  A    between atoms: C_4  and  N_5
REMARK    5  A    between atoms: C_7  and  N_8
REMARK    6  A    between atoms: N_11  and  C_12
REMARK    7  A    between atoms: C_13  and  C_14
REMARK    8  A    between atoms: C_15  and  C_16
REMARK    9  A    between atoms: N_19  and  C_20
REMARK   10  A    between atoms: N_23  and  C_24
REMARK   11  A    between atoms: C_30  and  C_31
REMARK                            x       y       z     vdW  Elec       q    Type
REMARK                         _______ _______ _______ _____ _____    ______ ____
ROOT
ATOM      1  N   UNL     1       1.193   9.038  19.425  0.00  0.00    +0.000 N 
ATOM      2  C   UNL     1       1.681   8.112  18.553  0.00  0.00    +0.000 C 
ATOM      3  O   UNL     1       1.217   7.827  17.467  0.00  0.00    +0.000 OA
ATOM      4  N   UNL     1       2.797   7.397  19.066  0.00  0.00    +0.000 N 
ATOM      5  H   UNL     1       1.631   9.225  20.321  0.00  0.00    +0.000 HD
ATOM      6  H   UNL     1       3.010   7.428  20.052  0.00  0.00    +0.000 HD
ENDROOT
BRANCH   4   7
ATOM      7  C   UNL     1       3.411   6.397  18.292  0.00  0.00    +0.000 A 
ATOM      8  C   UNL     1       4.239   6.589  17.194  0.00  0.00    +0.000 A 
ATOM      9  C   UNL     1       4.637   7.861  16.541  0.00  0.00    +0.000 C 
ATOM     10  C   UNL     1       4.709   5.278  16.875  0.00  0.00    +0.000 A 
ATOM     11  N   UNL     1       4.265   4.368  17.741  0.00  0.00    +0.000 NA
ATOM     12  N   UNL     1       3.397   5.025  18.537  0.00  0.00    +0.000 N 
BRANCH  10  13
ATOM     13  C   UNL     1       5.625   4.896  15.796  0.00  0.00    +0.000 A 
ATOM     14  C   UNL     1       7.025   5.096  15.818  0.00  0.00    +0.000 A 
ATOM     15  N   UNL     1       7.622   4.694  14.692  0.00  0.00    +0.000 NA
ATOM     16  N   UNL     1       6.605   4.239  13.943  0.00  0.00    +0.000 N 
ATOM     17  C   UNL     1       6.835   3.795  12.589  0.00  0.00    +0.000 C 
ATOM     18  C   UNL     1       5.392   4.307  14.573  0.00  0.00    +0.000 A 
ENDBRANCH  10  13
BRANCH  12  19
ATOM     19  C   UNL     1       2.580   4.295  19.439  0.00  0.00    +0.000 A 
ATOM     20  C   UNL     1       2.976   4.192  20.784  0.00  0.00    +0.000 A 
ATOM     21  C   UNL     1       2.197   3.472  21.687  0.00  0.00    +0.000 A 
ATOM     22  C   UNL     1       1.043   2.826  21.252  0.00  0.00    +0.000 A 
ATOM     23  C   UNL     1       0.664   2.894  19.910  0.00  0.00    +0.000 A 
ATOM     24  C   UNL     1       1.427   3.630  19.004  0.00  0.00    +0.000 A 
ENDBRANCH  12  19
ENDBRANCH   4   7
BRANCH   1  27
ATOM     25  N   UNL     1      -1.378  10.852  17.439  0.00  0.00    +0.000 NA
ATOM     26  C   UNL     1      -0.310   9.850  17.575  0.00  0.00    +0.000 C 
ATOM     27  C   UNL     1      -0.055   9.732  19.084  0.00  0.00    +0.000 C 
ATOM     28  C   UNL     1      -0.181  11.197  19.570  0.00  0.00    +0.000 C 
ATOM     29  C   UNL     1      -1.081  11.853  18.486  0.00  0.00    +0.000 C 
BRANCH  28  30
ATOM     30  C   UNL     1      -0.711  11.421  20.983  0.00  0.00    +0.000 A 
ATOM     31  C   UNL     1      -0.525  10.486  22.011  0.00  0.00    +0.000 A 
ATOM     32  C   UNL     1      -1.062  10.687  23.285  0.00  0.00    +0.000 A 
ATOM     33  C   UNL     1      -1.780  11.841  23.569  0.00  0.00    +0.000 A 
ATOM     34  C   UNL     1      -1.953  12.802  22.577  0.00  0.00    +0.000 A 
ATOM     35  C   UNL     1      -1.422  12.598  21.296  0.00  0.00    +0.000 A 
ENDBRANCH  28  30
BRANCH  25  36
ATOM     36  C   UNL     1      -2.715  10.236  17.607  0.00  0.00    +0.000 C 
BRANCH  36  37
ATOM     37  C   UNL     1      -3.407   9.872  16.280  0.00  0.00    +0.000 C 
BRANCH  37  39
ATOM     38  C   UNL     1      -3.011  10.047  13.967  0.00  0.00    +0.000 C 
ATOM     39  O   UNL     1      -2.877  10.687  15.232  0.00  0.00    +0.000 OA
ENDBRANCH  37  39
ENDBRANCH  36  37
ENDBRANCH  25  36
ENDBRANCH   1  27
TORSDOF 8
ENDMDL
MODEL 9
REMARK VINA RESULT:      -7.7      3.449      8.823
REMARK  Name = 
REMARK  11 active torsions:
REMARK  status: ('A' for Active; 'I' for Inactive)
REMARK    1  A    between atoms: C_1  and  O_2
REMARK    2  A    between atoms: O_2  and  C_3
REMARK    3  A    between atoms: C_3  and  C_4
REMARK    4  A    between atoms: C_4  and  N_5
REMARK    5  A    between atoms: C_7  and  N_8
REMARK    6  A    between atoms: N_11  and  C_12
REMARK    7  A    between atoms: C_13  and  C_14
REMARK    8  A    between atoms: C_15  and  C_16
REMARK    9  A    between atoms: N_19  and  C_20
REMARK   10  A    between atoms: N_23  and  C_24
REMARK   11  A    between atoms: C_30  and  C_31
REMARK                            x       y       z     vdW  Elec       q    Type
REMARK                         _______ _______ _______ _____ _____    ______ ____
ROOT
ATOM      1  N   UNL     1       2.695  13.597  20.858  0.00  0.00    +0.000 N 
ATOM      2  C   UNL     1       1.699  13.160  20.037  0.00  0.00    +0.000 C 
ATOM      3  O   UNL     1       1.534  13.466  18.873  0.00  0.00    +0.000 OA
ATOM      4  N   UNL     1       0.756  12.329  20.700  0.00  0.00    +0.000 N 
ATOM      5  H   UNL     1       2.771  13.301  21.824  0.00  0.00    +0.000 HD
ATOM      6  H   UNL     1       0.726  12.298  21.709  0.00  0.00    +0.000 HD
ENDROOT
BRANCH   4   7
ATOM      7  C   UNL     1      -0.341  11.803  19.995  0.00  0.00    +0.000 A 
ATOM      8  C   UNL     1      -1.593  12.389  19.853  0.00  0.00    +0.000 A 
ATOM      9  C   UNL     1      -2.097  13.658  20.435  0.00  0.00    +0.000 C 
ATOM     10  C   UNL     1      -2.278  11.535  18.936  0.00  0.00    +0.000 A 
ATOM     11  N   UNL     1      -1.496  10.549  18.498  0.00  0.00    +0.000 NA
ATOM     12  N   UNL     1      -0.358  10.648  19.215  0.00  0.00    +0.000 N 
BRANCH  10  13
ATOM     13  C   UNL     1      -3.644  11.686  18.425  0.00  0.00    +0.000 A 
ATOM     14  C   UNL     1      -4.016  11.554  17.066  0.00  0.00    +0.000 A 
ATOM     15  N   UNL     1      -5.318  11.780  16.864  0.00  0.00    +0.000 NA
ATOM     16  N   UNL     1      -5.782  12.062  18.092  0.00  0.00    +0.000 N 
ATOM     17  C   UNL     1      -7.157  12.461  18.280  0.00  0.00    +0.000 C 
ATOM     18  C   UNL     1      -4.825  11.985  19.067  0.00  0.00    +0.000 A 
ENDBRANCH  10  13
BRANCH  12  19
ATOM     19  C   UNL     1       0.609   9.612  19.146  0.00  0.00    +0.000 A 
ATOM     20  C   UNL     1       0.878   8.856  20.300  0.00  0.00    +0.000 A 
ATOM     21  C   UNL     1       1.832   7.841  20.262  0.00  0.00    +0.000 A 
ATOM     22  C   UNL     1       2.541   7.595  19.090  0.00  0.00    +0.000 A 
ATOM     23  C   UNL     1       2.304   8.366  17.951  0.00  0.00    +0.000 A 
ATOM     24  C   UNL     1       1.337   9.371  17.975  0.00  0.00    +0.000 A 
ENDBRANCH  12  19
ENDBRANCH   4   7
BRANCH   1  27
ATOM     25  N   UNL     1       5.682  15.805  20.626  0.00  0.00    +0.000 NA
ATOM     26  C   UNL     1       5.022  14.548  21.013  0.00  0.00    +0.000 C 
ATOM     27  C   UNL     1       3.643  14.591  20.339  0.00  0.00    +0.000 C 
ATOM     28  C   UNL     1       3.232  16.076  20.490  0.00  0.00    +0.000 C 
ATOM     29  C   UNL     1       4.596  16.808  20.630  0.00  0.00    +0.000 C 
BRANCH  28  30
ATOM     30  C   UNL     1       2.357  16.674  19.393  0.00  0.00    +0.000 A 
ATOM     31  C   UNL     1       2.843  16.934  18.103  0.00  0.00    +0.000 A 
ATOM     32  C   UNL     1       2.040  17.529  17.128  0.00  0.00    +0.000 A 
ATOM     33  C   UNL     1       0.721  17.859  17.411  0.00  0.00    +0.000 A 
ATOM     34  C   UNL     1       0.202  17.584  18.673  0.00  0.00    +0.000 A 
ATOM     35  C   UNL     1       1.008  16.994  19.655  0.00  0.00    +0.000 A 
ENDBRANCH  28  30
BRANCH  25  36
ATOM     36  C   UNL     1       6.336  15.681  19.303  0.00  0.00    +0.000 C 
BRANCH  36  37
ATOM     37  C   UNL     1       6.615  17.030  18.615  0.00  0.00    +0.000 C 
BRANCH  37  39
ATOM     38  C   UNL     1       8.713  15.974  18.762  0.00  0.00    +0.000 C 
ATOM     39  O   UNL     1       8.020  17.157  18.380  0.00  0.00    +0.000 OA
ENDBRANCH  37  39
ENDBRANCH  36  37
ENDBRANCH  25  36
ENDBRANCH   1  27
TORSDOF 8
ENDMDL
