MODEL 1
REMARK VINA RESULT:      -6.8      0.000      0.000
REMARK  Name = 
REMARK  3 active torsions:
REMARK  status: ('A' for Active; 'I' for Inactive)
REMARK    1  A    between atoms: C_1  and  C_2
REMARK    2  A    between atoms: C_6  and  C_7
REMARK    3  A    between atoms: N_18  and  C_19
REMARK                            x       y       z     vdW  Elec       q    Type
REMARK                         _______ _______ _______ _____ _____    ______ ____
ROOT
ATOM      1  C   UNL     1       2.807   7.140  18.802  0.00  0.00    +0.000 C 
ATOM      2  N   UNL     1       2.209   7.174  20.119  0.00  0.00    +0.000 N 
ATOM      3  C   UNL     1       1.457   8.209  20.630  0.00  0.00    +0.000 C 
ATOM      4  O   UNL     1       1.257   8.301  21.833  0.00  0.00    +0.000 OA
ATOM      5  C   UNL     1       1.072   9.211  19.666  0.00  0.00    +0.000 A 
ATOM      6  C   UNL     1       1.644   9.159  18.420  0.00  0.00    +0.000 A 
ATOM      7  S   UNL     1       2.066  10.757  17.945  0.00  0.00    +0.000 S 
ATOM      8  C   UNL     1       1.262  11.402  19.342  0.00  0.00    +0.000 A 
ATOM      9  C   UNL     1       0.371  10.434  19.764  0.00  0.00    +0.000 A 
ATOM     10  C   UNL     1      -1.084  10.761  19.506  0.00  0.00    +0.000 C 
ATOM     11  C   UNL     1      -1.365  12.301  19.562  0.00  0.00    +0.000 C 
ATOM     12  N   UNL     1      -0.290  13.205  19.059  0.00  0.00    +0.000 NA
ATOM     13  C   UNL     1      -0.596  14.598  19.383  0.00  0.00    +0.000 C 
ATOM     14  C   UNL     1       1.031  12.846  19.601  0.00  0.00    +0.000 C 
ATOM     15  N   UNL     1       2.086   8.006  17.871  0.00  0.00    +0.000 N 
ATOM     16  H   UNL     1       2.683   6.638  20.831  0.00  0.00    +0.000 HD
ATOM     17  H   UNL     1       2.557   8.082  16.974  0.00  0.00    +0.000 HD
ENDROOT
BRANCH   1  23
ATOM     18  C   UNL     1       4.733   5.698  16.604  0.00  0.00    +0.000 C 
ATOM     19  C   UNL     1       3.712   5.049  17.460  0.00  0.00    +0.000 A 
ATOM     20  C   UNL     1       3.382   3.651  17.367  0.00  0.00    +0.000 A 
ATOM     21  C   UNL     1       2.394   3.261  18.234  0.00  0.00    +0.000 A 
ATOM     22  S   UNL     1       1.841   4.571  19.183  0.00  0.00    +0.000 S 
ATOM     23  C   UNL     1       2.910   5.685  18.415  0.00  0.00    +0.000 A 
ENDBRANCH   1  23
TORSDOF 1
ENDMDL
MODEL 2
REMARK VINA RESULT:      -6.7      2.318      7.565
REMARK  Name = 
REMARK  3 active torsions:
REMARK  status: ('A' for Active; 'I' for Inactive)
REMARK    1  A    between atoms: C_1  and  C_2
REMARK    2  A    between atoms: C_6  and  C_7
REMARK    3  A    between atoms: N_18  and  C_19
REMARK                            x       y       z     vdW  Elec       q    Type
REMARK                         _______ _______ _______ _____ _____    ______ ____
ROOT
ATOM      1  C   UNL     1       1.493   8.534  20.661  0.00  0.00    +0.000 C 
ATOM      2  N   UNL     1       2.024   8.691  19.324  0.00  0.00    +0.000 N 
ATOM      3  C   UNL     1       2.484   7.670  18.521  0.00  0.00    +0.000 C 
ATOM      4  O   UNL     1       3.193   7.907  17.554  0.00  0.00    +0.000 OA
ATOM      5  C   UNL     1       2.183   6.342  18.999  0.00  0.00    +0.000 A 
ATOM      6  C   UNL     1       1.673   6.213  20.266  0.00  0.00    +0.000 A 
ATOM      7  S   UNL     1       2.449   4.886  21.036  0.00  0.00    +0.000 S 
ATOM      8  C   UNL     1       3.242   4.467  19.550  0.00  0.00    +0.000 A 
ATOM      9  C   UNL     1       2.506   5.046  18.535  0.00  0.00    +0.000 A 
ATOM     10  C   UNL     1       1.707   4.071  17.699  0.00  0.00    +0.000 C 
ATOM     11  C   UNL     1       2.403   2.671  17.592  0.00  0.00    +0.000 C 
ATOM     12  N   UNL     1       3.156   2.196  18.790  0.00  0.00    +0.000 NA
ATOM     13  C   UNL     1       3.933   1.000  18.467  0.00  0.00    +0.000 C 
ATOM     14  C   UNL     1       4.046   3.237  19.331  0.00  0.00    +0.000 C 
ATOM     15  N   UNL     1       0.955   7.191  20.863  0.00  0.00    +0.000 N 
ATOM     16  H   UNL     1       2.460   9.579  19.125  0.00  0.00    +0.000 HD
ATOM     17  H   UNL     1       0.681   7.028  21.827  0.00  0.00    +0.000 HD
ENDROOT
BRANCH   1  23
ATOM     18  C   UNL     1      -0.002   9.519  23.384  0.00  0.00    +0.000 C 
ATOM     19  C   UNL     1      -0.140  10.102  22.029  0.00  0.00    +0.000 A 
ATOM     20  C   UNL     1      -1.047  11.176  21.724  0.00  0.00    +0.000 A 
ATOM     21  C   UNL     1      -1.034  11.549  20.405  0.00  0.00    +0.000 A 
ATOM     22  S   UNL     1       0.075  10.615  19.502  0.00  0.00    +0.000 S 
ATOM     23  C   UNL     1       0.530   9.677  20.875  0.00  0.00    +0.000 A 
ENDBRANCH   1  23
TORSDOF 1
ENDMDL
MODEL 3
REMARK VINA RESULT:      -6.3      1.185      1.488
REMARK  Name = 
REMARK  3 active torsions:
REMARK  status: ('A' for Active; 'I' for Inactive)
REMARK    1  A    between atoms: C_1  and  C_2
REMARK    2  A    between atoms: C_6  and  C_7
REMARK    3  A    between atoms: N_18  and  C_19
REMARK                            x       y       z     vdW  Elec       q    Type
REMARK                         _______ _______ _______ _____ _____    ______ ____
ROOT
ATOM      1  C   UNL     1       3.340   7.251  18.390  0.00  0.00    +0.000 C 
ATOM      2  N   UNL     1       2.627   6.990  19.622  0.00  0.00    +0.000 N 
ATOM      3  C   UNL     1       1.693   7.824  20.198  0.00  0.00    +0.000 C 
ATOM      4  O   UNL     1       1.374   7.689  21.371  0.00  0.00    +0.000 OA
ATOM      5  C   UNL     1       1.259   8.916  19.361  0.00  0.00    +0.000 A 
ATOM      6  C   UNL     1       1.943   9.144  18.194  0.00  0.00    +0.000 A 
ATOM      7  S   UNL     1       2.176  10.839  18.018  0.00  0.00    +0.000 S 
ATOM      8  C   UNL     1       1.167  11.137  19.398  0.00  0.00    +0.000 A 
ATOM      9  C   UNL     1       0.386  10.010  19.566  0.00  0.00    +0.000 A 
ATOM     10  C   UNL     1      -1.070  10.191  19.199  0.00  0.00    +0.000 C 
ATOM     11  C   UNL     1      -1.570  11.653  19.457  0.00  0.00    +0.000 C 
ATOM     12  N   UNL     1      -0.592  12.755  19.221  0.00  0.00    +0.000 NA
ATOM     13  C   UNL     1      -1.119  14.025  19.719  0.00  0.00    +0.000 C 
ATOM     14  C   UNL     1       0.712  12.478  19.847  0.00  0.00    +0.000 C 
ATOM     15  N   UNL     1       2.591   8.163  17.528  0.00  0.00    +0.000 N 
ATOM     16  H   UNL     1       3.105   6.407  20.293  0.00  0.00    +0.000 HD
ATOM     17  H   UNL     1       3.126   8.444  16.712  0.00  0.00    +0.000 HD
ENDROOT
BRANCH   1  23
ATOM     18  C   UNL     1       1.446   4.643  17.913  0.00  0.00    +0.000 C 
ATOM     19  C   UNL     1       2.891   4.765  17.608  0.00  0.00    +0.000 A 
ATOM     20  C   UNL     1       3.684   3.673  17.109  0.00  0.00    +0.000 A 
ATOM     21  C   UNL     1       5.003   3.995  16.916  0.00  0.00    +0.000 A 
ATOM     22  S   UNL     1       5.317   5.623  17.329  0.00  0.00    +0.000 S 
ATOM     23  C   UNL     1       3.682   5.904  17.800  0.00  0.00    +0.000 A 
ENDBRANCH   1  23
TORSDOF 1
ENDMDL
MODEL 4
REMARK VINA RESULT:      -6.2      1.049      1.574
REMARK  Name = 
REMARK  3 active torsions:
REMARK  status: ('A' for Active; 'I' for Inactive)
REMARK    1  A    between atoms: C_1  and  C_2
REMARK    2  A    between atoms: C_6  and  C_7
REMARK    3  A    between atoms: N_18  and  C_19
REMARK                            x       y       z     vdW  Elec       q    Type
REMARK                         _______ _______ _______ _____ _____    ______ ____
ROOT
ATOM      1  C   UNL     1       2.838   6.819  19.121  0.00  0.00    +0.000 C 
ATOM      2  N   UNL     1       2.206   7.008  20.409  0.00  0.00    +0.000 N 
ATOM      3  C   UNL     1       1.467   8.109  20.784  0.00  0.00    +0.000 C 
ATOM      4  O   UNL     1       1.236   8.335  21.963  0.00  0.00    +0.000 OA
ATOM      5  C   UNL     1       1.134   9.009  19.706  0.00  0.00    +0.000 A 
ATOM      6  C   UNL     1       1.737   8.810  18.491  0.00  0.00    +0.000 A 
ATOM      7  S   UNL     1       2.212  10.337  17.859  0.00  0.00    +0.000 S 
ATOM      8  C   UNL     1       1.388  11.147  19.154  0.00  0.00    +0.000 A 
ATOM      9  C   UNL     1       0.461  10.251  19.651  0.00  0.00    +0.000 A 
ATOM     10  C   UNL     1      -0.977  10.581  19.316  0.00  0.00    +0.000 C 
ATOM     11  C   UNL     1      -1.220  12.124  19.198  0.00  0.00    +0.000 C 
ATOM     12  N   UNL     1      -0.109  12.944  18.632  0.00  0.00    +0.000 NA
ATOM     13  C   UNL     1      -0.388  14.370  18.796  0.00  0.00    +0.000 C 
ATOM     14  C   UNL     1       1.188  12.616  19.249  0.00  0.00    +0.000 C 
ATOM     15  N   UNL     1       2.165   7.594  18.082  0.00  0.00    +0.000 N 
ATOM     16  H   UNL     1       2.647   6.542  21.189  0.00  0.00    +0.000 HD
ATOM     17  H   UNL     1       2.661   7.562  17.197  0.00  0.00    +0.000 HD
ENDROOT
BRANCH   1  23
ATOM     18  C   UNL     1       1.068   4.419  20.436  0.00  0.00    +0.000 C 
ATOM     19  C   UNL     1       2.181   4.280  19.467  0.00  0.00    +0.000 A 
ATOM     20  C   UNL     1       2.685   3.007  19.026  0.00  0.00    +0.000 A 
ATOM     21  C   UNL     1       3.732   3.105  18.146  0.00  0.00    +0.000 A 
ATOM     22  S   UNL     1       4.132   4.736  17.829  0.00  0.00    +0.000 S 
ATOM     23  C   UNL     1       2.914   5.327  18.897  0.00  0.00    +0.000 A 
ENDBRANCH   1  23
TORSDOF 1
ENDMDL
MODEL 5
REMARK VINA RESULT:      -6.2      2.584      7.478
REMARK  Name = 
REMARK  3 active torsions:
REMARK  status: ('A' for Active; 'I' for Inactive)
REMARK    1  A    between atoms: C_1  and  C_2
REMARK    2  A    between atoms: C_6  and  C_7
REMARK    3  A    between atoms: N_18  and  C_19
REMARK                            x       y       z     vdW  Elec       q    Type
REMARK                         _______ _______ _______ _____ _____    ______ ____
ROOT
ATOM      1  C   UNL     1       1.355   8.321  21.035  0.00  0.00    +0.000 C 
ATOM      2  N   UNL     1       1.887   8.593  19.717  0.00  0.00    +0.000 N 
ATOM      3  C   UNL     1       2.374   7.648  18.840  0.00  0.00    +0.000 C 
ATOM      4  O   UNL     1       3.081   7.976  17.898  0.00  0.00    +0.000 OA
ATOM      5  C   UNL     1       2.102   6.281  19.212  0.00  0.00    +0.000 A 
ATOM      6  C   UNL     1       1.591   6.042  20.463  0.00  0.00    +0.000 A 
ATOM      7  S   UNL     1       2.395   4.677  21.132  0.00  0.00    +0.000 S 
ATOM      8  C   UNL     1       3.203   4.393  19.622  0.00  0.00    +0.000 A 
ATOM      9  C   UNL     1       2.457   5.033  18.651  0.00  0.00    +0.000 A 
ATOM     10  C   UNL     1       1.684   4.107  17.737  0.00  0.00    +0.000 C 
ATOM     11  C   UNL     1       2.413   2.736  17.526  0.00  0.00    +0.000 C 
ATOM     12  N   UNL     1       3.172   2.187  18.688  0.00  0.00    +0.000 NA
ATOM     13  C   UNL     1       3.979   1.037  18.278  0.00  0.00    +0.000 C 
ATOM     14  C   UNL     1       4.036   3.203  19.313  0.00  0.00    +0.000 C 
ATOM     15  N   UNL     1       0.848   6.954  21.130  0.00  0.00    +0.000 N 
ATOM     16  H   UNL     1       2.303   9.504  19.590  0.00  0.00    +0.000 HD
ATOM     17  H   UNL     1       0.574   6.711  22.077  0.00  0.00    +0.000 HD
ENDROOT
BRANCH   1  23
ATOM     18  C   UNL     1      -0.108  10.412  19.010  0.00  0.00    +0.000 C 
ATOM     19  C   UNL     1      -0.256  10.344  20.483  0.00  0.00    +0.000 A 
ATOM     20  C   UNL     1      -1.044  11.282  21.238  0.00  0.00    +0.000 A 
ATOM     21  C   UNL     1      -1.027  11.051  22.589  0.00  0.00    +0.000 A 
ATOM     22  S   UNL     1      -0.063   9.695  22.980  0.00  0.00    +0.000 S 
ATOM     23  C   UNL     1       0.365   9.421  21.333  0.00  0.00    +0.000 A 
ENDBRANCH   1  23
TORSDOF 1
ENDMDL
MODEL 6
REMARK VINA RESULT:      -6.1      2.206      2.907
REMARK  Name = 
REMARK  3 active torsions:
REMARK  status: ('A' for Active; 'I' for Inactive)
REMARK    1  A    between atoms: C_1  and  C_2
REMARK    2  A    between atoms: C_6  and  C_7
REMARK    3  A    between atoms: N_18  and  C_19
REMARK                            x       y       z     vdW  Elec       q    Type
REMARK                         _______ _______ _______ _____ _____    ______ ____
ROOT
ATOM      1  C   UNL     1       2.049   6.601  19.457  0.00  0.00    +0.000 C 
ATOM      2  N   UNL     1       2.221   7.509  18.344  0.00  0.00    +0.000 N 
ATOM      3  C   UNL     1       1.832   8.831  18.322  0.00  0.00    +0.000 C 
ATOM      4  O   UNL     1       1.725   9.433  17.264  0.00  0.00    +0.000 OA
ATOM      5  C   UNL     1       1.439   9.367  19.603  0.00  0.00    +0.000 A 
ATOM      6  C   UNL     1       1.288   8.492  20.649  0.00  0.00    +0.000 A 
ATOM      7  S   UNL     1      -0.136   8.916  21.516  0.00  0.00    +0.000 S 
ATOM      8  C   UNL     1      -0.313  10.350  20.554  0.00  0.00    +0.000 A 
ATOM      9  C   UNL     1       0.931  10.620  20.017  0.00  0.00    +0.000 A 
ATOM     10  C   UNL     1       1.631  11.819  20.618  0.00  0.00    +0.000 C 
ATOM     11  C   UNL     1       0.622  12.918  21.095  0.00  0.00    +0.000 C 
ATOM     12  N   UNL     1      -0.678  12.447  21.656  0.00  0.00    +0.000 NA
ATOM     13  C   UNL     1      -1.596  13.571  21.841  0.00  0.00    +0.000 C 
ATOM     14  C   UNL     1      -1.309  11.425  20.803  0.00  0.00    +0.000 C 
ATOM     15  N   UNL     1       1.966   7.325  20.724  0.00  0.00    +0.000 N 
ATOM     16  H   UNL     1       2.235   7.085  17.428  0.00  0.00    +0.000 HD
ATOM     17  H   UNL     1       1.734   6.715  21.501  0.00  0.00    +0.000 HD
ENDROOT
BRANCH   1  23
ATOM     18  C   UNL     1       2.357   3.707  20.923  0.00  0.00    +0.000 C 
ATOM     19  C   UNL     1       3.314   4.339  19.984  0.00  0.00    +0.000 A 
ATOM     20  C   UNL     1       4.585   3.756  19.647  0.00  0.00    +0.000 A 
ATOM     21  C   UNL     1       5.325   4.516  18.777  0.00  0.00    +0.000 A 
ATOM     22  S   UNL     1       4.502   5.950  18.344  0.00  0.00    +0.000 S 
ATOM     23  C   UNL     1       3.150   5.574  19.347  0.00  0.00    +0.000 A 
ENDBRANCH   1  23
TORSDOF 1
ENDMDL
MODEL 7
REMARK VINA RESULT:      -5.8      1.322      1.475
REMARK  Name = 
REMARK  3 active torsions:
REMARK  status: ('A' for Active; 'I' for Inactive)
REMARK    1  A    between atoms: C_1  and  C_2
REMARK    2  A    between atoms: C_6  and  C_7
REMARK    3  A    between atoms: N_18  and  C_19
REMARK                            x       y       z     vdW  Elec       q    Type
REMARK                         _______ _______ _______ _____ _____    ______ ____
ROOT
ATOM      1  C   UNL     1       2.306   6.726  19.796  0.00  0.00    +0.000 C 
ATOM      2  N   UNL     1       1.838   7.194  21.083  0.00  0.00    +0.000 N 
ATOM      3  C   UNL     1       1.281   8.429  21.331  0.00  0.00    +0.000 C 
ATOM      4  O   UNL     1       1.203   8.862  22.472  0.00  0.00    +0.000 OA
ATOM      5  C   UNL     1       0.950   9.192  20.151  0.00  0.00    +0.000 A 
ATOM      6  C   UNL     1       1.396   8.730  18.939  0.00  0.00    +0.000 A 
ATOM      7  S   UNL     1       1.986  10.063  18.028  0.00  0.00    +0.000 S 
ATOM      8  C   UNL     1       1.404  11.166  19.236  0.00  0.00    +0.000 A 
ATOM      9  C   UNL     1       0.432  10.491  19.949  0.00  0.00    +0.000 A 
ATOM     10  C   UNL     1      -0.983  10.959  19.684  0.00  0.00    +0.000 C 
ATOM     11  C   UNL     1      -1.048  12.484  19.334  0.00  0.00    +0.000 C 
ATOM     12  N   UNL     1       0.090  13.049  18.551  0.00  0.00    +0.000 NA
ATOM     13  C   UNL     1       0.006  14.509  18.501  0.00  0.00    +0.000 C 
ATOM     14  C   UNL     1       1.395  12.646  19.105  0.00  0.00    +0.000 C 
ATOM     15  N   UNL     1       1.629   7.419  18.702  0.00  0.00    +0.000 N 
ATOM     16  H   UNL     1       2.297   6.796  21.889  0.00  0.00    +0.000 HD
ATOM     17  H   UNL     1       2.023   7.185  17.797  0.00  0.00    +0.000 HD
ENDROOT
BRANCH   1  23
ATOM     18  C   UNL     1       1.703   4.656  17.353  0.00  0.00    +0.000 C 
ATOM     19  C   UNL     1       1.896   4.318  18.783  0.00  0.00    +0.000 A 
ATOM     20  C   UNL     1       1.761   2.982  19.300  0.00  0.00    +0.000 A 
ATOM     21  C   UNL     1       1.959   2.894  20.654  0.00  0.00    +0.000 A 
ATOM     22  S   UNL     1       2.313   4.421  21.335  0.00  0.00    +0.000 S 
ATOM     23  C   UNL     1       2.177   5.222  19.814  0.00  0.00    +0.000 A 
ENDBRANCH   1  23
TORSDOF 1
ENDMDL
MODEL 8
REMARK VINA RESULT:      -5.6      2.689      3.364
REMARK  Name = 
REMARK  3 active torsions:
REMARK  status: ('A' for Active; 'I' for Inactive)
REMARK    1  A    between atoms: C_1  and  C_2
REMARK    2  A    between atoms: C_6  and  C_7
REMARK    3  A    between atoms: N_18  and  C_19
REMARK                            x       y       z     vdW  Elec       q    Type
REMARK                         _______ _______ _______ _____ _____    ______ ____
ROOT
ATOM      1  C   UNL     1       1.470   7.658  19.889  0.00  0.00    +0.000 C 
ATOM      2  N   UNL     1       1.075   8.564  18.832  0.00  0.00    +0.000 N 
ATOM      3  C   UNL     1       0.539   9.820  19.014  0.00  0.00    +0.000 C 
ATOM      4  O   UNL     1      -0.049  10.386  18.103  0.00  0.00    +0.000 OA
ATOM      5  C   UNL     1       0.607  10.317  20.367  0.00  0.00    +0.000 A 
ATOM      6  C   UNL     1       0.991   9.446  21.354  0.00  0.00    +0.000 A 
ATOM      7  S   UNL     1      -0.027   9.685  22.720  0.00  0.00    +0.000 S 
ATOM      8  C   UNL     1      -0.750  11.067  21.959  0.00  0.00    +0.000 A 
ATOM      9  C   UNL     1       0.140  11.495  20.993  0.00  0.00    +0.000 A 
ATOM     10  C   UNL     1       0.855  12.787  21.323  0.00  0.00    +0.000 C 
ATOM     11  C   UNL     1      -0.024  13.746  22.196  0.00  0.00    +0.000 C 
ATOM     12  N   UNL     1      -0.930  13.111  23.197  0.00  0.00    +0.000 NA
ATOM     13  C   UNL     1      -1.843  14.102  23.766  0.00  0.00    +0.000 C 
ATOM     14  C   UNL     1      -1.702  12.000  22.616  0.00  0.00    +0.000 C 
ATOM     15  N   UNL     1       1.792   8.384  21.115  0.00  0.00    +0.000 N 
ATOM     16  H   UNL     1       0.789   8.132  17.966  0.00  0.00    +0.000 HD
ATOM     17  H   UNL     1       1.963   7.759  21.898  0.00  0.00    +0.000 HD
ENDROOT
BRANCH   1  23
ATOM     18  C   UNL     1       2.506   4.718  20.839  0.00  0.00    +0.000 C 
ATOM     19  C   UNL     1       3.043   5.537  19.727  0.00  0.00    +0.000 A 
ATOM     20  C   UNL     1       4.185   5.148  18.943  0.00  0.00    +0.000 A 
ATOM     21  C   UNL     1       4.527   6.061  17.980  0.00  0.00    +0.000 A 
ATOM     22  S   UNL     1       3.479   7.410  17.995  0.00  0.00    +0.000 S 
ATOM     23  C   UNL     1       2.567   6.790  19.320  0.00  0.00    +0.000 A 
ENDBRANCH   1  23
TORSDOF 1
ENDMDL
MODEL 9
REMARK VINA RESULT:      -5.6      2.059      2.540
REMARK  Name = 
REMARK  3 active torsions:
REMARK  status: ('A' for Active; 'I' for Inactive)
REMARK    1  A    between atoms: C_1  and  C_2
REMARK    2  A    between atoms: C_6  and  C_7
REMARK    3  A    between atoms: N_18  and  C_19
REMARK                            x       y       z     vdW  Elec       q    Type
REMARK                         _______ _______ _______ _____ _____    ______ ____
ROOT
ATOM      1  C   UNL     1       2.133   6.623  19.395  0.00  0.00    +0.000 C 
ATOM      2  N   UNL     1       2.246   7.547  18.287  0.00  0.00    +0.000 N 
ATOM      3  C   UNL     1       1.814   8.856  18.290  0.00  0.00    +0.000 C 
ATOM      4  O   UNL     1       1.660   9.464  17.241  0.00  0.00    +0.000 OA
ATOM      5  C   UNL     1       1.436   9.366  19.586  0.00  0.00    +0.000 A 
ATOM      6  C   UNL     1       1.341   8.476  20.626  0.00  0.00    +0.000 A 
ATOM      7  S   UNL     1      -0.073   8.844  21.533  0.00  0.00    +0.000 S 
ATOM      8  C   UNL     1      -0.322  10.281  20.592  0.00  0.00    +0.000 A 
ATOM      9  C   UNL     1       0.898  10.597  20.026  0.00  0.00    +0.000 A 
ATOM     10  C   UNL     1       1.574  11.812  20.621  0.00  0.00    +0.000 C 
ATOM     11  C   UNL     1       0.542  12.873  21.136  0.00  0.00    +0.000 C 
ATOM     12  N   UNL     1      -0.727  12.353  21.725  0.00  0.00    +0.000 NA
ATOM     13  C   UNL     1      -1.676  13.444  21.945  0.00  0.00    +0.000 C 
ATOM     14  C   UNL     1      -1.345  11.319  20.878  0.00  0.00    +0.000 C 
ATOM     15  N   UNL     1       2.060   7.332  20.671  0.00  0.00    +0.000 N 
ATOM     16  H   UNL     1       2.251   7.133  17.367  0.00  0.00    +0.000 HD
ATOM     17  H   UNL     1       1.868   6.706  21.447  0.00  0.00    +0.000 HD
ENDROOT
BRANCH   1  23
ATOM     18  C   UNL     1       4.803   6.777  17.534  0.00  0.00    +0.000 C 
ATOM     19  C   UNL     1       4.406   5.671  18.437  0.00  0.00    +0.000 A 
ATOM     20  C   UNL     1       5.149   4.444  18.550  0.00  0.00    +0.000 A 
ATOM     21  C   UNL     1       4.595   3.545  19.424  0.00  0.00    +0.000 A 
ATOM     22  S   UNL     1       3.167   4.159  20.132  0.00  0.00    +0.000 S 
ATOM     23  C   UNL     1       3.265   5.635  19.246  0.00  0.00    +0.000 A 
ENDBRANCH   1  23
TORSDOF 1
ENDMDL
