MODEL 1
REMARK VINA RESULT:      -8.2      0.000      0.000
REMARK  Name = 
REMARK  9 active torsions:
REMARK  status: ('A' for Active; 'I' for Inactive)
REMARK    1  A    between atoms: C_1  and  C_2
REMARK    2  A    between atoms: C_2  and  C_3
REMARK    3  A    between atoms: C_12  and  C_13
REMARK    4  A    between atoms: C_16  and  O_17
REMARK    5  A    between atoms: O_17  and  C_18
REMARK    6  A    between atoms: C_18  and  C_19
REMARK    7  A    between atoms: C_19  and  O_21
REMARK    8  A    between atoms: C_22  and  O_23
REMARK    9  A    between atoms: O_23  and  C_24
REMARK                            x       y       z     vdW  Elec       q    Type
REMARK                         _______ _______ _______ _____ _____    ______ ____
ROOT
ATOM      1  C   UNL     1      -1.740  12.179  22.527  0.00  0.00    +0.000 A 
ATOM      2  C   UNL     1      -1.949  12.435  21.173  0.00  0.00    +0.000 A 
ATOM      3  C   UNL     1      -1.297  11.677  20.192  0.00  0.00    +0.000 A 
ATOM      4  C   UNL     1      -0.412  10.633  20.558  0.00  0.00    +0.000 A 
ATOM      5  C   UNL     1      -0.234  10.386  21.924  0.00  0.00    +0.000 A 
ATOM      6  C   UNL     1      -0.884  11.144  22.912  0.00  0.00    +0.000 A 
ATOM      7  S   UNL     1       0.856   9.086  22.207  0.00  0.00    +0.000 S 
ATOM      8  C   UNL     1       1.086   8.862  20.560  0.00  0.00    +0.000 A 
ATOM      9  N   UNL     1       1.883   7.930  20.027  0.00  0.00    +0.000 N 
ATOM     10  C   UNL     1       2.041   7.883  18.662  0.00  0.00    +0.000 A 
ATOM     11  N   UNL     1       1.432   8.684  17.836  0.00  0.00    +0.000 NA
ATOM     12  C   UNL     1       0.547   9.648  18.310  0.00  0.00    +0.000 A 
ATOM     13  O   UNL     1      -0.056  10.399  17.556  0.00  0.00    +0.000 OA
ATOM     14  C   UNL     1       0.389   9.734  19.765  0.00  0.00    +0.000 A 
ATOM     15  H   UNL     1       2.466   7.362  20.631  0.00  0.00    +0.000 HD
ENDROOT
BRANCH  10  16
ATOM     16  C   UNL     1       2.995   6.876  18.122  0.00  0.00    +0.000 A 
ATOM     17  C   UNL     1       4.138   7.293  17.433  0.00  0.00    +0.000 A 
ATOM     18  C   UNL     1       4.972   6.351  16.834  0.00  0.00    +0.000 A 
ATOM     19  C   UNL     1       4.651   4.991  16.898  0.00  0.00    +0.000 A 
ATOM     20  C   UNL     1       3.512   4.569  17.615  0.00  0.00    +0.000 A 
ATOM     21  C   UNL     1       2.697   5.517  18.240  0.00  0.00    +0.000 A 
BRANCH  20  22
ATOM     22  O   UNL     1       3.262   3.219  17.612  0.00  0.00    +0.000 OA
ATOM     23  C   UNL     1       1.993   2.794  18.099  0.00  0.00    +0.000 C 
ENDBRANCH  20  22
BRANCH  19  24
ATOM     24  O   UNL     1       5.423   4.003  16.333  0.00  0.00    +0.000 OA
BRANCH  24  25
ATOM     25  C   UNL     1       6.738   4.380  15.930  0.00  0.00    +0.000 C 
BRANCH  25  26
ATOM     26  C   UNL     1       6.858   4.442  14.419  0.00  0.00    +0.000 C 
ATOM     27  O   UNL     1       7.361   5.378  13.814  0.00  0.00    +0.000 OA
BRANCH  26  28
ATOM     28  O   UNL     1       6.336   3.361  13.793  0.00  0.00    +0.000 OA
ATOM     29  H   UNL     1       5.612   2.964  14.326  0.00  0.00    +0.000 HD
ENDBRANCH  26  28
ENDBRANCH  25  26
ENDBRANCH  24  25
ENDBRANCH  19  24
ENDBRANCH  10  16
BRANCH   1  31
ATOM     30  C   UNL     1      -3.851  12.727  23.737  0.00  0.00    +0.000 C 
ATOM     31  C   UNL     1      -2.370  13.045  23.587  0.00  0.00    +0.000 C 
ENDBRANCH   1  31
TORSDOF 7
ENDMDL
MODEL 2
REMARK VINA RESULT:      -8.1      2.381      3.242
REMARK  Name = 
REMARK  9 active torsions:
REMARK  status: ('A' for Active; 'I' for Inactive)
REMARK    1  A    between atoms: C_1  and  C_2
REMARK    2  A    between atoms: C_2  and  C_3
REMARK    3  A    between atoms: C_12  and  C_13
REMARK    4  A    between atoms: C_16  and  O_17
REMARK    5  A    between atoms: O_17  and  C_18
REMARK    6  A    between atoms: C_18  and  C_19
REMARK    7  A    between atoms: C_19  and  O_21
REMARK    8  A    between atoms: C_22  and  O_23
REMARK    9  A    between atoms: O_23  and  C_24
REMARK                            x       y       z     vdW  Elec       q    Type
REMARK                         _______ _______ _______ _____ _____    ______ ____
ROOT
ATOM      1  C   UNL     1      -3.575  13.761  22.390  0.00  0.00    +0.000 A 
ATOM      2  C   UNL     1      -2.983  13.172  23.506  0.00  0.00    +0.000 A 
ATOM      3  C   UNL     1      -2.003  12.182  23.360  0.00  0.00    +0.000 A 
ATOM      4  C   UNL     1      -1.591  11.761  22.071  0.00  0.00    +0.000 A 
ATOM      5  C   UNL     1      -2.189  12.380  20.967  0.00  0.00    +0.000 A 
ATOM      6  C   UNL     1      -3.174  13.372  21.109  0.00  0.00    +0.000 A 
ATOM      7  S   UNL     1      -1.580  11.771  19.478  0.00  0.00    +0.000 S 
ATOM      8  C   UNL     1      -0.554  10.712  20.281  0.00  0.00    +0.000 A 
ATOM      9  N   UNL     1       0.283   9.864  19.674  0.00  0.00    +0.000 N 
ATOM     10  C   UNL     1       1.030   8.999  20.437  0.00  0.00    +0.000 A 
ATOM     11  N   UNL     1       0.997   8.968  21.739  0.00  0.00    +0.000 NA
ATOM     12  C   UNL     1       0.188   9.854  22.445  0.00  0.00    +0.000 A 
ATOM     13  O   UNL     1       0.154   9.864  23.667  0.00  0.00    +0.000 OA
ATOM     14  C   UNL     1      -0.640  10.765  21.647  0.00  0.00    +0.000 A 
ATOM     15  H   UNL     1       0.258   9.770  18.666  0.00  0.00    +0.000 HD
ENDROOT
BRANCH  10  16
ATOM     16  C   UNL     1       1.892   8.024  19.713  0.00  0.00    +0.000 A 
ATOM     17  C   UNL     1       2.352   8.317  18.426  0.00  0.00    +0.000 A 
ATOM     18  C   UNL     1       3.066   7.360  17.708  0.00  0.00    +0.000 A 
ATOM     19  C   UNL     1       3.299   6.097  18.264  0.00  0.00    +0.000 A 
ATOM     20  C   UNL     1       2.857   5.811  19.572  0.00  0.00    +0.000 A 
ATOM     21  C   UNL     1       2.168   6.787  20.299  0.00  0.00    +0.000 A 
BRANCH  20  22
ATOM     22  O   UNL     1       3.112   4.544  20.033  0.00  0.00    +0.000 OA
ATOM     23  C   UNL     1       2.205   4.007  20.990  0.00  0.00    +0.000 C 
ENDBRANCH  20  22
BRANCH  19  24
ATOM     24  O   UNL     1       3.994   5.102  17.618  0.00  0.00    +0.000 OA
BRANCH  24  25
ATOM     25  C   UNL     1       5.368   5.364  17.345  0.00  0.00    +0.000 C 
BRANCH  25  26
ATOM     26  C   UNL     1       6.277   4.451  18.145  0.00  0.00    +0.000 C 
ATOM     27  O   UNL     1       7.498   4.491  18.097  0.00  0.00    +0.000 OA
BRANCH  26  28
ATOM     28  O   UNL     1       5.603   3.562  18.915  0.00  0.00    +0.000 OA
ATOM     29  H   UNL     1       4.633   3.690  18.827  0.00  0.00    +0.000 HD
ENDBRANCH  26  28
ENDBRANCH  25  26
ENDBRANCH  24  25
ENDBRANCH  19  24
ENDBRANCH  10  16
BRANCH   1  31
ATOM     30  C   UNL     1      -6.001  14.196  22.015  0.00  0.00    +0.000 C 
ATOM     31  C   UNL     1      -4.690  14.763  22.540  0.00  0.00    +0.000 C 
ENDBRANCH   1  31
TORSDOF 7
ENDMDL
MODEL 3
REMARK VINA RESULT:      -7.9      1.737      2.129
REMARK  Name = 
REMARK  9 active torsions:
REMARK  status: ('A' for Active; 'I' for Inactive)
REMARK    1  A    between atoms: C_1  and  C_2
REMARK    2  A    between atoms: C_2  and  C_3
REMARK    3  A    between atoms: C_12  and  C_13
REMARK    4  A    between atoms: C_16  and  O_17
REMARK    5  A    between atoms: O_17  and  C_18
REMARK    6  A    between atoms: C_18  and  C_19
REMARK    7  A    between atoms: C_19  and  O_21
REMARK    8  A    between atoms: C_22  and  O_23
REMARK    9  A    between atoms: O_23  and  C_24
REMARK                            x       y       z     vdW  Elec       q    Type
REMARK                         _______ _______ _______ _____ _____    ______ ____
ROOT
ATOM      1  C   UNL     1      -2.865  12.955  22.997  0.00  0.00    +0.000 A 
ATOM      2  C   UNL     1      -2.902  13.257  21.637  0.00  0.00    +0.000 A 
ATOM      3  C   UNL     1      -2.138  12.526  20.719  0.00  0.00    +0.000 A 
ATOM      4  C   UNL     1      -1.311  11.461  21.156  0.00  0.00    +0.000 A 
ATOM      5  C   UNL     1      -1.305  11.168  22.525  0.00  0.00    +0.000 A 
ATOM      6  C   UNL     1      -2.068  11.900  23.450  0.00  0.00    +0.000 A 
ATOM      7  S   UNL     1      -0.265   9.849  22.896  0.00  0.00    +0.000 S 
ATOM      8  C   UNL     1       0.165   9.677  21.283  0.00  0.00    +0.000 A 
ATOM      9  N   UNL     1       1.017   8.756  20.821  0.00  0.00    +0.000 N 
ATOM     10  C   UNL     1       1.343   8.752  19.486  0.00  0.00    +0.000 A 
ATOM     11  N   UNL     1       0.845   9.586  18.618  0.00  0.00    +0.000 NA
ATOM     12  C   UNL     1      -0.086  10.542  19.012  0.00  0.00    +0.000 A 
ATOM     13  O   UNL     1      -0.587  11.323  18.215  0.00  0.00    +0.000 OA
ATOM     14  C   UNL     1      -0.423  10.581  20.438  0.00  0.00    +0.000 A 
ATOM     15  H   UNL     1       1.518   8.163  21.473  0.00  0.00    +0.000 HD
ENDROOT
BRANCH  10  16
ATOM     16  C   UNL     1       2.351   7.755  19.034  0.00  0.00    +0.000 A 
ATOM     17  C   UNL     1       3.067   7.968  17.852  0.00  0.00    +0.000 A 
ATOM     18  C   UNL     1       3.930   6.984  17.373  0.00  0.00    +0.000 A 
ATOM     19  C   UNL     1       4.059   5.772  18.060  0.00  0.00    +0.000 A 
ATOM     20  C   UNL     1       3.357   5.567  19.266  0.00  0.00    +0.000 A 
ATOM     21  C   UNL     1       2.517   6.571  19.757  0.00  0.00    +0.000 A 
BRANCH  20  22
ATOM     22  O   UNL     1       3.528   4.344  19.865  0.00  0.00    +0.000 OA
ATOM     23  C   UNL     1       2.355   3.668  20.305  0.00  0.00    +0.000 C 
ENDBRANCH  20  22
BRANCH  19  24
ATOM     24  O   UNL     1       4.889   4.755  17.651  0.00  0.00    +0.000 OA
BRANCH  24  25
ATOM     25  C   UNL     1       6.170   5.141  17.161  0.00  0.00    +0.000 C 
BRANCH  25  26
ATOM     26  C   UNL     1       7.264   4.834  18.167  0.00  0.00    +0.000 C 
ATOM     27  O   UNL     1       7.283   5.272  19.308  0.00  0.00    +0.000 OA
BRANCH  26  28
ATOM     28  O   UNL     1       8.239   4.033  17.673  0.00  0.00    +0.000 OA
ATOM     29  H   UNL     1       9.054   4.549  17.489  0.00  0.00    +0.000 HD
ENDBRANCH  26  28
ENDBRANCH  25  26
ENDBRANCH  24  25
ENDBRANCH  19  24
ENDBRANCH  10  16
BRANCH   1  31
ATOM     30  C   UNL     1      -2.656  14.610  24.851  0.00  0.00    +0.000 C 
ATOM     31  C   UNL     1      -3.617  13.792  24.000  0.00  0.00    +0.000 C 
ENDBRANCH   1  31
TORSDOF 7
ENDMDL
MODEL 4
REMARK VINA RESULT:      -7.8      3.186     10.356
REMARK  Name = 
REMARK  9 active torsions:
REMARK  status: ('A' for Active; 'I' for Inactive)
REMARK    1  A    between atoms: C_1  and  C_2
REMARK    2  A    between atoms: C_2  and  C_3
REMARK    3  A    between atoms: C_12  and  C_13
REMARK    4  A    between atoms: C_16  and  O_17
REMARK    5  A    between atoms: O_17  and  C_18
REMARK    6  A    between atoms: C_18  and  C_19
REMARK    7  A    between atoms: C_19  and  O_21
REMARK    8  A    between atoms: C_22  and  O_23
REMARK    9  A    between atoms: O_23  and  C_24
REMARK                            x       y       z     vdW  Elec       q    Type
REMARK                         _______ _______ _______ _____ _____    ______ ____
ROOT
ATOM      1  C   UNL     1       5.014   4.270  16.602  0.00  0.00    +0.000 A 
ATOM      2  C   UNL     1       4.459   3.514  17.633  0.00  0.00    +0.000 A 
ATOM      3  C   UNL     1       3.621   4.107  18.585  0.00  0.00    +0.000 A 
ATOM      4  C   UNL     1       3.318   5.490  18.518  0.00  0.00    +0.000 A 
ATOM      5  C   UNL     1       3.875   6.222  17.462  0.00  0.00    +0.000 A 
ATOM      6  C   UNL     1       4.718   5.632  16.506  0.00  0.00    +0.000 A 
ATOM      7  S   UNL     1       3.408   7.877  17.510  0.00  0.00    +0.000 S 
ATOM      8  C   UNL     1       2.496   7.625  18.896  0.00  0.00    +0.000 A 
ATOM      9  N   UNL     1       1.800   8.577  19.526  0.00  0.00    +0.000 N 
ATOM     10  C   UNL     1       1.140   8.265  20.691  0.00  0.00    +0.000 A 
ATOM     11  N   UNL     1       1.125   7.074  21.217  0.00  0.00    +0.000 NA
ATOM     12  C   UNL     1       1.784   6.019  20.593  0.00  0.00    +0.000 A 
ATOM     13  O   UNL     1       1.768   4.885  21.052  0.00  0.00    +0.000 OA
ATOM     14  C   UNL     1       2.520   6.339  19.366  0.00  0.00    +0.000 A 
ATOM     15  H   UNL     1       1.876   9.540  19.222  0.00  0.00    +0.000 HD
ENDROOT
BRANCH  10  16
ATOM     16  C   UNL     1       0.440   9.375  21.395  0.00  0.00    +0.000 A 
ATOM     17  C   UNL     1      -0.087   9.171  22.674  0.00  0.00    +0.000 A 
ATOM     18  C   UNL     1      -0.836  10.174  23.286  0.00  0.00    +0.000 A 
ATOM     19  C   UNL     1      -1.083  11.374  22.610  0.00  0.00    +0.000 A 
ATOM     20  C   UNL     1      -0.530  11.589  21.331  0.00  0.00    +0.000 A 
ATOM     21  C   UNL     1       0.246  10.590  20.736  0.00  0.00    +0.000 A 
BRANCH  20  22
ATOM     22  O   UNL     1      -0.837  12.786  20.732  0.00  0.00    +0.000 OA
ATOM     23  C   UNL     1       0.206  13.437  20.015  0.00  0.00    +0.000 C 
ENDBRANCH  20  22
BRANCH  19  24
ATOM     24  O   UNL     1      -1.812  12.409  23.147  0.00  0.00    +0.000 OA
BRANCH  24  25
ATOM     25  C   UNL     1      -3.225  12.229  23.198  0.00  0.00    +0.000 C 
BRANCH  25  26
ATOM     26  C   UNL     1      -3.826  12.901  24.418  0.00  0.00    +0.000 C 
ATOM     27  O   UNL     1      -3.386  13.925  24.919  0.00  0.00    +0.000 OA
BRANCH  26  28
ATOM     28  O   UNL     1      -4.899  12.243  24.919  0.00  0.00    +0.000 OA
ATOM     29  H   UNL     1      -5.353  11.728  24.217  0.00  0.00    +0.000 HD
ENDBRANCH  26  28
ENDBRANCH  25  26
ENDBRANCH  24  25
ENDBRANCH  19  24
ENDBRANCH  10  16
BRANCH   1  31
ATOM     30  C   UNL     1       6.801   4.734  14.925  0.00  0.00    +0.000 C 
ATOM     31  C   UNL     1       5.985   3.657  15.625  0.00  0.00    +0.000 C 
ENDBRANCH   1  31
TORSDOF 7
ENDMDL
MODEL 5
REMARK VINA RESULT:      -7.7      1.725      2.800
REMARK  Name = 
REMARK  9 active torsions:
REMARK  status: ('A' for Active; 'I' for Inactive)
REMARK    1  A    between atoms: C_1  and  C_2
REMARK    2  A    between atoms: C_2  and  C_3
REMARK    3  A    between atoms: C_12  and  C_13
REMARK    4  A    between atoms: C_16  and  O_17
REMARK    5  A    between atoms: O_17  and  C_18
REMARK    6  A    between atoms: C_18  and  C_19
REMARK    7  A    between atoms: C_19  and  O_21
REMARK    8  A    between atoms: C_22  and  O_23
REMARK    9  A    between atoms: O_23  and  C_24
REMARK                            x       y       z     vdW  Elec       q    Type
REMARK                         _______ _______ _______ _____ _____    ______ ____
ROOT
ATOM      1  C   UNL     1      -2.425  12.625  21.264  0.00  0.00    +0.000 A 
ATOM      2  C   UNL     1      -1.899  11.909  22.338  0.00  0.00    +0.000 A 
ATOM      3  C   UNL     1      -0.939  10.910  22.133  0.00  0.00    +0.000 A 
ATOM      4  C   UNL     1      -0.481  10.608  20.826  0.00  0.00    +0.000 A 
ATOM      5  C   UNL     1      -1.013  11.353  19.767  0.00  0.00    +0.000 A 
ATOM      6  C   UNL     1      -1.978  12.354  19.968  0.00  0.00    +0.000 A 
ATOM      7  S   UNL     1      -0.354  10.878  18.251  0.00  0.00    +0.000 S 
ATOM      8  C   UNL     1       0.608   9.714  18.984  0.00  0.00    +0.000 A 
ATOM      9  N   UNL     1       1.448   8.906  18.330  0.00  0.00    +0.000 N 
ATOM     10  C   UNL     1       2.139   7.946  19.031  0.00  0.00    +0.000 A 
ATOM     11  N   UNL     1       2.047   7.787  20.320  0.00  0.00    +0.000 NA
ATOM     12  C   UNL     1       1.231   8.621  21.078  0.00  0.00    +0.000 A 
ATOM     13  O   UNL     1       1.143   8.509  22.293  0.00  0.00    +0.000 OA
ATOM     14  C   UNL     1       0.463   9.631  20.343  0.00  0.00    +0.000 A 
ATOM     15  H   UNL     1       1.467   8.914  17.316  0.00  0.00    +0.000 HD
ENDROOT
BRANCH  10  16
ATOM     16  C   UNL     1       3.006   7.024  18.248  0.00  0.00    +0.000 A 
ATOM     17  C   UNL     1       2.686   5.666  18.162  0.00  0.00    +0.000 A 
ATOM     18  C   UNL     1       3.556   4.785  17.522  0.00  0.00    +0.000 A 
ATOM     19  C   UNL     1       4.762   5.255  16.990  0.00  0.00    +0.000 A 
ATOM     20  C   UNL     1       5.073   6.629  17.055  0.00  0.00    +0.000 A 
ATOM     21  C   UNL     1       4.181   7.512  17.671  0.00  0.00    +0.000 A 
BRANCH  20  22
ATOM     22  O   UNL     1       6.282   7.001  16.525  0.00  0.00    +0.000 OA
ATOM     23  C   UNL     1       7.313   7.348  17.443  0.00  0.00    +0.000 C 
ENDBRANCH  20  22
BRANCH  19  24
ATOM     24  O   UNL     1       5.670   4.448  16.346  0.00  0.00    +0.000 OA
BRANCH  24  25
ATOM     25  C   UNL     1       5.361   4.096  15.000  0.00  0.00    +0.000 C 
BRANCH  25  26
ATOM     26  C   UNL     1       6.515   4.411  14.065  0.00  0.00    +0.000 C 
ATOM     27  O   UNL     1       6.582   4.020  12.909  0.00  0.00    +0.000 OA
BRANCH  26  28
ATOM     28  O   UNL     1       7.485   5.160  14.643  0.00  0.00    +0.000 OA
ATOM     29  H   UNL     1       8.095   5.525  13.965  0.00  0.00    +0.000 HD
ENDBRANCH  26  28
ENDBRANCH  25  26
ENDBRANCH  24  25
ENDBRANCH  19  24
ENDBRANCH  10  16
BRANCH   1  31
ATOM     30  C   UNL     1      -3.055  15.028  21.053  0.00  0.00    +0.000 C 
ATOM     31  C   UNL     1      -3.520  13.640  21.468  0.00  0.00    +0.000 C 
ENDBRANCH   1  31
TORSDOF 7
ENDMDL
MODEL 6
REMARK VINA RESULT:      -7.7      1.998      2.655
REMARK  Name = 
REMARK  9 active torsions:
REMARK  status: ('A' for Active; 'I' for Inactive)
REMARK    1  A    between atoms: C_1  and  C_2
REMARK    2  A    between atoms: C_2  and  C_3
REMARK    3  A    between atoms: C_12  and  C_13
REMARK    4  A    between atoms: C_16  and  O_17
REMARK    5  A    between atoms: O_17  and  C_18
REMARK    6  A    between atoms: C_18  and  C_19
REMARK    7  A    between atoms: C_19  and  O_21
REMARK    8  A    between atoms: C_22  and  O_23
REMARK    9  A    between atoms: O_23  and  C_24
REMARK                            x       y       z     vdW  Elec       q    Type
REMARK                         _______ _______ _______ _____ _____    ______ ____
ROOT
ATOM      1  C   UNL     1      -3.027  13.583  22.041  0.00  0.00    +0.000 A 
ATOM      2  C   UNL     1      -2.438  13.035  23.179  0.00  0.00    +0.000 A 
ATOM      3  C   UNL     1      -1.497  12.003  23.074  0.00  0.00    +0.000 A 
ATOM      4  C   UNL     1      -1.123  11.496  21.805  0.00  0.00    +0.000 A 
ATOM      5  C   UNL     1      -1.717  12.075  20.677  0.00  0.00    +0.000 A 
ATOM      6  C   UNL     1      -2.662  13.109  20.777  0.00  0.00    +0.000 A 
ATOM      7  S   UNL     1      -1.155  11.361  19.216  0.00  0.00    +0.000 S 
ATOM      8  C   UNL     1      -0.155  10.311  20.062  0.00  0.00    +0.000 A 
ATOM      9  N   UNL     1       0.640   9.400  19.491  0.00  0.00    +0.000 N 
ATOM     10  C   UNL     1       1.368   8.551  20.290  0.00  0.00    +0.000 A 
ATOM     11  N   UNL     1       1.356   8.595  21.592  0.00  0.00    +0.000 NA
ATOM     12  C   UNL     1       0.592   9.548  22.259  0.00  0.00    +0.000 A 
ATOM     13  O   UNL     1       0.579   9.627  23.479  0.00  0.00    +0.000 OA
ATOM     14  C   UNL     1      -0.215  10.443  21.424  0.00  0.00    +0.000 A 
ATOM     15  H   UNL     1       0.595   9.250  18.490  0.00  0.00    +0.000 HD
ENDROOT
BRANCH  10  16
ATOM     16  C   UNL     1       2.181   7.506  19.610  0.00  0.00    +0.000 A 
ATOM     17  C   UNL     1       2.739   7.760  18.353  0.00  0.00    +0.000 A 
ATOM     18  C   UNL     1       3.407   6.746  17.670  0.00  0.00    +0.000 A 
ATOM     19  C   UNL     1       3.495   5.467  18.229  0.00  0.00    +0.000 A 
ATOM     20  C   UNL     1       2.955   5.217  19.507  0.00  0.00    +0.000 A 
ATOM     21  C   UNL     1       2.314   6.248  20.201  0.00  0.00    +0.000 A 
BRANCH  20  22
ATOM     22  O   UNL     1       3.071   3.931  19.973  0.00  0.00    +0.000 OA
ATOM     23  C   UNL     1       2.295   3.582  21.114  0.00  0.00    +0.000 C 
ENDBRANCH  20  22
BRANCH  19  24
ATOM     24  O   UNL     1       4.137   4.416  17.616  0.00  0.00    +0.000 OA
BRANCH  24  25
ATOM     25  C   UNL     1       5.549   4.536  17.467  0.00  0.00    +0.000 C 
BRANCH  25  26
ATOM     26  C   UNL     1       5.956   4.519  16.005  0.00  0.00    +0.000 C 
ATOM     27  O   UNL     1       6.080   5.524  15.320  0.00  0.00    +0.000 OA
BRANCH  26  28
ATOM     28  O   UNL     1       6.154   3.271  15.517  0.00  0.00    +0.000 OA
ATOM     29  H   UNL     1       5.321   2.903  15.150  0.00  0.00    +0.000 HD
ENDBRANCH  26  28
ENDBRANCH  25  26
ENDBRANCH  24  25
ENDBRANCH  19  24
ENDBRANCH  10  16
BRANCH   1  31
ATOM     30  C   UNL     1      -4.596  14.754  23.584  0.00  0.00    +0.000 C 
ATOM     31  C   UNL     1      -4.102  14.632  22.150  0.00  0.00    +0.000 C 
ENDBRANCH   1  31
TORSDOF 7
ENDMDL
MODEL 7
REMARK VINA RESULT:      -7.7      1.859      2.365
REMARK  Name = 
REMARK  9 active torsions:
REMARK  status: ('A' for Active; 'I' for Inactive)
REMARK    1  A    between atoms: C_1  and  C_2
REMARK    2  A    between atoms: C_2  and  C_3
REMARK    3  A    between atoms: C_12  and  C_13
REMARK    4  A    between atoms: C_16  and  O_17
REMARK    5  A    between atoms: O_17  and  C_18
REMARK    6  A    between atoms: C_18  and  C_19
REMARK    7  A    between atoms: C_19  and  O_21
REMARK    8  A    between atoms: C_22  and  O_23
REMARK    9  A    between atoms: O_23  and  C_24
REMARK                            x       y       z     vdW  Elec       q    Type
REMARK                         _______ _______ _______ _____ _____    ______ ____
ROOT
ATOM      1  C   UNL     1      -2.776  13.154  21.350  0.00  0.00    +0.000 A 
ATOM      2  C   UNL     1      -2.320  12.512  22.500  0.00  0.00    +0.000 A 
ATOM      3  C   UNL     1      -1.365  11.491  22.418  0.00  0.00    +0.000 A 
ATOM      4  C   UNL     1      -0.842  11.091  21.164  0.00  0.00    +0.000 A 
ATOM      5  C   UNL     1      -1.305  11.763  20.027  0.00  0.00    +0.000 A 
ATOM      6  C   UNL     1      -2.264  12.787  20.102  0.00  0.00    +0.000 A 
ATOM      7  S   UNL     1      -0.572  11.174  18.587  0.00  0.00    +0.000 S 
ATOM      8  C   UNL     1       0.331  10.055  19.452  0.00  0.00    +0.000 A 
ATOM      9  N   UNL     1       1.194   9.193  18.905  0.00  0.00    +0.000 N 
ATOM     10  C   UNL     1       1.831   8.278  19.709  0.00  0.00    +0.000 A 
ATOM     11  N   UNL     1       1.667   8.213  20.999  0.00  0.00    +0.000 NA
ATOM     12  C   UNL     1       0.824   9.108  21.650  0.00  0.00    +0.000 A 
ATOM     13  O   UNL     1       0.669   9.085  22.863  0.00  0.00    +0.000 OA
ATOM     14  C   UNL     1       0.112  10.071  20.804  0.00  0.00    +0.000 A 
ATOM     15  H   UNL     1       1.267   9.128  17.896  0.00  0.00    +0.000 HD
ENDROOT
BRANCH  10  16
ATOM     16  C   UNL     1       2.726   7.293  19.043  0.00  0.00    +0.000 A 
ATOM     17  C   UNL     1       3.362   7.623  17.843  0.00  0.00    +0.000 A 
ATOM     18  C   UNL     1       4.112   6.664  17.165  0.00  0.00    +0.000 A 
ATOM     19  C   UNL     1       4.204   5.363  17.671  0.00  0.00    +0.000 A 
ATOM     20  C   UNL     1       3.584   5.036  18.894  0.00  0.00    +0.000 A 
ATOM     21  C   UNL     1       2.860   6.013  19.585  0.00  0.00    +0.000 A 
BRANCH  20  22
ATOM     22  O   UNL     1       3.710   3.734  19.309  0.00  0.00    +0.000 OA
ATOM     23  C   UNL     1       2.606   3.164  20.003  0.00  0.00    +0.000 C 
ENDBRANCH  20  22
BRANCH  19  24
ATOM     24  O   UNL     1       4.924   4.362  17.059  0.00  0.00    +0.000 OA
BRANCH  24  25
ATOM     25  C   UNL     1       5.444   4.656  15.766  0.00  0.00    +0.000 C 
BRANCH  25  26
ATOM     26  C   UNL     1       6.954   4.804  15.795  0.00  0.00    +0.000 C 
ATOM     27  O   UNL     1       7.601   5.363  14.922  0.00  0.00    +0.000 OA
BRANCH  26  28
ATOM     28  O   UNL     1       7.528   4.237  16.883  0.00  0.00    +0.000 OA
ATOM     29  H   UNL     1       7.098   3.381  17.098  0.00  0.00    +0.000 HD
ENDBRANCH  26  28
ENDBRANCH  25  26
ENDBRANCH  24  25
ENDBRANCH  19  24
ENDBRANCH  10  16
BRANCH   1  31
ATOM     30  C   UNL     1      -5.212  13.593  21.041  0.00  0.00    +0.000 C 
ATOM     31  C   UNL     1      -3.866  14.193  21.421  0.00  0.00    +0.000 C 
ENDBRANCH   1  31
TORSDOF 7
ENDMDL
MODEL 8
REMARK VINA RESULT:      -7.7      2.255      3.229
REMARK  Name = 
REMARK  9 active torsions:
REMARK  status: ('A' for Active; 'I' for Inactive)
REMARK    1  A    between atoms: C_1  and  C_2
REMARK    2  A    between atoms: C_2  and  C_3
REMARK    3  A    between atoms: C_12  and  C_13
REMARK    4  A    between atoms: C_16  and  O_17
REMARK    5  A    between atoms: O_17  and  C_18
REMARK    6  A    between atoms: C_18  and  C_19
REMARK    7  A    between atoms: C_19  and  O_21
REMARK    8  A    between atoms: C_22  and  O_23
REMARK    9  A    between atoms: O_23  and  C_24
REMARK                            x       y       z     vdW  Elec       q    Type
REMARK                         _______ _______ _______ _____ _____    ______ ____
ROOT
ATOM      1  C   UNL     1      -2.517  14.246  22.050  0.00  0.00    +0.000 A 
ATOM      2  C   UNL     1      -2.132  13.588  23.217  0.00  0.00    +0.000 A 
ATOM      3  C   UNL     1      -1.349  12.428  23.161  0.00  0.00    +0.000 A 
ATOM      4  C   UNL     1      -0.931  11.900  21.915  0.00  0.00    +0.000 A 
ATOM      5  C   UNL     1      -1.317  12.589  20.759  0.00  0.00    +0.000 A 
ATOM      6  C   UNL     1      -2.104  13.752  20.809  0.00  0.00    +0.000 A 
ATOM      7  S   UNL     1      -0.727  11.834  19.331  0.00  0.00    +0.000 S 
ATOM      8  C   UNL     1       0.018  10.624  20.226  0.00  0.00    +0.000 A 
ATOM      9  N   UNL     1       0.721   9.617  19.699  0.00  0.00    +0.000 N 
ATOM     10  C   UNL     1       1.232   8.648  20.529  0.00  0.00    +0.000 A 
ATOM     11  N   UNL     1       1.097   8.662  21.825  0.00  0.00    +0.000 NA
ATOM     12  C   UNL     1       0.422   9.704  22.453  0.00  0.00    +0.000 A 
ATOM     13  O   UNL     1       0.300   9.755  23.668  0.00  0.00    +0.000 OA
ATOM     14  C   UNL     1      -0.157  10.731  21.580  0.00  0.00    +0.000 A 
ATOM     15  H   UNL     1       0.753   9.500  18.692  0.00  0.00    +0.000 HD
ENDROOT
BRANCH  10  16
ATOM     16  C   UNL     1       1.944   7.509  19.889  0.00  0.00    +0.000 A 
ATOM     17  C   UNL     1       2.519   7.664  18.624  0.00  0.00    +0.000 A 
ATOM     18  C   UNL     1       3.089   6.567  17.979  0.00  0.00    +0.000 A 
ATOM     19  C   UNL     1       3.062   5.307  18.586  0.00  0.00    +0.000 A 
ATOM     20  C   UNL     1       2.505   5.156  19.873  0.00  0.00    +0.000 A 
ATOM     21  C   UNL     1       1.963   6.266  20.527  0.00  0.00    +0.000 A 
BRANCH  20  22
ATOM     22  O   UNL     1       2.504   3.883  20.386  0.00  0.00    +0.000 OA
ATOM     23  C   UNL     1       1.248   3.347  20.787  0.00  0.00    +0.000 C 
ENDBRANCH  20  22
BRANCH  19  24
ATOM     24  O   UNL     1       3.602   4.180  18.013  0.00  0.00    +0.000 OA
BRANCH  24  25
ATOM     25  C   UNL     1       4.768   4.371  17.216  0.00  0.00    +0.000 C 
BRANCH  25  26
ATOM     26  C   UNL     1       6.032   4.286  18.051  0.00  0.00    +0.000 C 
ATOM     27  O   UNL     1       6.042   4.285  19.273  0.00  0.00    +0.000 OA
BRANCH  26  28
ATOM     28  O   UNL     1       7.163   4.230  17.308  0.00  0.00    +0.000 OA
ATOM     29  H   UNL     1       7.405   5.120  16.971  0.00  0.00    +0.000 HD
ENDBRANCH  26  28
ENDBRANCH  25  26
ENDBRANCH  24  25
ENDBRANCH  19  24
ENDBRANCH  10  16
BRANCH   1  31
ATOM     30  C   UNL     1      -3.359  16.231  20.798  0.00  0.00    +0.000 C 
ATOM     31  C   UNL     1      -3.430  15.444  22.098  0.00  0.00    +0.000 C 
ENDBRANCH   1  31
TORSDOF 7
ENDMDL
MODEL 9
REMARK VINA RESULT:      -7.7      1.548      2.083
REMARK  Name = 
REMARK  9 active torsions:
REMARK  status: ('A' for Active; 'I' for Inactive)
REMARK    1  A    between atoms: C_1  and  C_2
REMARK    2  A    between atoms: C_2  and  C_3
REMARK    3  A    between atoms: C_12  and  C_13
REMARK    4  A    between atoms: C_16  and  O_17
REMARK    5  A    between atoms: O_17  and  C_18
REMARK    6  A    between atoms: C_18  and  C_19
REMARK    7  A    between atoms: C_19  and  O_21
REMARK    8  A    between atoms: C_22  and  O_23
REMARK    9  A    between atoms: O_23  and  C_24
REMARK                            x       y       z     vdW  Elec       q    Type
REMARK                         _______ _______ _______ _____ _____    ______ ____
ROOT
ATOM      1  C   UNL     1      -2.383  12.666  21.147  0.00  0.00    +0.000 A 
ATOM      2  C   UNL     1      -1.845  12.007  22.252  0.00  0.00    +0.000 A 
ATOM      3  C   UNL     1      -0.892  10.994  22.088  0.00  0.00    +0.000 A 
ATOM      4  C   UNL     1      -0.454  10.620  20.794  0.00  0.00    +0.000 A 
ATOM      5  C   UNL     1      -0.997  11.309  19.703  0.00  0.00    +0.000 A 
ATOM      6  C   UNL     1      -1.955  12.324  19.862  0.00  0.00    +0.000 A 
ATOM      7  S   UNL     1      -0.361  10.749  18.206  0.00  0.00    +0.000 S 
ATOM      8  C   UNL     1       0.606   9.621  18.988  0.00  0.00    +0.000 A 
ATOM      9  N   UNL     1       1.434   8.775  18.367  0.00  0.00    +0.000 N 
ATOM     10  C   UNL     1       2.130   7.851  19.110  0.00  0.00    +0.000 A 
ATOM     11  N   UNL     1       2.055   7.762  20.407  0.00  0.00    +0.000 NA
ATOM     12  C   UNL     1       1.253   8.641  21.129  0.00  0.00    +0.000 A 
ATOM     13  O   UNL     1       1.181   8.595  22.349  0.00  0.00    +0.000 OA
ATOM     14  C   UNL     1       0.479   9.613  20.352  0.00  0.00    +0.000 A 
ATOM     15  H   UNL     1       1.438   8.728  17.354  0.00  0.00    +0.000 HD
ENDROOT
BRANCH  10  16
ATOM     16  C   UNL     1       2.983   6.884  18.367  0.00  0.00    +0.000 A 
ATOM     17  C   UNL     1       4.052   7.343  17.591  0.00  0.00    +0.000 A 
ATOM     18  C   UNL     1       4.781   6.448  16.811  0.00  0.00    +0.000 A 
ATOM     19  C   UNL     1       4.426   5.095  16.782  0.00  0.00    +0.000 A 
ATOM     20  C   UNL     1       3.364   4.627  17.583  0.00  0.00    +0.000 A 
ATOM     21  C   UNL     1       2.657   5.526  18.388  0.00  0.00    +0.000 A 
BRANCH  20  22
ATOM     22  O   UNL     1       3.072   3.290  17.481  0.00  0.00    +0.000 OA
ATOM     23  C   UNL     1       3.180   2.511  18.668  0.00  0.00    +0.000 C 
ENDBRANCH  20  22
BRANCH  19  24
ATOM     24  O   UNL     1       5.096   4.153  16.037  0.00  0.00    +0.000 OA
BRANCH  24  25
ATOM     25  C   UNL     1       5.595   4.582  14.774  0.00  0.00    +0.000 C 
BRANCH  25  26
ATOM     26  C   UNL     1       7.085   4.862  14.832  0.00  0.00    +0.000 C 
ATOM     27  O   UNL     1       7.785   4.628  15.806  0.00  0.00    +0.000 OA
BRANCH  26  28
ATOM     28  O   UNL     1       7.572   5.418  13.696  0.00  0.00    +0.000 OA
ATOM     29  H   UNL     1       6.924   6.046  13.309  0.00  0.00    +0.000 HD
ENDBRANCH  26  28
ENDBRANCH  25  26
ENDBRANCH  24  25
ENDBRANCH  19  24
ENDBRANCH  10  16
BRANCH   1  31
ATOM     30  C   UNL     1      -3.418  14.323  22.696  0.00  0.00    +0.000 C 
ATOM     31  C   UNL     1      -3.470  13.696  21.311  0.00  0.00    +0.000 C 
ENDBRANCH   1  31
TORSDOF 7
ENDMDL
