MODEL 1
REMARK VINA RESULT:      -6.5      0.000      0.000
REMARK  Name = 
REMARK  15 active torsions:
REMARK  status: ('A' for Active; 'I' for Inactive)
REMARK    1  A    between atoms: C_1  and  C_2
REMARK    2  A    between atoms: C_2  and  C_3
REMARK    3  A    between atoms: C_2  and  C_4
REMARK    4  A    between atoms: N_7  and  C_8
REMARK    5  A    between atoms: N_12  and  C_13
REMARK    6  A    between atoms: C_16  and  C_17
REMARK    7  A    between atoms: C_24  and  C_25
REMARK    8  A    between atoms: C_26  and  C_27
REMARK    9  A    between atoms: C_27  and  O_28
REMARK   10  A    between atoms: C_27  and  C_29
REMARK   11  A    between atoms: C_29  and  C_30
REMARK   12  A    between atoms: C_30  and  O_31
REMARK   13  A    between atoms: C_30  and  C_32
REMARK   14  A    between atoms: C_32  and  C_33
REMARK   15  A    between atoms: C_33  and  O_35
REMARK                            x       y       z     vdW  Elec       q    Type
REMARK                         _______ _______ _______ _____ _____    ______ ____
ROOT
ATOM      1  C   UNL     1      -5.273  14.459  21.575  0.00  0.00    +0.000 A 
ATOM      2  N   UNL     1      -4.845  15.506  22.332  0.00  0.00    +0.000 NA
ATOM      3  C   UNL     1      -3.620  15.489  22.870  0.00  0.00    +0.000 A 
ATOM      4  N   UNL     1      -3.211  16.542  23.704  0.00  0.00    +0.000 N 
ATOM      5  C   UNL     1      -3.860  17.821  23.433  0.00  0.00    +0.000 C 
ATOM      6  C   UNL     1      -2.308  16.497  24.728  0.00  0.00    +0.000 A 
ATOM      7  C   UNL     1      -1.602  15.341  25.168  0.00  0.00    +0.000 A 
ATOM      8  C   UNL     1      -0.863  15.731  26.258  0.00  0.00    +0.000 A 
ATOM      9  N   UNL     1      -1.153  17.046  26.433  0.00  0.00    +0.000 N 
ATOM     10  C   UNL     1      -0.689  17.895  27.503  0.00  0.00    +0.000 C 
ATOM     11  N   UNL     1      -2.000  17.540  25.519  0.00  0.00    +0.000 NA
ATOM     12  N   UNL     1      -2.793  14.465  22.648  0.00  0.00    +0.000 NA
ATOM     13  C   UNL     1      -3.182  13.421  21.873  0.00  0.00    +0.000 A 
ATOM     14  C   UNL     1      -4.453  13.371  21.287  0.00  0.00    +0.000 A 
ENDROOT
BRANCH  13  15
ATOM     15  C   UNL     1      -2.101  12.388  21.774  0.00  0.00    +0.000 A 
ATOM     16  C   UNL     1      -1.682  11.588  22.854  0.00  0.00    +0.000 A 
ATOM     17  C   UNL     1      -0.636  10.665  22.725  0.00  0.00    +0.000 A 
ATOM     18  C   UNL     1       0.038  10.551  21.519  0.00  0.00    +0.000 A 
ATOM     19  F   UNL     1       1.059   9.692  21.408  0.00  0.00    +0.000 F 
ATOM     20  C   UNL     1      -0.322  11.335  20.435  0.00  0.00    +0.000 A 
ATOM     21  C   UNL     1      -1.385  12.236  20.563  0.00  0.00    +0.000 A 
ENDBRANCH  13  15
BRANCH   1  23
ATOM     22  C   UNL     1      -7.591  13.537  21.853  0.00  0.00    +0.000 C 
ATOM     23  C   UNL     1      -6.724  14.583  21.133  0.00  0.00    +0.000 C 
ATOM     24  C   UNL     1      -7.266  15.991  21.414  0.00  0.00    +0.000 C 
ENDBRANCH   1  23
BRANCH  14  25
ATOM     25  C   UNL     1      -4.867  12.246  20.432  0.00  0.00    +0.000 C 
ATOM     26  C   UNL     1      -5.006  12.361  19.101  0.00  0.00    +0.000 C 
BRANCH  26  27
ATOM     27  C   UNL     1      -5.048  11.167  18.180  0.00  0.00    +0.000 C 
BRANCH  27  28
ATOM     28  O   UNL     1      -5.689  11.547  16.967  0.00  0.00    +0.000 OA
ATOM     29  H   UNL     1      -6.391  10.897  16.797  0.00  0.00    +0.000 HD
ENDBRANCH  27  28
BRANCH  27  30
ATOM     30  C   UNL     1      -3.665  10.592  17.840  0.00  0.00    +0.000 C 
BRANCH  30  31
ATOM     31  C   UNL     1      -3.127  11.001  16.459  0.00  0.00    +0.000 C 
BRANCH  31  32
ATOM     32  O   UNL     1      -1.980  11.840  16.625  0.00  0.00    +0.000 OA
ATOM     33  H   UNL     1      -2.085  12.635  16.075  0.00  0.00    +0.000 HD
ENDBRANCH  31  32
BRANCH  31  34
ATOM     34  C   UNL     1      -2.716   9.804  15.597  0.00  0.00    +0.000 C 
BRANCH  34  35
ATOM     35  C   UNL     1      -3.311   9.868  14.213  0.00  0.00    +0.000 C 
ATOM     36  O   UNL     1      -4.506   9.915  13.972  0.00  0.00    +0.000 OA
BRANCH  35  37
ATOM     37  O   UNL     1      -2.377   9.879  13.235  0.00  0.00    +0.000 OA
ATOM     38  H   UNL     1      -2.146   9.001  12.878  0.00  0.00    +0.000 HD
ENDBRANCH  35  37
ENDBRANCH  34  35
ENDBRANCH  31  34
ENDBRANCH  30  31
ENDBRANCH  27  30
ENDBRANCH  26  27
ENDBRANCH  14  25
TORSDOF 11
ENDMDL
MODEL 2
REMARK VINA RESULT:      -6.3      2.162      3.532
REMARK  Name = 
REMARK  15 active torsions:
REMARK  status: ('A' for Active; 'I' for Inactive)
REMARK    1  A    between atoms: C_1  and  C_2
REMARK    2  A    between atoms: C_2  and  C_3
REMARK    3  A    between atoms: C_2  and  C_4
REMARK    4  A    between atoms: N_7  and  C_8
REMARK    5  A    between atoms: N_12  and  C_13
REMARK    6  A    between atoms: C_16  and  C_17
REMARK    7  A    between atoms: C_24  and  C_25
REMARK    8  A    between atoms: C_26  and  C_27
REMARK    9  A    between atoms: C_27  and  O_28
REMARK   10  A    between atoms: C_27  and  C_29
REMARK   11  A    between atoms: C_29  and  C_30
REMARK   12  A    between atoms: C_30  and  O_31
REMARK   13  A    between atoms: C_30  and  C_32
REMARK   14  A    between atoms: C_32  and  C_33
REMARK   15  A    between atoms: C_33  and  O_35
REMARK                            x       y       z     vdW  Elec       q    Type
REMARK                         _______ _______ _______ _____ _____    ______ ____
ROOT
ATOM      1  C   UNL     1      -5.067  12.029  19.211  0.00  0.00    +0.000 A 
ATOM      2  N   UNL     1      -5.179  12.939  20.217  0.00  0.00    +0.000 NA
ATOM      3  C   UNL     1      -4.082  13.480  20.759  0.00  0.00    +0.000 A 
ATOM      4  N   UNL     1      -4.203  14.368  21.840  0.00  0.00    +0.000 N 
ATOM      5  C   UNL     1      -5.465  15.099  21.889  0.00  0.00    +0.000 C 
ATOM      6  C   UNL     1      -3.300  14.601  22.838  0.00  0.00    +0.000 A 
ATOM      7  C   UNL     1      -2.036  13.962  22.985  0.00  0.00    +0.000 A 
ATOM      8  C   UNL     1      -1.494  14.441  24.153  0.00  0.00    +0.000 A 
ATOM      9  N   UNL     1      -2.421  15.300  24.649  0.00  0.00    +0.000 N 
ATOM     10  C   UNL     1      -2.358  16.000  25.909  0.00  0.00    +0.000 C 
ATOM     11  N   UNL     1      -3.506  15.434  23.874  0.00  0.00    +0.000 NA
ATOM     12  N   UNL     1      -2.869  13.162  20.301  0.00  0.00    +0.000 NA
ATOM     13  C   UNL     1      -2.727  12.280  19.279  0.00  0.00    +0.000 A 
ATOM     14  C   UNL     1      -3.833  11.670  18.674  0.00  0.00    +0.000 A 
ENDROOT
BRANCH  13  15
ATOM     15  C   UNL     1      -1.283  12.066  18.945  0.00  0.00    +0.000 A 
ATOM     16  C   UNL     1      -0.649  10.810  18.977  0.00  0.00    +0.000 A 
ATOM     17  C   UNL     1       0.717  10.666  18.699  0.00  0.00    +0.000 A 
ATOM     18  C   UNL     1       1.484  11.785  18.416  0.00  0.00    +0.000 A 
ATOM     19  F   UNL     1       2.796  11.648  18.183  0.00  0.00    +0.000 F 
ATOM     20  C   UNL     1       0.910  13.045  18.397  0.00  0.00    +0.000 A 
ATOM     21  C   UNL     1      -0.459  13.180  18.650  0.00  0.00    +0.000 A 
ENDBRANCH  13  15
BRANCH   1  23
ATOM     22  C   UNL     1      -7.112  10.805  19.996  0.00  0.00    +0.000 C 
ATOM     23  C   UNL     1      -6.398  11.428  18.786  0.00  0.00    +0.000 C 
ATOM     24  C   UNL     1      -7.300  12.490  18.141  0.00  0.00    +0.000 C 
ENDBRANCH   1  23
BRANCH  14  25
ATOM     25  C   UNL     1      -3.680  10.727  17.554  0.00  0.00    +0.000 C 
ATOM     26  C   UNL     1      -3.506  11.132  16.286  0.00  0.00    +0.000 C 
BRANCH  26  27
ATOM     27  C   UNL     1      -2.972  10.223  15.206  0.00  0.00    +0.000 C 
BRANCH  27  28
ATOM     28  O   UNL     1      -2.457   9.044  15.814  0.00  0.00    +0.000 OA
ATOM     29  H   UNL     1      -3.193   8.617  16.284  0.00  0.00    +0.000 HD
ENDBRANCH  27  28
BRANCH  27  30
ATOM     30  C   UNL     1      -4.020   9.814  14.161  0.00  0.00    +0.000 C 
BRANCH  30  31
ATOM     31  C   UNL     1      -3.677  10.225  12.719  0.00  0.00    +0.000 C 
BRANCH  31  32
ATOM     32  O   UNL     1      -2.859   9.214  12.120  0.00  0.00    +0.000 OA
ATOM     33  H   UNL     1      -2.300   8.809  12.805  0.00  0.00    +0.000 HD
ENDBRANCH  31  32
BRANCH  31  34
ATOM     34  C   UNL     1      -4.914  10.416  11.838  0.00  0.00    +0.000 C 
BRANCH  34  35
ATOM     35  C   UNL     1      -5.446   9.108  11.312  0.00  0.00    +0.000 C 
ATOM     36  O   UNL     1      -6.323   8.449  11.847  0.00  0.00    +0.000 OA
BRANCH  35  37
ATOM     37  O   UNL     1      -4.857   8.722  10.158  0.00  0.00    +0.000 OA
ATOM     38  H   UNL     1      -4.296   7.927  10.230  0.00  0.00    +0.000 HD
ENDBRANCH  35  37
ENDBRANCH  34  35
ENDBRANCH  31  34
ENDBRANCH  30  31
ENDBRANCH  27  30
ENDBRANCH  26  27
ENDBRANCH  14  25
TORSDOF 11
ENDMDL
MODEL 3
REMARK VINA RESULT:      -6.0      1.117      1.744
REMARK  Name = 
REMARK  15 active torsions:
REMARK  status: ('A' for Active; 'I' for Inactive)
REMARK    1  A    between atoms: C_1  and  C_2
REMARK    2  A    between atoms: C_2  and  C_3
REMARK    3  A    between atoms: C_2  and  C_4
REMARK    4  A    between atoms: N_7  and  C_8
REMARK    5  A    between atoms: N_12  and  C_13
REMARK    6  A    between atoms: C_16  and  C_17
REMARK    7  A    between atoms: C_24  and  C_25
REMARK    8  A    between atoms: C_26  and  C_27
REMARK    9  A    between atoms: C_27  and  O_28
REMARK   10  A    between atoms: C_27  and  C_29
REMARK   11  A    between atoms: C_29  and  C_30
REMARK   12  A    between atoms: C_30  and  O_31
REMARK   13  A    between atoms: C_30  and  C_32
REMARK   14  A    between atoms: C_32  and  C_33
REMARK   15  A    between atoms: C_33  and  O_35
REMARK                            x       y       z     vdW  Elec       q    Type
REMARK                         _______ _______ _______ _____ _____    ______ ____
ROOT
ATOM      1  C   UNL     1      -4.866  14.732  21.442  0.00  0.00    +0.000 A 
ATOM      2  N   UNL     1      -4.399  15.787  22.164  0.00  0.00    +0.000 NA
ATOM      3  C   UNL     1      -3.237  15.692  22.819  0.00  0.00    +0.000 A 
ATOM      4  N   UNL     1      -2.794  16.760  23.615  0.00  0.00    +0.000 N 
ATOM      5  C   UNL     1      -3.278  18.072  23.196  0.00  0.00    +0.000 C 
ATOM      6  C   UNL     1      -1.998  16.706  24.724  0.00  0.00    +0.000 A 
ATOM      7  C   UNL     1      -1.460  15.523  25.307  0.00  0.00    +0.000 A 
ATOM      8  C   UNL     1      -0.785  15.922  26.435  0.00  0.00    +0.000 A 
ATOM      9  N   UNL     1      -0.949  17.268  26.491  0.00  0.00    +0.000 N 
ATOM     10  C   UNL     1      -0.496  18.147  27.541  0.00  0.00    +0.000 C 
ATOM     11  N   UNL     1      -1.653  17.771  25.468  0.00  0.00    +0.000 NA
ATOM     12  N   UNL     1      -2.506  14.576  22.749  0.00  0.00    +0.000 NA
ATOM     13  C   UNL     1      -2.931  13.519  22.012  0.00  0.00    +0.000 A 
ATOM     14  C   UNL     1      -4.143  13.549  21.310  0.00  0.00    +0.000 A 
ENDROOT
BRANCH  13  15
ATOM     15  C   UNL     1      -1.961  12.380  22.090  0.00  0.00    +0.000 A 
ATOM     16  C   UNL     1      -1.966  11.416  23.116  0.00  0.00    +0.000 A 
ATOM     17  C   UNL     1      -1.010  10.393  23.171  0.00  0.00    +0.000 A 
ATOM     18  C   UNL     1      -0.006  10.336  22.217  0.00  0.00    +0.000 A 
ATOM     19  F   UNL     1       0.925   9.376  22.290  0.00  0.00    +0.000 F 
ATOM     20  C   UNL     1       0.054  11.276  21.202  0.00  0.00    +0.000 A 
ATOM     21  C   UNL     1      -0.918  12.280  21.138  0.00  0.00    +0.000 A 
ENDBRANCH  13  15
BRANCH   1  23
ATOM     22  C   UNL     1      -7.334  14.551  21.862  0.00  0.00    +0.000 C 
ATOM     23  C   UNL     1      -6.250  14.965  20.853  0.00  0.00    +0.000 C 
ATOM     24  C   UNL     1      -6.440  16.436  20.460  0.00  0.00    +0.000 C 
ENDBRANCH   1  23
BRANCH  14  25
ATOM     25  C   UNL     1      -4.595  12.408  20.498  0.00  0.00    +0.000 C 
ATOM     26  C   UNL     1      -5.093  12.554  19.259  0.00  0.00    +0.000 C 
BRANCH  26  27
ATOM     27  C   UNL     1      -5.198  11.409  18.282  0.00  0.00    +0.000 C 
BRANCH  27  28
ATOM     28  O   UNL     1      -6.454  11.488  17.617  0.00  0.00    +0.000 OA
ATOM     29  H   UNL     1      -6.417  12.256  17.024  0.00  0.00    +0.000 HD
ENDBRANCH  27  28
BRANCH  27  30
ATOM     30  C   UNL     1      -4.087  11.389  17.223  0.00  0.00    +0.000 C 
BRANCH  30  31
ATOM     31  C   UNL     1      -3.218  10.120  17.234  0.00  0.00    +0.000 C 
BRANCH  31  32
ATOM     32  O   UNL     1      -2.506  10.022  15.996  0.00  0.00    +0.000 OA
ATOM     33  H   UNL     1      -1.690   9.512  16.138  0.00  0.00    +0.000 HD
ENDBRANCH  31  32
BRANCH  31  34
ATOM     34  C   UNL     1      -2.194  10.104  18.372  0.00  0.00    +0.000 C 
BRANCH  34  35
ATOM     35  C   UNL     1      -0.802  10.423  17.890  0.00  0.00    +0.000 C 
ATOM     36  O   UNL     1       0.068   9.593  17.681  0.00  0.00    +0.000 OA
BRANCH  35  37
ATOM     37  O   UNL     1      -0.599  11.745  17.694  0.00  0.00    +0.000 OA
ATOM     38  H   UNL     1       0.136  12.128  18.209  0.00  0.00    +0.000 HD
ENDBRANCH  35  37
ENDBRANCH  34  35
ENDBRANCH  31  34
ENDBRANCH  30  31
ENDBRANCH  27  30
ENDBRANCH  26  27
ENDBRANCH  14  25
TORSDOF 11
ENDMDL
MODEL 4
REMARK VINA RESULT:      -6.0      4.402      6.375
REMARK  Name = 
REMARK  15 active torsions:
REMARK  status: ('A' for Active; 'I' for Inactive)
REMARK    1  A    between atoms: C_1  and  C_2
REMARK    2  A    between atoms: C_2  and  C_3
REMARK    3  A    between atoms: C_2  and  C_4
REMARK    4  A    between atoms: N_7  and  C_8
REMARK    5  A    between atoms: N_12  and  C_13
REMARK    6  A    between atoms: C_16  and  C_17
REMARK    7  A    between atoms: C_24  and  C_25
REMARK    8  A    between atoms: C_26  and  C_27
REMARK    9  A    between atoms: C_27  and  O_28
REMARK   10  A    between atoms: C_27  and  C_29
REMARK   11  A    between atoms: C_29  and  C_30
REMARK   12  A    between atoms: C_30  and  O_31
REMARK   13  A    between atoms: C_30  and  C_32
REMARK   14  A    between atoms: C_32  and  C_33
REMARK   15  A    between atoms: C_33  and  O_35
REMARK                            x       y       z     vdW  Elec       q    Type
REMARK                         _______ _______ _______ _____ _____    ______ ____
ROOT
ATOM      1  C   UNL     1      -2.366  11.117  18.552  0.00  0.00    +0.000 A 
ATOM      2  N   UNL     1      -3.354  11.864  19.114  0.00  0.00    +0.000 NA
ATOM      3  C   UNL     1      -3.049  12.956  19.826  0.00  0.00    +0.000 A 
ATOM      4  N   UNL     1      -4.069  13.684  20.457  0.00  0.00    +0.000 N 
ATOM      5  C   UNL     1      -5.375  13.589  19.812  0.00  0.00    +0.000 C 
ATOM      6  C   UNL     1      -3.981  14.438  21.594  0.00  0.00    +0.000 A 
ATOM      7  C   UNL     1      -2.810  14.622  22.383  0.00  0.00    +0.000 A 
ATOM      8  C   UNL     1      -3.187  15.388  23.460  0.00  0.00    +0.000 A 
ATOM      9  N   UNL     1      -4.516  15.610  23.291  0.00  0.00    +0.000 N 
ATOM     10  C   UNL     1      -5.396  16.297  24.204  0.00  0.00    +0.000 C 
ATOM     11  N   UNL     1      -5.017  15.072  22.170  0.00  0.00    +0.000 NA
ATOM     12  N   UNL     1      -1.779  13.342  19.968  0.00  0.00    +0.000 NA
ATOM     13  C   UNL     1      -0.774  12.633  19.394  0.00  0.00    +0.000 A 
ATOM     14  C   UNL     1      -1.024  11.476  18.644  0.00  0.00    +0.000 A 
ENDROOT
BRANCH  13  15
ATOM     15  C   UNL     1       0.560  13.242  19.696  0.00  0.00    +0.000 A 
ATOM     16  C   UNL     1       1.350  12.888  20.806  0.00  0.00    +0.000 A 
ATOM     17  C   UNL     1       2.573  13.518  21.072  0.00  0.00    +0.000 A 
ATOM     18  C   UNL     1       3.013  14.544  20.250  0.00  0.00    +0.000 A 
ATOM     19  F   UNL     1       4.166  15.166  20.526  0.00  0.00    +0.000 F 
ATOM     20  C   UNL     1       2.259  14.944  19.160  0.00  0.00    +0.000 A 
ATOM     21  C   UNL     1       1.051  14.294  18.885  0.00  0.00    +0.000 A 
ENDBRANCH  13  15
BRANCH   1  23
ATOM     22  C   UNL     1      -4.382   9.687  18.116  0.00  0.00    +0.000 C 
ATOM     23  C   UNL     1      -2.873   9.852  17.875  0.00  0.00    +0.000 C 
ATOM     24  C   UNL     1      -2.588   9.884  16.367  0.00  0.00    +0.000 C 
ENDBRANCH   1  23
BRANCH  14  25
ATOM     25  C   UNL     1       0.065  10.717  18.008  0.00  0.00    +0.000 C 
ATOM     26  C   UNL     1       0.775   9.784  18.663  0.00  0.00    +0.000 C 
BRANCH  26  27
ATOM     27  C   UNL     1       1.609   8.746  17.952  0.00  0.00    +0.000 C 
BRANCH  27  28
ATOM     28  O   UNL     1       2.586   9.410  17.158  0.00  0.00    +0.000 OA
ATOM     29  H   UNL     1       2.357   9.251  16.227  0.00  0.00    +0.000 HD
ENDBRANCH  27  28
BRANCH  27  30
ATOM     30  C   UNL     1       2.329   7.771  18.895  0.00  0.00    +0.000 C 
BRANCH  30  31
ATOM     31  C   UNL     1       2.904   6.524  18.204  0.00  0.00    +0.000 C 
BRANCH  31  32
ATOM     32  O   UNL     1       4.070   6.889  17.459  0.00  0.00    +0.000 OA
ATOM     33  H   UNL     1       3.819   7.053  16.534  0.00  0.00    +0.000 HD
ENDBRANCH  31  32
BRANCH  31  34
ATOM     34  C   UNL     1       3.298   5.420  19.189  0.00  0.00    +0.000 C 
BRANCH  34  35
ATOM     35  C   UNL     1       4.729   4.982  19.009  0.00  0.00    +0.000 C 
ATOM     36  O   UNL     1       5.680   5.451  19.613  0.00  0.00    +0.000 OA
BRANCH  35  37
ATOM     37  O   UNL     1       4.870   3.988  18.104  0.00  0.00    +0.000 OA
ATOM     38  H   UNL     1       4.400   4.131  17.261  0.00  0.00    +0.000 HD
ENDBRANCH  35  37
ENDBRANCH  34  35
ENDBRANCH  31  34
ENDBRANCH  30  31
ENDBRANCH  27  30
ENDBRANCH  26  27
ENDBRANCH  14  25
TORSDOF 11
ENDMDL
MODEL 5
REMARK VINA RESULT:      -6.0      4.322      5.522
REMARK  Name = 
REMARK  15 active torsions:
REMARK  status: ('A' for Active; 'I' for Inactive)
REMARK    1  A    between atoms: C_1  and  C_2
REMARK    2  A    between atoms: C_2  and  C_3
REMARK    3  A    between atoms: C_2  and  C_4
REMARK    4  A    between atoms: N_7  and  C_8
REMARK    5  A    between atoms: N_12  and  C_13
REMARK    6  A    between atoms: C_16  and  C_17
REMARK    7  A    between atoms: C_24  and  C_25
REMARK    8  A    between atoms: C_26  and  C_27
REMARK    9  A    between atoms: C_27  and  O_28
REMARK   10  A    between atoms: C_27  and  C_29
REMARK   11  A    between atoms: C_29  and  C_30
REMARK   12  A    between atoms: C_30  and  O_31
REMARK   13  A    between atoms: C_30  and  C_32
REMARK   14  A    between atoms: C_32  and  C_33
REMARK   15  A    between atoms: C_33  and  O_35
REMARK                            x       y       z     vdW  Elec       q    Type
REMARK                         _______ _______ _______ _____ _____    ______ ____
ROOT
ATOM      1  C   UNL     1       0.016  15.075  19.461  0.00  0.00    +0.000 A 
ATOM      2  N   UNL     1       1.230  15.654  19.662  0.00  0.00    +0.000 NA
ATOM      3  C   UNL     1       2.283  14.905  20.011  0.00  0.00    +0.000 A 
ATOM      4  N   UNL     1       3.516  15.518  20.282  0.00  0.00    +0.000 N 
ATOM      5  C   UNL     1       3.733  16.784  19.587  0.00  0.00    +0.000 C 
ATOM      6  C   UNL     1       4.503  15.082  21.120  0.00  0.00    +0.000 A 
ATOM      7  C   UNL     1       4.463  13.898  21.910  0.00  0.00    +0.000 A 
ATOM      8  C   UNL     1       5.623  13.886  22.647  0.00  0.00    +0.000 A 
ATOM      9  N   UNL     1       6.279  15.022  22.297  0.00  0.00    +0.000 N 
ATOM     10  C   UNL     1       7.514  15.510  22.860  0.00  0.00    +0.000 C 
ATOM     11  N   UNL     1       5.644  15.750  21.368  0.00  0.00    +0.000 NA
ATOM     12  N   UNL     1       2.165  13.581  20.135  0.00  0.00    +0.000 NA
ATOM     13  C   UNL     1       0.973  12.972  19.911  0.00  0.00    +0.000 A 
ATOM     14  C   UNL     1      -0.170  13.697  19.552  0.00  0.00    +0.000 A 
ENDROOT
BRANCH  13  15
ATOM     15  C   UNL     1       1.074  11.492  20.121  0.00  0.00    +0.000 A 
ATOM     16  C   UNL     1       1.288  10.567  19.082  0.00  0.00    +0.000 A 
ATOM     17  C   UNL     1       1.332   9.187  19.321  0.00  0.00    +0.000 A 
ATOM     18  C   UNL     1       1.124   8.702  20.603  0.00  0.00    +0.000 A 
ATOM     19  F   UNL     1       1.133   7.381  20.823  0.00  0.00    +0.000 F 
ATOM     20  C   UNL     1       0.884   9.573  21.653  0.00  0.00    +0.000 A 
ATOM     21  C   UNL     1       0.868  10.951  21.413  0.00  0.00    +0.000 A 
ENDBRANCH  13  15
BRANCH   1  23
ATOM     22  C   UNL     1      -1.598  16.694  20.496  0.00  0.00    +0.000 C 
ATOM     23  C   UNL     1      -1.095  16.076  19.181  0.00  0.00    +0.000 C 
ATOM     24  C   UNL     1      -0.612  17.185  18.238  0.00  0.00    +0.000 C 
ENDBRANCH   1  23
BRANCH  14  25
ATOM     25  C   UNL     1      -1.458  13.034  19.293  0.00  0.00    +0.000 C 
ATOM     26  C   UNL     1      -2.325  12.728  20.273  0.00  0.00    +0.000 C 
BRANCH  26  27
ATOM     27  C   UNL     1      -3.777  12.413  20.008  0.00  0.00    +0.000 C 
BRANCH  27  28
ATOM     28  O   UNL     1      -4.582  13.410  20.627  0.00  0.00    +0.000 OA
ATOM     29  H   UNL     1      -4.497  13.293  21.588  0.00  0.00    +0.000 HD
ENDBRANCH  27  28
BRANCH  27  30
ATOM     30  C   UNL     1      -4.139  12.351  18.517  0.00  0.00    +0.000 C 
BRANCH  30  31
ATOM     31  C   UNL     1      -4.684  10.991  18.049  0.00  0.00    +0.000 C 
BRANCH  31  32
ATOM     32  O   UNL     1      -5.548  11.188  16.925  0.00  0.00    +0.000 OA
ATOM     33  H   UNL     1      -6.031  10.363  16.747  0.00  0.00    +0.000 HD
ENDBRANCH  31  32
BRANCH  31  34
ATOM     34  C   UNL     1      -3.581  10.014  17.633  0.00  0.00    +0.000 C 
BRANCH  34  35
ATOM     35  C   UNL     1      -2.692  10.583  16.558  0.00  0.00    +0.000 C 
ATOM     36  O   UNL     1      -3.082  10.993  15.477  0.00  0.00    +0.000 OA
BRANCH  35  37
ATOM     37  O   UNL     1      -1.386  10.610  16.910  0.00  0.00    +0.000 OA
ATOM     38  H   UNL     1      -1.170  11.224  17.637  0.00  0.00    +0.000 HD
ENDBRANCH  35  37
ENDBRANCH  34  35
ENDBRANCH  31  34
ENDBRANCH  30  31
ENDBRANCH  27  30
ENDBRANCH  26  27
ENDBRANCH  14  25
TORSDOF 11
ENDMDL
MODEL 6
REMARK VINA RESULT:      -5.9      4.470      6.008
REMARK  Name = 
REMARK  15 active torsions:
REMARK  status: ('A' for Active; 'I' for Inactive)
REMARK    1  A    between atoms: C_1  and  C_2
REMARK    2  A    between atoms: C_2  and  C_3
REMARK    3  A    between atoms: C_2  and  C_4
REMARK    4  A    between atoms: N_7  and  C_8
REMARK    5  A    between atoms: N_12  and  C_13
REMARK    6  A    between atoms: C_16  and  C_17
REMARK    7  A    between atoms: C_24  and  C_25
REMARK    8  A    between atoms: C_26  and  C_27
REMARK    9  A    between atoms: C_27  and  O_28
REMARK   10  A    between atoms: C_27  and  C_29
REMARK   11  A    between atoms: C_29  and  C_30
REMARK   12  A    between atoms: C_30  and  O_31
REMARK   13  A    between atoms: C_30  and  C_32
REMARK   14  A    between atoms: C_32  and  C_33
REMARK   15  A    between atoms: C_33  and  O_35
REMARK                            x       y       z     vdW  Elec       q    Type
REMARK                         _______ _______ _______ _____ _____    ______ ____
ROOT
ATOM      1  C   UNL     1       0.076  15.096  19.359  0.00  0.00    +0.000 A 
ATOM      2  N   UNL     1       1.299  15.660  19.553  0.00  0.00    +0.000 NA
ATOM      3  C   UNL     1       2.338  14.901  19.921  0.00  0.00    +0.000 A 
ATOM      4  N   UNL     1       3.581  15.500  20.184  0.00  0.00    +0.000 N 
ATOM      5  C   UNL     1       3.820  16.747  19.464  0.00  0.00    +0.000 C 
ATOM      6  C   UNL     1       4.558  15.065  21.034  0.00  0.00    +0.000 A 
ATOM      7  C   UNL     1       4.496  13.898  21.848  0.00  0.00    +0.000 A 
ATOM      8  C   UNL     1       5.653  13.882  22.589  0.00  0.00    +0.000 A 
ATOM      9  N   UNL     1       6.328  15.000  22.218  0.00  0.00    +0.000 N 
ATOM     10  C   UNL     1       7.569  15.480  22.775  0.00  0.00    +0.000 C 
ATOM     11  N   UNL     1       5.708  15.720  21.272  0.00  0.00    +0.000 NA
ATOM     12  N   UNL     1       2.198  13.582  20.071  0.00  0.00    +0.000 NA
ATOM     13  C   UNL     1       0.997  12.987  19.856  0.00  0.00    +0.000 A 
ATOM     14  C   UNL     1      -0.132  13.724  19.478  0.00  0.00    +0.000 A 
ENDROOT
BRANCH  13  15
ATOM     15  C   UNL     1       1.074  11.511  20.095  0.00  0.00    +0.000 A 
ATOM     16  C   UNL     1       1.278  10.562  19.077  0.00  0.00    +0.000 A 
ATOM     17  C   UNL     1       1.298   9.186  19.343  0.00  0.00    +0.000 A 
ATOM     18  C   UNL     1       1.077   8.731  20.634  0.00  0.00    +0.000 A 
ATOM     19  F   UNL     1       1.064   7.415  20.881  0.00  0.00    +0.000 F 
ATOM     20  C   UNL     1       0.848   9.626  21.665  0.00  0.00    +0.000 A 
ATOM     21  C   UNL     1       0.855  10.999  21.397  0.00  0.00    +0.000 A 
ENDBRANCH  13  15
BRANCH   1  23
ATOM     22  C   UNL     1      -1.500  16.777  20.354  0.00  0.00    +0.000 C 
ATOM     23  C   UNL     1      -1.018  16.109  19.056  0.00  0.00    +0.000 C 
ATOM     24  C   UNL     1      -0.520  17.179  18.075  0.00  0.00    +0.000 C 
ENDBRANCH   1  23
BRANCH  14  25
ATOM     25  C   UNL     1      -1.430  13.076  19.228  0.00  0.00    +0.000 C 
ATOM     26  C   UNL     1      -2.315  12.826  20.207  0.00  0.00    +0.000 C 
BRANCH  26  27
ATOM     27  C   UNL     1      -3.769  12.529  19.936  0.00  0.00    +0.000 C 
BRANCH  27  28
ATOM     28  O   UNL     1      -4.481  13.759  19.858  0.00  0.00    +0.000 OA
ATOM     29  H   UNL     1      -5.363  13.605  20.236  0.00  0.00    +0.000 HD
ENDBRANCH  27  28
BRANCH  27  30
ATOM     30  C   UNL     1      -4.013  11.743  18.639  0.00  0.00    +0.000 C 
BRANCH  30  31
ATOM     31  C   UNL     1      -5.481  11.709  18.181  0.00  0.00    +0.000 C 
BRANCH  31  32
ATOM     32  O   UNL     1      -5.531  11.548  16.759  0.00  0.00    +0.000 OA
ATOM     33  H   UNL     1      -4.646  11.708  16.390  0.00  0.00    +0.000 HD
ENDBRANCH  31  32
BRANCH  31  34
ATOM     34  C   UNL     1      -6.281  10.568  18.815  0.00  0.00    +0.000 C 
BRANCH  34  35
ATOM     35  C   UNL     1      -7.044  11.017  20.035  0.00  0.00    +0.000 C 
ATOM     36  O   UNL     1      -7.417  10.278  20.931  0.00  0.00    +0.000 OA
BRANCH  35  37
ATOM     37  O   UNL     1      -7.277  12.348  20.055  0.00  0.00    +0.000 OA
ATOM     38  H   UNL     1      -8.192  12.601  20.281  0.00  0.00    +0.000 HD
ENDBRANCH  35  37
ENDBRANCH  34  35
ENDBRANCH  31  34
ENDBRANCH  30  31
ENDBRANCH  27  30
ENDBRANCH  26  27
ENDBRANCH  14  25
TORSDOF 11
ENDMDL
MODEL 7
REMARK VINA RESULT:      -5.9      4.457      6.881
REMARK  Name = 
REMARK  15 active torsions:
REMARK  status: ('A' for Active; 'I' for Inactive)
REMARK    1  A    between atoms: C_1  and  C_2
REMARK    2  A    between atoms: C_2  and  C_3
REMARK    3  A    between atoms: C_2  and  C_4
REMARK    4  A    between atoms: N_7  and  C_8
REMARK    5  A    between atoms: N_12  and  C_13
REMARK    6  A    between atoms: C_16  and  C_17
REMARK    7  A    between atoms: C_24  and  C_25
REMARK    8  A    between atoms: C_26  and  C_27
REMARK    9  A    between atoms: C_27  and  O_28
REMARK   10  A    between atoms: C_27  and  C_29
REMARK   11  A    between atoms: C_29  and  C_30
REMARK   12  A    between atoms: C_30  and  O_31
REMARK   13  A    between atoms: C_30  and  C_32
REMARK   14  A    between atoms: C_32  and  C_33
REMARK   15  A    between atoms: C_33  and  O_35
REMARK                            x       y       z     vdW  Elec       q    Type
REMARK                         _______ _______ _______ _____ _____    ______ ____
ROOT
ATOM      1  C   UNL     1      -0.117  15.466  21.390  0.00  0.00    +0.000 A 
ATOM      2  N   UNL     1      -1.238  15.810  22.081  0.00  0.00    +0.000 NA
ATOM      3  C   UNL     1      -2.047  14.860  22.565  0.00  0.00    +0.000 A 
ATOM      4  N   UNL     1      -3.235  15.223  23.218  0.00  0.00    +0.000 N 
ATOM      5  C   UNL     1      -3.202  16.534  23.859  0.00  0.00    +0.000 C 
ATOM      6  C   UNL     1      -4.398  14.510  23.302  0.00  0.00    +0.000 A 
ATOM      7  C   UNL     1      -4.637  13.235  22.714  0.00  0.00    +0.000 A 
ATOM      8  C   UNL     1      -5.948  12.925  22.986  0.00  0.00    +0.000 A 
ATOM      9  N   UNL     1      -6.428  13.987  23.683  0.00  0.00    +0.000 N 
ATOM     10  C   UNL     1      -7.786  14.181  24.129  0.00  0.00    +0.000 C 
ATOM     11  N   UNL     1      -5.517  14.944  23.907  0.00  0.00    +0.000 NA
ATOM     12  N   UNL     1      -1.751  13.568  22.405  0.00  0.00    +0.000 NA
ATOM     13  C   UNL     1      -0.625  13.195  21.746  0.00  0.00    +0.000 A 
ATOM     14  C   UNL     1       0.260  14.137  21.207  0.00  0.00    +0.000 A 
ENDROOT
BRANCH  13  15
ATOM     15  C   UNL     1      -0.507  11.703  21.678  0.00  0.00    +0.000 A 
ATOM     16  C   UNL     1      -0.379  10.982  20.476  0.00  0.00    +0.000 A 
ATOM     17  C   UNL     1      -0.316   9.582  20.459  0.00  0.00    +0.000 A 
ATOM     18  C   UNL     1      -0.416   8.874  21.646  0.00  0.00    +0.000 A 
ATOM     19  F   UNL     1      -0.389   7.535  21.624  0.00  0.00    +0.000 F 
ATOM     20  C   UNL     1      -0.568   9.538  22.851  0.00  0.00    +0.000 A 
ATOM     21  C   UNL     1      -0.604  10.937  22.864  0.00  0.00    +0.000 A 
ENDBRANCH  13  15
BRANCH   1  23
ATOM     22  C   UNL     1      -0.345  17.595  20.082  0.00  0.00    +0.000 C 
ATOM     23  C   UNL     1       0.630  16.659  20.813  0.00  0.00    +0.000 C 
ATOM     24  C   UNL     1       1.365  17.433  21.915  0.00  0.00    +0.000 C 
ENDBRANCH   1  23
BRANCH  14  25
ATOM     25  C   UNL     1       1.490  13.732  20.507  0.00  0.00    +0.000 C 
ATOM     26  C   UNL     1       1.513  13.435  19.198  0.00  0.00    +0.000 C 
BRANCH  26  27
ATOM     27  C   UNL     1       2.789  13.397  18.393  0.00  0.00    +0.000 C 
BRANCH  27  28
ATOM     28  O   UNL     1       2.576  12.597  17.235  0.00  0.00    +0.000 OA
ATOM     29  H   UNL     1       3.377  12.662  16.689  0.00  0.00    +0.000 HD
ENDBRANCH  27  28
BRANCH  27  30
ATOM     30  C   UNL     1       3.284  14.779  17.944  0.00  0.00    +0.000 C 
BRANCH  30  31
ATOM     31  C   UNL     1       4.541  15.275  18.679  0.00  0.00    +0.000 C 
BRANCH  31  32
ATOM     32  O   UNL     1       5.675  15.154  17.815  0.00  0.00    +0.000 OA
ATOM     33  H   UNL     1       5.694  14.258  17.438  0.00  0.00    +0.000 HD
ENDBRANCH  31  32
BRANCH  31  34
ATOM     34  C   UNL     1       4.439  16.737  19.124  0.00  0.00    +0.000 C 
BRANCH  34  35
ATOM     35  C   UNL     1       5.766  17.288  19.577  0.00  0.00    +0.000 C 
ATOM     36  O   UNL     1       6.655  17.662  18.830  0.00  0.00    +0.000 OA
BRANCH  35  37
ATOM     37  O   UNL     1       5.885  17.343  20.923  0.00  0.00    +0.000 OA
ATOM     38  H   UNL     1       5.800  18.236  21.306  0.00  0.00    +0.000 HD
ENDBRANCH  35  37
ENDBRANCH  34  35
ENDBRANCH  31  34
ENDBRANCH  30  31
ENDBRANCH  27  30
ENDBRANCH  26  27
ENDBRANCH  14  25
TORSDOF 11
ENDMDL
MODEL 8
REMARK VINA RESULT:      -5.9      4.337      5.969
REMARK  Name = 
REMARK  15 active torsions:
REMARK  status: ('A' for Active; 'I' for Inactive)
REMARK    1  A    between atoms: C_1  and  C_2
REMARK    2  A    between atoms: C_2  and  C_3
REMARK    3  A    between atoms: C_2  and  C_4
REMARK    4  A    between atoms: N_7  and  C_8
REMARK    5  A    between atoms: N_12  and  C_13
REMARK    6  A    between atoms: C_16  and  C_17
REMARK    7  A    between atoms: C_24  and  C_25
REMARK    8  A    between atoms: C_26  and  C_27
REMARK    9  A    between atoms: C_27  and  O_28
REMARK   10  A    between atoms: C_27  and  C_29
REMARK   11  A    between atoms: C_29  and  C_30
REMARK   12  A    between atoms: C_30  and  O_31
REMARK   13  A    between atoms: C_30  and  C_32
REMARK   14  A    between atoms: C_32  and  C_33
REMARK   15  A    between atoms: C_33  and  O_35
REMARK                            x       y       z     vdW  Elec       q    Type
REMARK                         _______ _______ _______ _____ _____    ______ ____
ROOT
ATOM      1  C   UNL     1      -1.550  15.478  20.127  0.00  0.00    +0.000 A 
ATOM      2  N   UNL     1      -0.515  16.232  19.670  0.00  0.00    +0.000 NA
ATOM      3  C   UNL     1       0.650  15.655  19.355  0.00  0.00    +0.000 A 
ATOM      4  N   UNL     1       1.735  16.448  18.947  0.00  0.00    +0.000 N 
ATOM      5  C   UNL     1       1.362  17.708  18.311  0.00  0.00    +0.000 C 
ATOM      6  C   UNL     1       3.067  16.185  19.095  0.00  0.00    +0.000 A 
ATOM      7  C   UNL     1       3.626  15.035  19.719  0.00  0.00    +0.000 A 
ATOM      8  C   UNL     1       4.989  15.214  19.711  0.00  0.00    +0.000 A 
ATOM      9  N   UNL     1       5.185  16.421  19.121  0.00  0.00    +0.000 N 
ATOM     10  C   UNL     1       6.446  17.100  18.950  0.00  0.00    +0.000 C 
ATOM     11  N   UNL     1       4.054  17.019  18.721  0.00  0.00    +0.000 NA
ATOM     12  N   UNL     1       0.803  14.332  19.455  0.00  0.00    +0.000 NA
ATOM     13  C   UNL     1      -0.222  13.550  19.880  0.00  0.00    +0.000 A 
ATOM     14  C   UNL     1      -1.464  14.092  20.234  0.00  0.00    +0.000 A 
ENDROOT
BRANCH  13  15
ATOM     15  C   UNL     1       0.180  12.108  19.926  0.00  0.00    +0.000 A 
ATOM     16  C   UNL     1       0.510  11.424  21.111  0.00  0.00    +0.000 A 
ATOM     17  C   UNL     1       0.923  10.085  21.099  0.00  0.00    +0.000 A 
ATOM     18  C   UNL     1       1.051   9.414  19.893  0.00  0.00    +0.000 A 
ATOM     19  F   UNL     1       1.478   8.145  19.882  0.00  0.00    +0.000 F 
ATOM     20  C   UNL     1       0.761  10.053  18.699  0.00  0.00    +0.000 A 
ATOM     21  C   UNL     1       0.324  11.381  18.719  0.00  0.00    +0.000 A 
ENDBRANCH  13  15
BRANCH   1  23
ATOM     22  C   UNL     1      -2.624  16.743  22.010  0.00  0.00    +0.000 C 
ATOM     23  C   UNL     1      -2.762  16.299  20.544  0.00  0.00    +0.000 C 
ATOM     24  C   UNL     1      -2.930  17.529  19.642  0.00  0.00    +0.000 C 
ENDBRANCH   1  23
BRANCH  14  25
ATOM     25  C   UNL     1      -2.581  13.241  20.679  0.00  0.00    +0.000 C 
ATOM     26  C   UNL     1      -2.869  13.047  21.976  0.00  0.00    +0.000 C 
BRANCH  26  27
ATOM     27  C   UNL     1      -4.202  12.514  22.443  0.00  0.00    +0.000 C 
BRANCH  27  28
ATOM     28  O   UNL     1      -4.146  12.313  23.851  0.00  0.00    +0.000 OA
ATOM     29  H   UNL     1      -4.613  13.057  24.266  0.00  0.00    +0.000 HD
ENDBRANCH  27  28
BRANCH  27  30
ATOM     30  C   UNL     1      -5.387  13.438  22.130  0.00  0.00    +0.000 C 
BRANCH  30  31
ATOM     31  C   UNL     1      -6.547  12.757  21.384  0.00  0.00    +0.000 C 
BRANCH  31  32
ATOM     32  O   UNL     1      -7.611  13.697  21.203  0.00  0.00    +0.000 OA
ATOM     33  H   UNL     1      -7.900  13.676  20.275  0.00  0.00    +0.000 HD
ENDBRANCH  31  32
BRANCH  31  34
ATOM     34  C   UNL     1      -6.145  12.228  20.005  0.00  0.00    +0.000 C 
BRANCH  34  35
ATOM     35  C   UNL     1      -6.804  10.911  19.686  0.00  0.00    +0.000 C 
ATOM     36  O   UNL     1      -6.403  10.117  18.850  0.00  0.00    +0.000 OA
BRANCH  35  37
ATOM     37  O   UNL     1      -7.904  10.673  20.435  0.00  0.00    +0.000 OA
ATOM     38  H   UNL     1      -7.816  10.907  21.378  0.00  0.00    +0.000 HD
ENDBRANCH  35  37
ENDBRANCH  34  35
ENDBRANCH  31  34
ENDBRANCH  30  31
ENDBRANCH  27  30
ENDBRANCH  26  27
ENDBRANCH  14  25
TORSDOF 11
ENDMDL
MODEL 9
REMARK VINA RESULT:      -5.8      4.403      6.126
REMARK  Name = 
REMARK  15 active torsions:
REMARK  status: ('A' for Active; 'I' for Inactive)
REMARK    1  A    between atoms: C_1  and  C_2
REMARK    2  A    between atoms: C_2  and  C_3
REMARK    3  A    between atoms: C_2  and  C_4
REMARK    4  A    between atoms: N_7  and  C_8
REMARK    5  A    between atoms: N_12  and  C_13
REMARK    6  A    between atoms: C_16  and  C_17
REMARK    7  A    between atoms: C_24  and  C_25
REMARK    8  A    between atoms: C_26  and  C_27
REMARK    9  A    between atoms: C_27  and  O_28
REMARK   10  A    between atoms: C_27  and  C_29
REMARK   11  A    between atoms: C_29  and  C_30
REMARK   12  A    between atoms: C_30  and  O_31
REMARK   13  A    between atoms: C_30  and  C_32
REMARK   14  A    between atoms: C_32  and  C_33
REMARK   15  A    between atoms: C_33  and  O_35
REMARK                            x       y       z     vdW  Elec       q    Type
REMARK                         _______ _______ _______ _____ _____    ______ ____
ROOT
ATOM      1  C   UNL     1      -0.281  15.495  19.636  0.00  0.00    +0.000 A 
ATOM      2  N   UNL     1       1.011  15.919  19.679  0.00  0.00    +0.000 NA
ATOM      3  C   UNL     1       1.987  15.066  20.014  0.00  0.00    +0.000 A 
ATOM      4  N   UNL     1       3.309  15.526  20.120  0.00  0.00    +0.000 N 
ATOM      5  C   UNL     1       3.620  16.684  19.287  0.00  0.00    +0.000 C 
ATOM      6  C   UNL     1       4.306  15.034  20.914  0.00  0.00    +0.000 A 
ATOM      7  C   UNL     1       4.189  13.941  21.819  0.00  0.00    +0.000 A 
ATOM      8  C   UNL     1       5.402  13.835  22.456  0.00  0.00    +0.000 A 
ATOM      9  N   UNL     1       6.162  14.836  21.943  0.00  0.00    +0.000 N 
ATOM     10  C   UNL     1       7.497  15.198  22.351  0.00  0.00    +0.000 C 
ATOM     11  N   UNL     1       5.541  15.559  21.000  0.00  0.00    +0.000 NA
ATOM     12  N   UNL     1       1.711  13.787  20.278  0.00  0.00    +0.000 NA
ATOM     13  C   UNL     1       0.435  13.329  20.214  0.00  0.00    +0.000 A 
ATOM     14  C   UNL     1      -0.633  14.170  19.880  0.00  0.00    +0.000 A 
ENDROOT
BRANCH  13  15
ATOM     15  C   UNL     1       0.364  11.873  20.562  0.00  0.00    +0.000 A 
ATOM     16  C   UNL     1      -0.063  11.386  21.811  0.00  0.00    +0.000 A 
ATOM     17  C   UNL     1      -0.071  10.016  22.105  0.00  0.00    +0.000 A 
ATOM     18  C   UNL     1       0.385   9.107  21.163  0.00  0.00    +0.000 A 
ATOM     19  F   UNL     1       0.408   7.801  21.459  0.00  0.00    +0.000 F 
ATOM     20  C   UNL     1       0.839   9.541  19.929  0.00  0.00    +0.000 A 
ATOM     21  C   UNL     1       0.820  10.908  19.632  0.00  0.00    +0.000 A 
ENDBRANCH  13  15
BRANCH   1  23
ATOM     22  C   UNL     1      -1.447  17.502  20.590  0.00  0.00    +0.000 C 
ATOM     23  C   UNL     1      -1.276  16.611  19.350  0.00  0.00    +0.000 C 
ATOM     24  C   UNL     1      -0.819  17.462  18.157  0.00  0.00    +0.000 C 
ENDBRANCH   1  23
BRANCH  14  25
ATOM     25  C   UNL     1      -2.015  13.669  19.794  0.00  0.00    +0.000 C 
ATOM     26  C   UNL     1      -2.889  13.779  20.808  0.00  0.00    +0.000 C 
BRANCH  26  27
ATOM     27  C   UNL     1      -4.378  13.632  20.620  0.00  0.00    +0.000 C 
BRANCH  27  28
ATOM     28  O   UNL     1      -4.622  13.032  19.352  0.00  0.00    +0.000 OA
ATOM     29  H   UNL     1      -5.315  13.555  18.915  0.00  0.00    +0.000 HD
ENDBRANCH  27  28
BRANCH  27  30
ATOM     30  C   UNL     1      -5.063  12.782  21.700  0.00  0.00    +0.000 C 
BRANCH  30  31
ATOM     31  C   UNL     1      -6.521  13.176  21.991  0.00  0.00    +0.000 C 
BRANCH  31  32
ATOM     32  O   UNL     1      -6.948  14.154  21.037  0.00  0.00    +0.000 OA
ATOM     33  H   UNL     1      -7.779  13.858  20.629  0.00  0.00    +0.000 HD
ENDBRANCH  31  32
BRANCH  31  34
ATOM     34  C   UNL     1      -7.488  11.991  21.919  0.00  0.00    +0.000 C 
BRANCH  34  35
ATOM     35  C   UNL     1      -7.398  11.262  20.603  0.00  0.00    +0.000 C 
ATOM     36  O   UNL     1      -7.474  11.794  19.508  0.00  0.00    +0.000 OA
BRANCH  35  37
ATOM     37  O   UNL     1      -7.210   9.931  20.746  0.00  0.00    +0.000 OA
ATOM     38  H   UNL     1      -7.457   9.396  19.969  0.00  0.00    +0.000 HD
ENDBRANCH  35  37
ENDBRANCH  34  35
ENDBRANCH  31  34
ENDBRANCH  30  31
ENDBRANCH  27  30
ENDBRANCH  26  27
ENDBRANCH  14  25
TORSDOF 11
ENDMDL
