MODEL 1
REMARK VINA RESULT:     -10.4      0.000      0.000
REMARK  Name = 
REMARK  4 active torsions:
REMARK  status: ('A' for Active; 'I' for Inactive)
REMARK    1  A    between atoms: C_1  and  C_2
REMARK    2  A    between atoms: C_14  and  C_15
REMARK    3  A    between atoms: C_16  and  C_17
REMARK    4  A    between atoms: C_22  and  C_23
REMARK                            x       y       z     vdW  Elec       q    Type
REMARK                         _______ _______ _______ _____ _____    ______ ____
ROOT
ATOM      1  C   UNL     1       2.181   5.920  18.421  0.00  0.00    +0.000 C 
ATOM      2  C   UNL     1       2.619   7.177  18.509  0.00  0.00    +0.000 C 
ENDROOT
BRANCH   1  16
ATOM      3  C   UNL     1       0.287   2.672  18.372  0.00  0.00    +0.000 C 
ATOM      4  C   UNL     1       1.380   3.302  19.224  0.00  0.00    +0.000 C 
ATOM      5  O   UNL     1       1.617   2.547  20.409  0.00  0.00    +0.000 OA
ATOM      6  C   UNL     1       2.932   2.694  20.747  0.00  0.00    +0.000 C 
ATOM      7  O   UNL     1       3.366   2.568  21.881  0.00  0.00    +0.000 OA
ATOM      8  C   UNL     1       3.747   2.883  19.495  0.00  0.00    +0.000 C 
ATOM      9  C   UNL     1       5.033   3.682  19.669  0.00  0.00    +0.000 C 
ATOM     10  C   UNL     1       5.502   4.317  18.351  0.00  0.00    +0.000 C 
ATOM     11  C   UNL     1       6.844   5.062  18.537  0.00  0.00    +0.000 C 
ATOM     12  C   UNL     1       7.241   5.947  17.345  0.00  0.00    +0.000 C 
ATOM     13  C   UNL     1       6.104   6.817  16.815  0.00  0.00    +0.000 C 
ATOM     14  C   UNL     1       4.852   5.986  16.576  0.00  0.00    +0.000 C 
ATOM     15  C   UNL     1       4.445   5.318  17.897  0.00  0.00    +0.000 C 
ATOM     16  C   UNL     1       3.000   4.793  17.844  0.00  0.00    +0.000 C 
ATOM     17  C   UNL     1       2.729   3.419  18.498  0.00  0.00    +0.000 C 
ENDBRANCH   1  16
BRANCH   2  18
ATOM     18  C   UNL     1       1.848   8.256  19.129  0.00  0.00    +0.000 A 
ATOM     19  C   UNL     1       1.487   9.348  18.359  0.00  0.00    +0.000 A 
ATOM     20  C   UNL     1       0.733  10.343  18.954  0.00  0.00    +0.000 A 
ATOM     21  C   UNL     1       0.372  10.226  20.297  0.00  0.00    +0.000 A 
ATOM     22  C   UNL     1      -0.411  11.210  20.909  0.00  0.00    +0.000 A 
ATOM     23  C   UNL     1      -0.767  11.112  22.264  0.00  0.00    +0.000 A 
ATOM     24  C   UNL     1      -0.315  10.000  22.978  0.00  0.00    +0.000 A 
ATOM     25  C   UNL     1       0.457   9.014  22.358  0.00  0.00    +0.000 A 
ATOM     26  C   UNL     1       0.807   9.099  21.016  0.00  0.00    +0.000 A 
ATOM     27  N   UNL     1       1.528   8.126  20.441  0.00  0.00    +0.000 NA
BRANCH  23  28
ATOM     28  C   UNL     1      -1.619  12.131  22.900  0.00  0.00    +0.000 A 
ATOM     29  C   UNL     1      -2.881  11.982  23.448  0.00  0.00    +0.000 A 
ATOM     30  C   UNL     1      -3.410  13.205  23.959  0.00  0.00    +0.000 A 
ATOM     31  C   UNL     1      -2.535  14.252  23.797  0.00  0.00    +0.000 A 
ATOM     32  S   UNL     1      -1.080  13.760  23.055  0.00  0.00    +0.000 S 
ENDBRANCH  23  28
ENDBRANCH   2  18
TORSDOF 3
ENDMDL
MODEL 2
REMARK VINA RESULT:     -10.2      2.326      4.027
REMARK  Name = 
REMARK  4 active torsions:
REMARK  status: ('A' for Active; 'I' for Inactive)
REMARK    1  A    between atoms: C_1  and  C_2
REMARK    2  A    between atoms: C_14  and  C_15
REMARK    3  A    between atoms: C_16  and  C_17
REMARK    4  A    between atoms: C_22  and  C_23
REMARK                            x       y       z     vdW  Elec       q    Type
REMARK                         _______ _______ _______ _____ _____    ______ ____
ROOT
ATOM      1  C   UNL     1       4.130   6.176  19.390  0.00  0.00    +0.000 C 
ATOM      2  C   UNL     1       2.838   6.381  19.127  0.00  0.00    +0.000 C 
ENDROOT
BRANCH   1  16
ATOM      3  C   UNL     1       7.784   6.634  18.630  0.00  0.00    +0.000 C 
ATOM      4  C   UNL     1       6.518   6.340  17.837  0.00  0.00    +0.000 C 
ATOM      5  O   UNL     1       6.745   6.446  16.434  0.00  0.00    +0.000 OA
ATOM      6  C   UNL     1       5.907   5.572  15.804  0.00  0.00    +0.000 C 
ATOM      7  O   UNL     1       5.524   5.699  14.653  0.00  0.00    +0.000 OA
ATOM      8  C   UNL     1       5.668   4.383  16.698  0.00  0.00    +0.000 C 
ATOM      9  C   UNL     1       4.336   3.672  16.494  0.00  0.00    +0.000 C 
ATOM     10  C   UNL     1       3.904   2.884  17.740  0.00  0.00    +0.000 C 
ATOM     11  C   UNL     1       2.587   2.115  17.487  0.00  0.00    +0.000 C 
ATOM     12  C   UNL     1       1.948   1.529  18.755  0.00  0.00    +0.000 C 
ATOM     13  C   UNL     1       1.893   2.504  19.928  0.00  0.00    +0.000 C 
ATOM     14  C   UNL     1       3.252   3.147  20.163  0.00  0.00    +0.000 C 
ATOM     15  C   UNL     1       3.681   3.874  18.880  0.00  0.00    +0.000 C 
ATOM     16  C   UNL     1       4.829   4.863  19.147  0.00  0.00    +0.000 C 
ATOM     17  C   UNL     1       5.953   4.934  18.088  0.00  0.00    +0.000 C 
ENDBRANCH   1  16
BRANCH   2  18
ATOM     18  C   UNL     1       2.177   7.676  19.302  0.00  0.00    +0.000 A 
ATOM     19  C   UNL     1       2.134   8.554  18.234  0.00  0.00    +0.000 A 
ATOM     20  C   UNL     1       1.479   9.760  18.408  0.00  0.00    +0.000 A 
ATOM     21  C   UNL     1       0.898  10.058  19.642  0.00  0.00    +0.000 A 
ATOM     22  C   UNL     1       0.211  11.261  19.830  0.00  0.00    +0.000 A 
ATOM     23  C   UNL     1      -0.363  11.579  21.071  0.00  0.00    +0.000 A 
ATOM     24  C   UNL     1      -0.228  10.655  22.109  0.00  0.00    +0.000 A 
ATOM     25  C   UNL     1       0.451   9.449  21.912  0.00  0.00    +0.000 A 
ATOM     26  C   UNL     1       1.015   9.122  20.685  0.00  0.00    +0.000 A 
ATOM     27  N   UNL     1       1.639   7.947  20.517  0.00  0.00    +0.000 NA
BRANCH  23  28
ATOM     28  C   UNL     1      -1.116  12.831  21.260  0.00  0.00    +0.000 A 
ATOM     29  C   UNL     1      -1.980  13.461  20.382  0.00  0.00    +0.000 A 
ATOM     30  C   UNL     1      -2.513  14.677  20.907  0.00  0.00    +0.000 A 
ATOM     31  C   UNL     1      -2.050  14.937  22.174  0.00  0.00    +0.000 A 
ATOM     32  S   UNL     1      -1.000  13.715  22.735  0.00  0.00    +0.000 S 
ENDBRANCH  23  28
ENDBRANCH   2  18
TORSDOF 3
ENDMDL
MODEL 3
REMARK VINA RESULT:      -9.9      0.943      1.031
REMARK  Name = 
REMARK  4 active torsions:
REMARK  status: ('A' for Active; 'I' for Inactive)
REMARK    1  A    between atoms: C_1  and  C_2
REMARK    2  A    between atoms: C_14  and  C_15
REMARK    3  A    between atoms: C_16  and  C_17
REMARK    4  A    between atoms: C_22  and  C_23
REMARK                            x       y       z     vdW  Elec       q    Type
REMARK                         _______ _______ _______ _____ _____    ______ ____
ROOT
ATOM      1  C   UNL     1       2.944   7.010  18.039  0.00  0.00    +0.000 C 
ATOM      2  C   UNL     1       2.611   7.216  19.314  0.00  0.00    +0.000 C 
ENDROOT
BRANCH   1  16
ATOM      3  C   UNL     1       0.860   4.012  17.143  0.00  0.00    +0.000 C 
ATOM      4  C   UNL     1       1.731   4.442  18.315  0.00  0.00    +0.000 C 
ATOM      5  O   UNL     1       1.571   3.571  19.432  0.00  0.00    +0.000 OA
ATOM      6  C   UNL     1       2.753   3.542  20.115  0.00  0.00    +0.000 C 
ATOM      7  O   UNL     1       2.851   3.275  21.302  0.00  0.00    +0.000 OA
ATOM      8  C   UNL     1       3.890   3.739  19.148  0.00  0.00    +0.000 C 
ATOM      9  C   UNL     1       5.145   4.370  19.738  0.00  0.00    +0.000 C 
ATOM     10  C   UNL     1       6.008   5.054  18.666  0.00  0.00    +0.000 C 
ATOM     11  C   UNL     1       7.308   5.625  19.275  0.00  0.00    +0.000 C 
ATOM     12  C   UNL     1       8.089   6.554  18.332  0.00  0.00    +0.000 C 
ATOM     13  C   UNL     1       7.219   7.587  17.621  0.00  0.00    +0.000 C 
ATOM     14  C   UNL     1       6.011   6.925  16.974  0.00  0.00    +0.000 C 
ATOM     15  C   UNL     1       5.204   6.202  18.062  0.00  0.00    +0.000 C 
ATOM     16  C   UNL     1       3.787   5.849  17.577  0.00  0.00    +0.000 C 
ATOM     17  C   UNL     1       3.231   4.466  17.984  0.00  0.00    +0.000 C 
ENDBRANCH   1  16
BRANCH   2  18
ATOM     18  C   UNL     1       1.737   8.306  19.752  0.00  0.00    +0.000 A 
ATOM     19  C   UNL     1       1.336   9.253  18.827  0.00  0.00    +0.000 A 
ATOM     20  C   UNL     1       0.486  10.259  19.251  0.00  0.00    +0.000 A 
ATOM     21  C   UNL     1       0.073  10.296  20.583  0.00  0.00    +0.000 A 
ATOM     22  C   UNL     1      -0.805  11.291  21.026  0.00  0.00    +0.000 A 
ATOM     23  C   UNL     1      -1.215  11.349  22.367  0.00  0.00    +0.000 A 
ATOM     24  C   UNL     1      -0.720  10.381  23.243  0.00  0.00    +0.000 A 
ATOM     25  C   UNL     1       0.149   9.383  22.793  0.00  0.00    +0.000 A 
ATOM     26  C   UNL     1       0.553   9.313  21.466  0.00  0.00    +0.000 A 
ATOM     27  N   UNL     1       1.367   8.329  21.057  0.00  0.00    +0.000 NA
BRANCH  23  28
ATOM     28  C   UNL     1      -2.166  12.376  22.826  0.00  0.00    +0.000 A 
ATOM     29  C   UNL     1      -3.316  12.214  23.579  0.00  0.00    +0.000 A 
ATOM     30  C   UNL     1      -4.000  13.444  23.814  0.00  0.00    +0.000 A 
ATOM     31  C   UNL     1      -3.351  14.512  23.244  0.00  0.00    +0.000 A 
ATOM     32  S   UNL     1      -1.917  14.039  22.451  0.00  0.00    +0.000 S 
ENDBRANCH  23  28
ENDBRANCH   2  18
TORSDOF 3
ENDMDL
MODEL 4
REMARK VINA RESULT:      -9.6      1.071      1.670
REMARK  Name = 
REMARK  4 active torsions:
REMARK  status: ('A' for Active; 'I' for Inactive)
REMARK    1  A    between atoms: C_1  and  C_2
REMARK    2  A    between atoms: C_14  and  C_15
REMARK    3  A    between atoms: C_16  and  C_17
REMARK    4  A    between atoms: C_22  and  C_23
REMARK                            x       y       z     vdW  Elec       q    Type
REMARK                         _______ _______ _______ _____ _____    ______ ____
ROOT
ATOM      1  C   UNL     1       2.587   6.236  19.035  0.00  0.00    +0.000 C 
ATOM      2  C   UNL     1       2.163   7.469  18.751  0.00  0.00    +0.000 C 
ENDROOT
BRANCH   1  16
ATOM      3  C   UNL     1       0.810   3.016  18.253  0.00  0.00    +0.000 C 
ATOM      4  C   UNL     1       1.981   3.449  19.123  0.00  0.00    +0.000 C 
ATOM      5  O   UNL     1       2.392   2.405  20.002  0.00  0.00    +0.000 OA
ATOM      6  C   UNL     1       3.734   2.539  20.218  0.00  0.00    +0.000 C 
ATOM      7  O   UNL     1       4.313   2.124  21.209  0.00  0.00    +0.000 OA
ATOM      8  C   UNL     1       4.376   3.133  18.992  0.00  0.00    +0.000 C 
ATOM      9  C   UNL     1       5.647   3.935  19.246  0.00  0.00    +0.000 C 
ATOM     10  C   UNL     1       5.923   4.950  18.127  0.00  0.00    +0.000 C 
ATOM     11  C   UNL     1       7.252   5.701  18.370  0.00  0.00    +0.000 C 
ATOM     12  C   UNL     1       7.465   6.915  17.451  0.00  0.00    +0.000 C 
ATOM     13  C   UNL     1       6.242   7.820  17.330  0.00  0.00    +0.000 C 
ATOM     14  C   UNL     1       4.997   7.009  17.002  0.00  0.00    +0.000 C 
ATOM     15  C   UNL     1       4.784   5.965  18.107  0.00  0.00    +0.000 C 
ATOM     16  C   UNL     1       3.362   5.380  18.066  0.00  0.00    +0.000 C 
ATOM     17  C   UNL     1       3.222   3.861  18.317  0.00  0.00    +0.000 C 
ENDBRANCH   1  16
BRANCH   2  18
ATOM     18  C   UNL     1       1.468   8.323  19.716  0.00  0.00    +0.000 A 
ATOM     19  C   UNL     1       1.458   7.954  21.049  0.00  0.00    +0.000 A 
ATOM     20  C   UNL     1       0.822   8.788  21.951  0.00  0.00    +0.000 A 
ATOM     21  C   UNL     1       0.209   9.957  21.496  0.00  0.00    +0.000 A 
ATOM     22  C   UNL     1      -0.417  10.825  22.396  0.00  0.00    +0.000 A 
ATOM     23  C   UNL     1      -1.051  11.995  21.948  0.00  0.00    +0.000 A 
ATOM     24  C   UNL     1      -1.034  12.263  20.578  0.00  0.00    +0.000 A 
ATOM     25  C   UNL     1      -0.397  11.397  19.685  0.00  0.00    +0.000 A 
ATOM     26  C   UNL     1       0.240  10.241  20.120  0.00  0.00    +0.000 A 
ATOM     27  N   UNL     1       0.864   9.442  19.243  0.00  0.00    +0.000 NA
BRANCH  23  28
ATOM     28  C   UNL     1      -1.681  12.928  22.898  0.00  0.00    +0.000 A 
ATOM     29  C   UNL     1      -1.173  14.104  23.420  0.00  0.00    +0.000 A 
ATOM     30  C   UNL     1      -2.068  14.736  24.335  0.00  0.00    +0.000 A 
ATOM     31  C   UNL     1      -3.238  14.030  24.481  0.00  0.00    +0.000 A 
ATOM     32  S   UNL     1      -3.266  12.631  23.505  0.00  0.00    +0.000 S 
ENDBRANCH  23  28
ENDBRANCH   2  18
TORSDOF 3
ENDMDL
MODEL 5
REMARK VINA RESULT:      -9.5      0.995      1.613
REMARK  Name = 
REMARK  4 active torsions:
REMARK  status: ('A' for Active; 'I' for Inactive)
REMARK    1  A    between atoms: C_1  and  C_2
REMARK    2  A    between atoms: C_14  and  C_15
REMARK    3  A    between atoms: C_16  and  C_17
REMARK    4  A    between atoms: C_22  and  C_23
REMARK                            x       y       z     vdW  Elec       q    Type
REMARK                         _______ _______ _______ _____ _____    ______ ____
ROOT
ATOM      1  C   UNL     1       2.179   5.818  18.412  0.00  0.00    +0.000 C 
ATOM      2  C   UNL     1       2.688   6.805  19.153  0.00  0.00    +0.000 C 
ENDROOT
BRANCH   1  16
ATOM      3  C   UNL     1       0.405   2.505  18.314  0.00  0.00    +0.000 C 
ATOM      4  C   UNL     1       1.502   3.147  19.151  0.00  0.00    +0.000 C 
ATOM      5  O   UNL     1       1.807   2.363  20.302  0.00  0.00    +0.000 OA
ATOM      6  C   UNL     1       3.126   2.548  20.601  0.00  0.00    +0.000 C 
ATOM      7  O   UNL     1       3.603   2.401  21.715  0.00  0.00    +0.000 OA
ATOM      8  C   UNL     1       3.891   2.809  19.331  0.00  0.00    +0.000 C 
ATOM      9  C   UNL     1       5.152   3.650  19.490  0.00  0.00    +0.000 C 
ATOM     10  C   UNL     1       5.553   4.345  18.180  0.00  0.00    +0.000 C 
ATOM     11  C   UNL     1       6.872   5.133  18.347  0.00  0.00    +0.000 C 
ATOM     12  C   UNL     1       7.196   6.072  17.173  0.00  0.00    +0.000 C 
ATOM     13  C   UNL     1       6.011   6.915  16.711  0.00  0.00    +0.000 C 
ATOM     14  C   UNL     1       4.782   6.046  16.484  0.00  0.00    +0.000 C 
ATOM     15  C   UNL     1       4.445   5.320  17.795  0.00  0.00    +0.000 C 
ATOM     16  C   UNL     1       3.019   4.743  17.771  0.00  0.00    +0.000 C 
ATOM     17  C   UNL     1       2.821   3.339  18.386  0.00  0.00    +0.000 C 
ENDBRANCH   1  16
BRANCH   2  18
ATOM     18  C   UNL     1       1.866   7.810  19.829  0.00  0.00    +0.000 A 
ATOM     19  C   UNL     1       1.431   7.561  21.118  0.00  0.00    +0.000 A 
ATOM     20  C   UNL     1       0.681   8.534  21.752  0.00  0.00    +0.000 A 
ATOM     21  C   UNL     1       0.378   9.719  21.080  0.00  0.00    +0.000 A 
ATOM     22  C   UNL     1      -0.359  10.725  21.713  0.00  0.00    +0.000 A 
ATOM     23  C   UNL     1      -0.684  11.915  21.041  0.00  0.00    +0.000 A 
ATOM     24  C   UNL     1      -0.246  12.060  19.723  0.00  0.00    +0.000 A 
ATOM     25  C   UNL     1       0.500  11.056  19.099  0.00  0.00    +0.000 A 
ATOM     26  C   UNL     1       0.832   9.879  19.759  0.00  0.00    +0.000 A 
ATOM     27  N   UNL     1       1.570   8.943  19.144  0.00  0.00    +0.000 NA
BRANCH  23  28
ATOM     28  C   UNL     1      -1.430  12.989  21.718  0.00  0.00    +0.000 A 
ATOM     29  C   UNL     1      -1.225  13.523  22.977  0.00  0.00    +0.000 A 
ATOM     30  C   UNL     1      -2.167  14.544  23.306  0.00  0.00    +0.000 A 
ATOM     31  C   UNL     1      -3.059  14.769  22.285  0.00  0.00    +0.000 A 
ATOM     32  S   UNL     1      -2.750  13.774  20.935  0.00  0.00    +0.000 S 
ENDBRANCH  23  28
ENDBRANCH   2  18
TORSDOF 3
ENDMDL
MODEL 6
REMARK VINA RESULT:      -9.1      2.626      4.548
REMARK  Name = 
REMARK  4 active torsions:
REMARK  status: ('A' for Active; 'I' for Inactive)
REMARK    1  A    between atoms: C_1  and  C_2
REMARK    2  A    between atoms: C_14  and  C_15
REMARK    3  A    between atoms: C_16  and  C_17
REMARK    4  A    between atoms: C_22  and  C_23
REMARK                            x       y       z     vdW  Elec       q    Type
REMARK                         _______ _______ _______ _____ _____    ______ ____
ROOT
ATOM      1  C   UNL     1       4.104   6.080  19.550  0.00  0.00    +0.000 C 
ATOM      2  C   UNL     1       2.780   6.238  19.513  0.00  0.00    +0.000 C 
ENDROOT
BRANCH   1  16
ATOM      3  C   UNL     1       7.739   6.579  18.726  0.00  0.00    +0.000 C 
ATOM      4  C   UNL     1       6.454   6.327  17.950  0.00  0.00    +0.000 C 
ATOM      5  O   UNL     1       6.646   6.507  16.549  0.00  0.00    +0.000 OA
ATOM      6  C   UNL     1       5.792   5.666  15.895  0.00  0.00    +0.000 C 
ATOM      7  O   UNL     1       5.381   5.854  14.761  0.00  0.00    +0.000 OA
ATOM      8  C   UNL     1       5.574   4.432  16.730  0.00  0.00    +0.000 C 
ATOM      9  C   UNL     1       4.237   3.732  16.522  0.00  0.00    +0.000 C 
ATOM     10  C   UNL     1       3.835   2.880  17.736  0.00  0.00    +0.000 C 
ATOM     11  C   UNL     1       2.512   2.124  17.474  0.00  0.00    +0.000 C 
ATOM     12  C   UNL     1       1.904   1.471  18.726  0.00  0.00    +0.000 C 
ATOM     13  C   UNL     1       1.878   2.384  19.949  0.00  0.00    +0.000 C 
ATOM     14  C   UNL     1       3.243   3.014  20.184  0.00  0.00    +0.000 C 
ATOM     15  C   UNL     1       3.641   3.808  18.931  0.00  0.00    +0.000 C 
ATOM     16  C   UNL     1       4.796   4.782  19.221  0.00  0.00    +0.000 C 
ATOM     17  C   UNL     1       5.893   4.909  18.140  0.00  0.00    +0.000 C 
ENDBRANCH   1  16
BRANCH   2  18
ATOM     18  C   UNL     1       2.114   7.517  19.769  0.00  0.00    +0.000 A 
ATOM     19  C   UNL     1       1.418   7.683  20.952  0.00  0.00    +0.000 A 
ATOM     20  C   UNL     1       0.821   8.908  21.191  0.00  0.00    +0.000 A 
ATOM     21  C   UNL     1       0.927   9.924  20.239  0.00  0.00    +0.000 A 
ATOM     22  C   UNL     1       0.352  11.176  20.473  0.00  0.00    +0.000 A 
ATOM     23  C   UNL     1       0.438  12.201  19.517  0.00  0.00    +0.000 A 
ATOM     24  C   UNL     1       1.118  11.929  18.328  0.00  0.00    +0.000 A 
ATOM     25  C   UNL     1       1.701  10.678  18.105  0.00  0.00    +0.000 A 
ATOM     26  C   UNL     1       1.627   9.661  19.049  0.00  0.00    +0.000 A 
ATOM     27  N   UNL     1       2.218   8.479  18.818  0.00  0.00    +0.000 NA
BRANCH  23  28
ATOM     28  C   UNL     1      -0.138  13.531  19.776  0.00  0.00    +0.000 A 
ATOM     29  C   UNL     1      -0.075  14.669  18.991  0.00  0.00    +0.000 A 
ATOM     30  C   UNL     1      -0.739  15.786  19.581  0.00  0.00    +0.000 A 
ATOM     31  C   UNL     1      -1.298  15.470  20.795  0.00  0.00    +0.000 A 
ATOM     32  S   UNL     1      -1.045  13.835  21.209  0.00  0.00    +0.000 S 
ENDBRANCH  23  28
ENDBRANCH   2  18
TORSDOF 3
ENDMDL
MODEL 7
REMARK VINA RESULT:      -9.0      1.225      1.802
REMARK  Name = 
REMARK  4 active torsions:
REMARK  status: ('A' for Active; 'I' for Inactive)
REMARK    1  A    between atoms: C_1  and  C_2
REMARK    2  A    between atoms: C_14  and  C_15
REMARK    3  A    between atoms: C_16  and  C_17
REMARK    4  A    between atoms: C_22  and  C_23
REMARK                            x       y       z     vdW  Elec       q    Type
REMARK                         _______ _______ _______ _____ _____    ______ ____
ROOT
ATOM      1  C   UNL     1       2.531   6.473  18.240  0.00  0.00    +0.000 C 
ATOM      2  C   UNL     1       2.692   7.075  19.420  0.00  0.00    +0.000 C 
ENDROOT
BRANCH   1  16
ATOM      3  C   UNL     1       0.693   3.243  17.671  0.00  0.00    +0.000 C 
ATOM      4  C   UNL     1       1.628   3.811  18.729  0.00  0.00    +0.000 C 
ATOM      5  O   UNL     1       1.673   2.979  19.886  0.00  0.00    +0.000 OA
ATOM      6  C   UNL     1       2.914   3.099  20.443  0.00  0.00    +0.000 C 
ATOM      7  O   UNL     1       3.158   2.897  21.622  0.00  0.00    +0.000 OA
ATOM      8  C   UNL     1       3.922   3.366  19.356  0.00  0.00    +0.000 C 
ATOM      9  C   UNL     1       5.156   4.147  19.790  0.00  0.00    +0.000 C 
ATOM     10  C   UNL     1       5.831   4.865  18.611  0.00  0.00    +0.000 C 
ATOM     11  C   UNL     1       7.119   5.591  19.061  0.00  0.00    +0.000 C 
ATOM     12  C   UNL     1       7.699   6.550  18.010  0.00  0.00    +0.000 C 
ATOM     13  C   UNL     1       6.658   7.457  17.359  0.00  0.00    +0.000 C 
ATOM     14  C   UNL     1       5.468   6.649  16.865  0.00  0.00    +0.000 C 
ATOM     15  C   UNL     1       4.855   5.898  18.056  0.00  0.00    +0.000 C 
ATOM     16  C   UNL     1       3.441   5.383  17.733  0.00  0.00    +0.000 C 
ATOM     17  C   UNL     1       3.077   3.970  18.243  0.00  0.00    +0.000 C 
ENDBRANCH   1  16
BRANCH   2  18
ATOM     18  C   UNL     1       1.770   8.087  19.939  0.00  0.00    +0.000 A 
ATOM     19  C   UNL     1       1.332   7.983  21.247  0.00  0.00    +0.000 A 
ATOM     20  C   UNL     1       0.485   8.964  21.730  0.00  0.00    +0.000 A 
ATOM     21  C   UNL     1       0.093  10.010  20.893  0.00  0.00    +0.000 A 
ATOM     22  C   UNL     1      -0.744  11.025  21.371  0.00  0.00    +0.000 A 
ATOM     23  C   UNL     1      -1.158  12.073  20.534  0.00  0.00    +0.000 A 
ATOM     24  C   UNL     1      -0.707  12.071  19.212  0.00  0.00    +0.000 A 
ATOM     25  C   UNL     1       0.138  11.060  18.744  0.00  0.00    +0.000 A 
ATOM     26  C   UNL     1       0.559  10.023  19.567  0.00  0.00    +0.000 A 
ATOM     27  N   UNL     1       1.390   9.081  19.098  0.00  0.00    +0.000 NA
BRANCH  23  28
ATOM     28  C   UNL     1      -2.011  13.160  21.045  0.00  0.00    +0.000 A 
ATOM     29  C   UNL     1      -3.370  13.346  20.871  0.00  0.00    +0.000 A 
ATOM     30  C   UNL     1      -3.852  14.534  21.499  0.00  0.00    +0.000 A 
ATOM     31  C   UNL     1      -2.849  15.217  22.144  0.00  0.00    +0.000 A 
ATOM     32  S   UNL     1      -1.346  14.423  22.011  0.00  0.00    +0.000 S 
ENDBRANCH  23  28
ENDBRANCH   2  18
TORSDOF 3
ENDMDL
MODEL 8
REMARK VINA RESULT:      -8.9      4.579     10.567
REMARK  Name = 
REMARK  4 active torsions:
REMARK  status: ('A' for Active; 'I' for Inactive)
REMARK    1  A    between atoms: C_1  and  C_2
REMARK    2  A    between atoms: C_14  and  C_15
REMARK    3  A    between atoms: C_16  and  C_17
REMARK    4  A    between atoms: C_22  and  C_23
REMARK                            x       y       z     vdW  Elec       q    Type
REMARK                         _______ _______ _______ _____ _____    ______ ____
ROOT
ATOM      1  C   UNL     1      -2.521  11.756  20.615  0.00  0.00    +0.000 C 
ATOM      2  C   UNL     1      -1.333  11.761  20.008  0.00  0.00    +0.000 C 
ENDROOT
BRANCH   1  16
ATOM      3  C   UNL     1      -1.648  14.585  22.933  0.00  0.00    +0.000 C 
ATOM      4  C   UNL     1      -2.653  13.443  22.913  0.00  0.00    +0.000 C 
ATOM      5  O   UNL     1      -3.304  13.299  24.173  0.00  0.00    +0.000 OA
ATOM      6  C   UNL     1      -4.562  12.819  23.945  0.00  0.00    +0.000 C 
ATOM      7  O   UNL     1      -5.212  12.186  24.761  0.00  0.00    +0.000 OA
ATOM      8  C   UNL     1      -5.050  13.321  22.612  0.00  0.00    +0.000 C 
ATOM      9  C   UNL     1      -6.066  12.427  21.912  0.00  0.00    +0.000 C 
ATOM     10  C   UNL     1      -6.091  12.658  20.393  0.00  0.00    +0.000 C 
ATOM     11  C   UNL     1      -7.177  11.794  19.713  0.00  0.00    +0.000 C 
ATOM     12  C   UNL     1      -7.085  11.761  18.179  0.00  0.00    +0.000 C 
ATOM     13  C   UNL     1      -5.672  11.530  17.650  0.00  0.00    +0.000 C 
ATOM     14  C   UNL     1      -4.684  12.483  18.306  0.00  0.00    +0.000 C 
ATOM     15  C   UNL     1      -4.729  12.269  19.826  0.00  0.00    +0.000 C 
ATOM     16  C   UNL     1      -3.507  12.893  20.522  0.00  0.00    +0.000 C 
ATOM     17  C   UNL     1      -3.760  13.620  21.862  0.00  0.00    +0.000 C 
ENDBRANCH   1  16
BRANCH   2  18
ATOM     18  C   UNL     1      -0.405  10.629  20.046  0.00  0.00    +0.000 A 
ATOM     19  C   UNL     1      -0.270   9.915  21.223  0.00  0.00    +0.000 A 
ATOM     20  C   UNL     1       0.588   8.830  21.233  0.00  0.00    +0.000 A 
ATOM     21  C   UNL     1       1.292   8.498  20.074  0.00  0.00    +0.000 A 
ATOM     22  C   UNL     1       2.146   7.390  20.057  0.00  0.00    +0.000 A 
ATOM     23  C   UNL     1       2.872   7.056  18.903  0.00  0.00    +0.000 A 
ATOM     24  C   UNL     1       2.712   7.863  17.775  0.00  0.00    +0.000 A 
ATOM     25  C   UNL     1       1.849   8.962  17.794  0.00  0.00    +0.000 A 
ATOM     26  C   UNL     1       1.121   9.296  18.930  0.00  0.00    +0.000 A 
ATOM     27  N   UNL     1       0.281  10.341  18.912  0.00  0.00    +0.000 NA
BRANCH  23  28
ATOM     28  C   UNL     1       3.745   5.870  18.873  0.00  0.00    +0.000 A 
ATOM     29  C   UNL     1       4.965   5.711  18.241  0.00  0.00    +0.000 A 
ATOM     30  C   UNL     1       5.514   4.405  18.417  0.00  0.00    +0.000 A 
ATOM     31  C   UNL     1       4.703   3.605  19.185  0.00  0.00    +0.000 A 
ATOM     32  S   UNL     1       3.304   4.429  19.709  0.00  0.00    +0.000 S 
ENDBRANCH  23  28
ENDBRANCH   2  18
TORSDOF 3
ENDMDL
