MODEL 1
REMARK VINA RESULT:      -8.0      0.000      0.000
REMARK  Name = 
REMARK  6 active torsions:
REMARK  status: ('A' for Active; 'I' for Inactive)
REMARK    1  A    between atoms: C_1  and  C_2
REMARK    2  A    between atoms: C_2  and  C_3
REMARK    3  A    between atoms: C_3  and  C_4
REMARK    4  A    between atoms: C_3  and  N_16
REMARK    5  A    between atoms: C_4  and  N_5
REMARK    6  A    between atoms: C_17  and  C_19
REMARK                            x       y       z     vdW  Elec       q    Type
REMARK                         _______ _______ _______ _____ _____    ______ ____
ROOT
ATOM      1  C   UNL     1       6.090   6.834  17.367  0.00  0.00    +0.000 C 
ENDROOT
BRANCH   1   2
ATOM      2  N   UNL     1       6.237   6.304  16.007  0.00  0.00    +0.000 N 
ATOM      3  C   UNL     1       6.994   5.192  15.708  0.00  0.00    +0.000 C 
ATOM      4  O   UNL     1       7.603   4.534  16.545  0.00  0.00    +0.000 OA
ATOM      5  H   UNL     1       5.740   6.752  15.239  0.00  0.00    +0.000 HD
BRANCH   3   6
ATOM      6  C   UNL     1       7.040   4.820  14.266  0.00  0.00    +0.000 A 
ATOM      7  C   UNL     1       6.232   3.793  13.799  0.00  0.00    +0.000 A 
ATOM      8  N   UNL     1       6.237   3.396  12.500  0.00  0.00    +0.000 NA
ATOM      9  C   UNL     1       7.090   4.069  11.695  0.00  0.00    +0.000 A 
ATOM     10  C   UNL     1       7.900   5.099  12.159  0.00  0.00    +0.000 A 
ATOM     11  N   UNL     1       7.895   5.507  13.454  0.00  0.00    +0.000 NA
ENDBRANCH   3   6
ENDBRANCH   1   2
BRANCH   1  13
ATOM     12  C   UNL     1       8.255   7.876  18.307  0.00  0.00    +0.000 C 
ATOM     13  C   UNL     1       6.976   8.091  17.509  0.00  0.00    +0.000 C 
ENDBRANCH   1  13
BRANCH   1  14
ATOM     14  C   UNL     1       4.609   7.127  17.695  0.00  0.00    +0.000 C 
BRANCH  14  15
ATOM     15  N   UNL     1       3.819   5.916  17.947  0.00  0.00    +0.000 N 
ATOM     16  N   UNL     1       3.979   4.889  17.037  0.00  0.00    +0.000 NA
ATOM     17  C   UNL     1       3.284   3.809  17.207  0.00  0.00    +0.000 A 
ATOM     18  C   UNL     1       2.342   3.600  18.297  0.00  0.00    +0.000 A 
ATOM     19  C   UNL     1       1.614   2.411  18.401  0.00  0.00    +0.000 A 
ATOM     20  C   UNL     1       0.742   2.238  19.476  0.00  0.00    +0.000 A 
ATOM     21  C   UNL     1       0.599   3.248  20.432  0.00  0.00    +0.000 A 
ATOM     22  C   UNL     1       1.319   4.440  20.306  0.00  0.00    +0.000 A 
ATOM     23  C   UNL     1       2.196   4.614  19.231  0.00  0.00    +0.000 A 
ATOM     24  C   UNL     1       2.967   5.862  19.053  0.00  0.00    +0.000 A 
ATOM     25  O   UNL     1       2.818   6.781  19.854  0.00  0.00    +0.000 OA
ENDBRANCH  14  15
ENDBRANCH   1  14
TORSDOF 5
ENDMDL
MODEL 2
REMARK VINA RESULT:      -7.9      1.141      1.269
REMARK  Name = 
REMARK  6 active torsions:
REMARK  status: ('A' for Active; 'I' for Inactive)
REMARK    1  A    between atoms: C_1  and  C_2
REMARK    2  A    between atoms: C_2  and  C_3
REMARK    3  A    between atoms: C_3  and  C_4
REMARK    4  A    between atoms: C_3  and  N_16
REMARK    5  A    between atoms: C_4  and  N_5
REMARK    6  A    between atoms: C_17  and  C_19
REMARK                            x       y       z     vdW  Elec       q    Type
REMARK                         _______ _______ _______ _____ _____    ______ ____
ROOT
ATOM      1  C   UNL     1       6.845   6.979  17.499  0.00  0.00    +0.000 C 
ENDROOT
BRANCH   1   2
ATOM      2  N   UNL     1       6.753   6.402  16.153  0.00  0.00    +0.000 N 
ATOM      3  C   UNL     1       7.273   5.170  15.822  0.00  0.00    +0.000 C 
ATOM      4  O   UNL     1       7.849   4.435  16.617  0.00  0.00    +0.000 OA
ATOM      5  H   UNL     1       6.259   6.913  15.423  0.00  0.00    +0.000 HD
BRANCH   3   6
ATOM      6  C   UNL     1       7.099   4.765  14.399  0.00  0.00    +0.000 A 
ATOM      7  C   UNL     1       6.183   3.773  14.077  0.00  0.00    +0.000 A 
ATOM      8  N   UNL     1       5.988   3.347  12.802  0.00  0.00    +0.000 NA
ATOM      9  C   UNL     1       6.754   3.956  11.868  0.00  0.00    +0.000 A 
ATOM     10  C   UNL     1       7.671   4.951  12.187  0.00  0.00    +0.000 A 
ATOM     11  N   UNL     1       7.867   5.386  13.457  0.00  0.00    +0.000 NA
ENDBRANCH   3   6
ENDBRANCH   1   2
BRANCH   1  13
ATOM     12  C   UNL     1       8.535   8.586  18.601  0.00  0.00    +0.000 C 
ATOM     13  C   UNL     1       7.620   8.312  17.416  0.00  0.00    +0.000 C 
ENDBRANCH   1  13
BRANCH   1  14
ATOM     14  C   UNL     1       5.446   7.158  18.127  0.00  0.00    +0.000 C 
BRANCH  14  15
ATOM     15  N   UNL     1       4.774   5.887  18.423  0.00  0.00    +0.000 N 
ATOM     16  N   UNL     1       5.574   4.885  18.936  0.00  0.00    +0.000 NA
ATOM     17  C   UNL     1       5.028   3.738  19.192  0.00  0.00    +0.000 A 
ATOM     18  C   UNL     1       3.621   3.430  18.976  0.00  0.00    +0.000 A 
ATOM     19  C   UNL     1       3.110   2.161  19.260  0.00  0.00    +0.000 A 
ATOM     20  C   UNL     1       1.750   1.914  19.066  0.00  0.00    +0.000 A 
ATOM     21  C   UNL     1       0.916   2.929  18.589  0.00  0.00    +0.000 A 
ATOM     22  C   UNL     1       1.443   4.189  18.293  0.00  0.00    +0.000 A 
ATOM     23  C   UNL     1       2.805   4.439  18.489  0.00  0.00    +0.000 A 
ATOM     24  C   UNL     1       3.405   5.753  18.177  0.00  0.00    +0.000 A 
ATOM     25  O   UNL     1       2.699   6.642  17.710  0.00  0.00    +0.000 OA
ENDBRANCH  14  15
ENDBRANCH   1  14
TORSDOF 5
ENDMDL
MODEL 3
REMARK VINA RESULT:      -7.8      1.054      1.678
REMARK  Name = 
REMARK  6 active torsions:
REMARK  status: ('A' for Active; 'I' for Inactive)
REMARK    1  A    between atoms: C_1  and  C_2
REMARK    2  A    between atoms: C_2  and  C_3
REMARK    3  A    between atoms: C_3  and  C_4
REMARK    4  A    between atoms: C_3  and  N_16
REMARK    5  A    between atoms: C_4  and  N_5
REMARK    6  A    between atoms: C_17  and  C_19
REMARK                            x       y       z     vdW  Elec       q    Type
REMARK                         _______ _______ _______ _____ _____    ______ ____
ROOT
ATOM      1  C   UNL     1       5.865   6.729  17.325  0.00  0.00    +0.000 C 
ENDROOT
BRANCH   1   2
ATOM      2  N   UNL     1       6.059   6.207  15.967  0.00  0.00    +0.000 N 
ATOM      3  C   UNL     1       6.883   5.142  15.679  0.00  0.00    +0.000 C 
ATOM      4  O   UNL     1       7.519   4.521  16.524  0.00  0.00    +0.000 OA
ATOM      5  H   UNL     1       5.546   6.625  15.193  0.00  0.00    +0.000 HD
BRANCH   3   6
ATOM      6  C   UNL     1       6.968   4.772  14.239  0.00  0.00    +0.000 A 
ATOM      7  C   UNL     1       6.168   3.751  13.746  0.00  0.00    +0.000 A 
ATOM      8  N   UNL     1       6.208   3.355  12.447  0.00  0.00    +0.000 NA
ATOM      9  C   UNL     1       7.088   4.025  11.668  0.00  0.00    +0.000 A 
ATOM     10  C   UNL     1       7.890   5.049  12.158  0.00  0.00    +0.000 A 
ATOM     11  N   UNL     1       7.851   5.455  13.452  0.00  0.00    +0.000 NA
ENDBRANCH   3   6
ENDBRANCH   1   2
BRANCH   1  13
ATOM     12  C   UNL     1       8.108   7.301  18.463  0.00  0.00    +0.000 C 
ATOM     13  C   UNL     1       6.948   7.792  17.609  0.00  0.00    +0.000 C 
ENDBRANCH   1  13
BRANCH   1  14
ATOM     14  C   UNL     1       4.437   7.290  17.508  0.00  0.00    +0.000 C 
BRANCH  14  15
ATOM     15  N   UNL     1       3.543   6.379  18.232  0.00  0.00    +0.000 N 
ATOM     16  N   UNL     1       3.010   6.864  19.411  0.00  0.00    +0.000 NA
ATOM     17  C   UNL     1       2.233   6.086  20.096  0.00  0.00    +0.000 A 
ATOM     18  C   UNL     1       1.877   4.728  19.707  0.00  0.00    +0.000 A 
ATOM     19  C   UNL     1       1.045   3.944  20.510  0.00  0.00    +0.000 A 
ATOM     20  C   UNL     1       0.706   2.658  20.088  0.00  0.00    +0.000 A 
ATOM     21  C   UNL     1       1.199   2.165  18.877  0.00  0.00    +0.000 A 
ATOM     22  C   UNL     1       2.045   2.953  18.091  0.00  0.00    +0.000 A 
ATOM     23  C   UNL     1       2.384   4.244  18.511  0.00  0.00    +0.000 A 
ATOM     24  C   UNL     1       3.284   5.106  17.717  0.00  0.00    +0.000 A 
ATOM     25  O   UNL     1       3.768   4.673  16.675  0.00  0.00    +0.000 OA
ENDBRANCH  14  15
ENDBRANCH   1  14
TORSDOF 5
ENDMDL
MODEL 4
REMARK VINA RESULT:      -7.6      1.226      1.469
REMARK  Name = 
REMARK  6 active torsions:
REMARK  status: ('A' for Active; 'I' for Inactive)
REMARK    1  A    between atoms: C_1  and  C_2
REMARK    2  A    between atoms: C_2  and  C_3
REMARK    3  A    between atoms: C_3  and  C_4
REMARK    4  A    between atoms: C_3  and  N_16
REMARK    5  A    between atoms: C_4  and  N_5
REMARK    6  A    between atoms: C_17  and  C_19
REMARK                            x       y       z     vdW  Elec       q    Type
REMARK                         _______ _______ _______ _____ _____    ______ ____
ROOT
ATOM      1  C   UNL     1       6.603   6.795  17.415  0.00  0.00    +0.000 C 
ENDROOT
BRANCH   1   2
ATOM      2  N   UNL     1       6.497   6.193  16.081  0.00  0.00    +0.000 N 
ATOM      3  C   UNL     1       7.181   5.056  15.710  0.00  0.00    +0.000 C 
ATOM      4  O   UNL     1       7.928   4.432  16.457  0.00  0.00    +0.000 OA
ATOM      5  H   UNL     1       5.872   6.609  15.393  0.00  0.00    +0.000 HD
BRANCH   3   6
ATOM      6  C   UNL     1       6.962   4.610  14.306  0.00  0.00    +0.000 A 
ATOM      7  C   UNL     1       7.788   5.089  13.299  0.00  0.00    +0.000 A 
ATOM      8  N   UNL     1       7.632   4.734  11.997  0.00  0.00    +0.000 NA
ATOM      9  C   UNL     1       6.610   3.883  11.751  0.00  0.00    +0.000 A 
ATOM     10  C   UNL     1       5.782   3.399  12.757  0.00  0.00    +0.000 A 
ATOM     11  N   UNL     1       5.935   3.744  14.060  0.00  0.00    +0.000 NA
ENDBRANCH   3   6
ENDBRANCH   1   2
BRANCH   1  13
ATOM     12  C   UNL     1       8.412   8.279  18.501  0.00  0.00    +0.000 C 
ATOM     13  C   UNL     1       7.475   8.065  17.320  0.00  0.00    +0.000 C 
ENDBRANCH   1  13
BRANCH   1  14
ATOM     14  C   UNL     1       5.207   7.090  18.006  0.00  0.00    +0.000 C 
BRANCH  14  15
ATOM     15  N   UNL     1       4.588   5.924  18.648  0.00  0.00    +0.000 N 
ATOM     16  N   UNL     1       5.347   4.770  18.667  0.00  0.00    +0.000 NA
ATOM     17  C   UNL     1       4.832   3.709  19.204  0.00  0.00    +0.000 A 
ATOM     18  C   UNL     1       3.502   3.649  19.795  0.00  0.00    +0.000 A 
ATOM     19  C   UNL     1       3.010   2.459  20.339  0.00  0.00    +0.000 A 
ATOM     20  C   UNL     1       1.741   2.449  20.920  0.00  0.00    +0.000 A 
ATOM     21  C   UNL     1       0.976   3.619  20.951  0.00  0.00    +0.000 A 
ATOM     22  C   UNL     1       1.473   4.798  20.387  0.00  0.00    +0.000 A 
ATOM     23  C   UNL     1       2.745   4.810  19.806  0.00  0.00    +0.000 A 
ATOM     24  C   UNL     1       3.304   6.030  19.188  0.00  0.00    +0.000 A 
ATOM     25  O   UNL     1       2.627   7.055  19.160  0.00  0.00    +0.000 OA
ENDBRANCH  14  15
ENDBRANCH   1  14
TORSDOF 5
ENDMDL
MODEL 5
REMARK VINA RESULT:      -7.3      2.810      4.814
REMARK  Name = 
REMARK  6 active torsions:
REMARK  status: ('A' for Active; 'I' for Inactive)
REMARK    1  A    between atoms: C_1  and  C_2
REMARK    2  A    between atoms: C_2  and  C_3
REMARK    3  A    between atoms: C_3  and  C_4
REMARK    4  A    between atoms: C_3  and  N_16
REMARK    5  A    between atoms: C_4  and  N_5
REMARK    6  A    between atoms: C_17  and  C_19
REMARK                            x       y       z     vdW  Elec       q    Type
REMARK                         _______ _______ _______ _____ _____    ______ ____
ROOT
ATOM      1  C   UNL     1       6.286   6.051  17.164  0.00  0.00    +0.000 C 
ENDROOT
BRANCH   1   2
ATOM      2  N   UNL     1       5.138   6.705  17.801  0.00  0.00    +0.000 N 
ATOM      3  C   UNL     1       4.134   7.327  17.093  0.00  0.00    +0.000 C 
ATOM      4  O   UNL     1       4.095   7.384  15.868  0.00  0.00    +0.000 OA
ATOM      5  H   UNL     1       5.050   6.683  18.816  0.00  0.00    +0.000 HD
BRANCH   3   6
ATOM      6  C   UNL     1       3.064   7.954  17.918  0.00  0.00    +0.000 A 
ATOM      7  C   UNL     1       2.708   7.376  19.130  0.00  0.00    +0.000 A 
ATOM      8  N   UNL     1       1.731   7.889  19.922  0.00  0.00    +0.000 NA
ATOM      9  C   UNL     1       1.125   8.999  19.444  0.00  0.00    +0.000 A 
ATOM     10  C   UNL     1       1.480   9.581  18.232  0.00  0.00    +0.000 A 
ATOM     11  N   UNL     1       2.459   9.079  17.438  0.00  0.00    +0.000 NA
ENDBRANCH   3   6
ENDBRANCH   1   2
BRANCH   1  13
ATOM     12  C   UNL     1       7.836   8.055  17.654  0.00  0.00    +0.000 C 
ATOM     13  C   UNL     1       7.583   6.564  17.828  0.00  0.00    +0.000 C 
ENDBRANCH   1  13
BRANCH   1  14
ATOM     14  C   UNL     1       6.165   4.513  17.236  0.00  0.00    +0.000 C 
BRANCH  14  15
ATOM     15  N   UNL     1       4.862   4.055  17.732  0.00  0.00    +0.000 N 
ATOM     16  N   UNL     1       3.907   3.791  16.769  0.00  0.00    +0.000 NA
ATOM     17  C   UNL     1       2.734   3.406  17.162  0.00  0.00    +0.000 A 
ATOM     18  C   UNL     1       2.350   3.228  18.556  0.00  0.00    +0.000 A 
ATOM     19  C   UNL     1       1.057   2.826  18.900  0.00  0.00    +0.000 A 
ATOM     20  C   UNL     1       0.736   2.639  20.246  0.00  0.00    +0.000 A 
ATOM     21  C   UNL     1       1.702   2.858  21.232  0.00  0.00    +0.000 A 
ATOM     22  C   UNL     1       2.987   3.277  20.875  0.00  0.00    +0.000 A 
ATOM     23  C   UNL     1       3.311   3.462  19.527  0.00  0.00    +0.000 A 
ATOM     24  C   UNL     1       4.653   3.916  19.106  0.00  0.00    +0.000 A 
ATOM     25  O   UNL     1       5.500   4.162  19.961  0.00  0.00    +0.000 OA
ENDBRANCH  14  15
ENDBRANCH   1  14
TORSDOF 5
ENDMDL
MODEL 6
REMARK VINA RESULT:      -7.2      2.928      6.840
REMARK  Name = 
REMARK  6 active torsions:
REMARK  status: ('A' for Active; 'I' for Inactive)
REMARK    1  A    between atoms: C_1  and  C_2
REMARK    2  A    between atoms: C_2  and  C_3
REMARK    3  A    between atoms: C_3  and  C_4
REMARK    4  A    between atoms: C_3  and  N_16
REMARK    5  A    between atoms: C_4  and  N_5
REMARK    6  A    between atoms: C_17  and  C_19
REMARK                            x       y       z     vdW  Elec       q    Type
REMARK                         _______ _______ _______ _____ _____    ______ ____
ROOT
ATOM      1  C   UNL     1       2.636   4.018  20.668  0.00  0.00    +0.000 C 
ENDROOT
BRANCH   1   2
ATOM      2  N   UNL     1       2.584   5.269  19.904  0.00  0.00    +0.000 N 
ATOM      3  C   UNL     1       1.915   6.392  20.338  0.00  0.00    +0.000 C 
ATOM      4  O   UNL     1       1.313   6.460  21.405  0.00  0.00    +0.000 OA
ATOM      5  H   UNL     1       3.084   5.335  19.019  0.00  0.00    +0.000 HD
BRANCH   3   6
ATOM      6  C   UNL     1       1.957   7.558  19.412  0.00  0.00    +0.000 A 
ATOM      7  C   UNL     1       2.654   7.457  18.216  0.00  0.00    +0.000 A 
ATOM      8  N   UNL     1       2.744   8.488  17.336  0.00  0.00    +0.000 NA
ATOM      9  C   UNL     1       2.111   9.622  17.710  0.00  0.00    +0.000 A 
ATOM     10  C   UNL     1       1.410   9.726  18.907  0.00  0.00    +0.000 A 
ATOM     11  N   UNL     1       1.310   8.700  19.788  0.00  0.00    +0.000 NA
ENDBRANCH   3   6
ENDBRANCH   1   2
BRANCH   1  13
ATOM     12  C   UNL     1       0.739   2.817  19.397  0.00  0.00    +0.000 C 
ATOM     13  C   UNL     1       1.219   3.405  20.717  0.00  0.00    +0.000 C 
ENDBRANCH   1  13
BRANCH   1  14
ATOM     14  C   UNL     1       3.672   3.041  20.071  0.00  0.00    +0.000 C 
BRANCH  14  15
ATOM     15  N   UNL     1       4.540   3.658  19.062  0.00  0.00    +0.000 N 
ATOM     16  N   UNL     1       5.535   4.486  19.545  0.00  0.00    +0.000 NA
ATOM     17  C   UNL     1       6.312   5.071  18.689  0.00  0.00    +0.000 A 
ATOM     18  C   UNL     1       6.210   4.915  17.244  0.00  0.00    +0.000 A 
ATOM     19  C   UNL     1       7.076   5.596  16.384  0.00  0.00    +0.000 A 
ATOM     20  C   UNL     1       6.964   5.397  15.007  0.00  0.00    +0.000 A 
ATOM     21  C   UNL     1       5.992   4.530  14.501  0.00  0.00    +0.000 A 
ATOM     22  C   UNL     1       5.120   3.868  15.372  0.00  0.00    +0.000 A 
ATOM     23  C   UNL     1       5.233   4.063  16.752  0.00  0.00    +0.000 A 
ATOM     24  C   UNL     1       4.325   3.394  17.707  0.00  0.00    +0.000 A 
ATOM     25  O   UNL     1       3.432   2.667  17.280  0.00  0.00    +0.000 OA
ENDBRANCH  14  15
ENDBRANCH   1  14
TORSDOF 5
ENDMDL
MODEL 7
REMARK VINA RESULT:      -7.2      2.834      4.964
REMARK  Name = 
REMARK  6 active torsions:
REMARK  status: ('A' for Active; 'I' for Inactive)
REMARK    1  A    between atoms: C_1  and  C_2
REMARK    2  A    between atoms: C_2  and  C_3
REMARK    3  A    between atoms: C_3  and  C_4
REMARK    4  A    between atoms: C_3  and  N_16
REMARK    5  A    between atoms: C_4  and  N_5
REMARK    6  A    between atoms: C_17  and  C_19
REMARK                            x       y       z     vdW  Elec       q    Type
REMARK                         _______ _______ _______ _____ _____    ______ ____
ROOT
ATOM      1  C   UNL     1       6.212   6.068  17.180  0.00  0.00    +0.000 C 
ENDROOT
BRANCH   1   2
ATOM      2  N   UNL     1       5.080   6.668  17.895  0.00  0.00    +0.000 N 
ATOM      3  C   UNL     1       4.041   7.311  17.259  0.00  0.00    +0.000 C 
ATOM      4  O   UNL     1       3.955   7.433  16.042  0.00  0.00    +0.000 OA
ATOM      5  H   UNL     1       5.031   6.589  18.909  0.00  0.00    +0.000 HD
BRANCH   3   6
ATOM      6  C   UNL     1       2.994   7.874  18.157  0.00  0.00    +0.000 A 
ATOM      7  C   UNL     1       2.330   9.036  17.790  0.00  0.00    +0.000 A 
ATOM      8  N   UNL     1       1.376   9.609  18.570  0.00  0.00    +0.000 NA
ATOM      9  C   UNL     1       1.124   8.968  19.734  0.00  0.00    +0.000 A 
ATOM     10  C   UNL     1       1.786   7.804  20.105  0.00  0.00    +0.000 A 
ATOM     11  N   UNL     1       2.735   7.222  19.328  0.00  0.00    +0.000 NA
ENDBRANCH   3   6
ENDBRANCH   1   2
BRANCH   1  13
ATOM     12  C   UNL     1       7.839   8.013  17.657  0.00  0.00    +0.000 C 
ATOM     13  C   UNL     1       7.525   6.536  17.846  0.00  0.00    +0.000 C 
ENDBRANCH   1  13
BRANCH   1  14
ATOM     14  C   UNL     1       6.096   4.529  17.141  0.00  0.00    +0.000 C 
BRANCH  14  15
ATOM     15  N   UNL     1       4.810   4.029  17.640  0.00  0.00    +0.000 N 
ATOM     16  N   UNL     1       3.825   3.838  16.691  0.00  0.00    +0.000 NA
ATOM     17  C   UNL     1       2.665   3.420  17.089  0.00  0.00    +0.000 A 
ATOM     18  C   UNL     1       2.327   3.132  18.476  0.00  0.00    +0.000 A 
ATOM     19  C   UNL     1       1.045   2.700  18.829  0.00  0.00    +0.000 A 
ATOM     20  C   UNL     1       0.768   2.408  20.165  0.00  0.00    +0.000 A 
ATOM     21  C   UNL     1       1.765   2.552  21.134  0.00  0.00    +0.000 A 
ATOM     22  C   UNL     1       3.038   3.002  20.771  0.00  0.00    +0.000 A 
ATOM     23  C   UNL     1       3.318   3.292  19.431  0.00  0.00    +0.000 A 
ATOM     24  C   UNL     1       4.645   3.782  19.005  0.00  0.00    +0.000 A 
ATOM     25  O   UNL     1       5.520   3.963  19.849  0.00  0.00    +0.000 OA
ENDBRANCH  14  15
ENDBRANCH   1  14
TORSDOF 5
ENDMDL
MODEL 8
REMARK VINA RESULT:      -7.2      2.156      3.190
REMARK  Name = 
REMARK  6 active torsions:
REMARK  status: ('A' for Active; 'I' for Inactive)
REMARK    1  A    between atoms: C_1  and  C_2
REMARK    2  A    between atoms: C_2  and  C_3
REMARK    3  A    between atoms: C_3  and  C_4
REMARK    4  A    between atoms: C_3  and  N_16
REMARK    5  A    between atoms: C_4  and  N_5
REMARK    6  A    between atoms: C_17  and  C_19
REMARK                            x       y       z     vdW  Elec       q    Type
REMARK                         _______ _______ _______ _____ _____    ______ ____
ROOT
ATOM      1  C   UNL     1       5.604   4.549  18.288  0.00  0.00    +0.000 C 
ENDROOT
BRANCH   1   2
ATOM      2  N   UNL     1       5.809   4.575  16.835  0.00  0.00    +0.000 N 
ATOM      3  C   UNL     1       7.043   4.411  16.244  0.00  0.00    +0.000 C 
ATOM      4  O   UNL     1       8.080   4.215  16.869  0.00  0.00    +0.000 OA
ATOM      5  H   UNL     1       5.007   4.694  16.219  0.00  0.00    +0.000 HD
BRANCH   3   6
ATOM      6  C   UNL     1       7.053   4.492  14.757  0.00  0.00    +0.000 A 
ATOM      7  C   UNL     1       6.207   3.674  14.021  0.00  0.00    +0.000 A 
ATOM      8  N   UNL     1       6.179   3.687  12.663  0.00  0.00    +0.000 NA
ATOM      9  C   UNL     1       7.039   4.552  12.078  0.00  0.00    +0.000 A 
ATOM     10  C   UNL     1       7.886   5.374  12.812  0.00  0.00    +0.000 A 
ATOM     11  N   UNL     1       7.916   5.371  14.168  0.00  0.00    +0.000 NA
ENDBRANCH   3   6
ENDBRANCH   1   2
BRANCH   1  13
ATOM     12  C   UNL     1       7.448   5.554  19.787  0.00  0.00    +0.000 C 
ATOM     13  C   UNL     1       6.236   5.817  18.903  0.00  0.00    +0.000 C 
ENDBRANCH   1  13
BRANCH   1  14
ATOM     14  C   UNL     1       4.105   4.419  18.638  0.00  0.00    +0.000 C 
BRANCH  14  15
ATOM     15  N   UNL     1       3.406   5.708  18.691  0.00  0.00    +0.000 N 
ATOM     16  N   UNL     1       3.534   6.513  17.575  0.00  0.00    +0.000 NA
ATOM     17  C   UNL     1       2.952   7.670  17.586  0.00  0.00    +0.000 A 
ATOM     18  C   UNL     1       2.165   8.185  18.699  0.00  0.00    +0.000 A 
ATOM     19  C   UNL     1       1.583   9.454  18.642  0.00  0.00    +0.000 A 
ATOM     20  C   UNL     1       0.813   9.899  19.717  0.00  0.00    +0.000 A 
ATOM     21  C   UNL     1       0.634   9.081  20.836  0.00  0.00    +0.000 A 
ATOM     22  C   UNL     1       1.237   7.821  20.888  0.00  0.00    +0.000 A 
ATOM     23  C   UNL     1       2.007   7.372  19.810  0.00  0.00    +0.000 A 
ATOM     24  C   UNL     1       2.672   6.052  19.828  0.00  0.00    +0.000 A 
ATOM     25  O   UNL     1       2.568   5.340  20.824  0.00  0.00    +0.000 OA
ENDBRANCH  14  15
ENDBRANCH   1  14
TORSDOF 5
ENDMDL
MODEL 9
REMARK VINA RESULT:      -7.1      2.911      6.855
REMARK  Name = 
REMARK  6 active torsions:
REMARK  status: ('A' for Active; 'I' for Inactive)
REMARK    1  A    between atoms: C_1  and  C_2
REMARK    2  A    between atoms: C_2  and  C_3
REMARK    3  A    between atoms: C_3  and  C_4
REMARK    4  A    between atoms: C_3  and  N_16
REMARK    5  A    between atoms: C_4  and  N_5
REMARK    6  A    between atoms: C_17  and  C_19
REMARK                            x       y       z     vdW  Elec       q    Type
REMARK                         _______ _______ _______ _____ _____    ______ ____
ROOT
ATOM      1  C   UNL     1       2.614   4.638  20.790  0.00  0.00    +0.000 C 
ENDROOT
BRANCH   1   2
ATOM      2  N   UNL     1       2.506   5.869  19.998  0.00  0.00    +0.000 N 
ATOM      3  C   UNL     1       1.824   6.986  20.428  0.00  0.00    +0.000 C 
ATOM      4  O   UNL     1       1.257   7.065  21.513  0.00  0.00    +0.000 OA
ATOM      5  H   UNL     1       2.974   5.925  19.096  0.00  0.00    +0.000 HD
BRANCH   3   6
ATOM      6  C   UNL     1       1.807   8.130  19.474  0.00  0.00    +0.000 A 
ATOM      7  C   UNL     1       2.477   8.021  18.264  0.00  0.00    +0.000 A 
ATOM      8  N   UNL     1       2.513   9.032  17.357  0.00  0.00    +0.000 NA
ATOM      9  C   UNL     1       1.852  10.155  17.721  0.00  0.00    +0.000 A 
ATOM     10  C   UNL     1       1.179  10.267  18.932  0.00  0.00    +0.000 A 
ATOM     11  N   UNL     1       1.133   9.259  19.839  0.00  0.00    +0.000 NA
ENDBRANCH   3   6
ENDBRANCH   1   2
BRANCH   1  13
ATOM     12  C   UNL     1       1.271   2.529  21.424  0.00  0.00    +0.000 C 
ATOM     13  C   UNL     1       1.303   3.835  20.643  0.00  0.00    +0.000 C 
ENDBRANCH   1  13
BRANCH   1  14
ATOM     14  C   UNL     1       3.851   3.813  20.373  0.00  0.00    +0.000 C 
BRANCH  14  15
ATOM     15  N   UNL     1       4.222   3.992  18.965  0.00  0.00    +0.000 N 
ATOM     16  N   UNL     1       3.223   3.756  18.041  0.00  0.00    +0.000 NA
ATOM     17  C   UNL     1       3.511   3.880  16.784  0.00  0.00    +0.000 A 
ATOM     18  C   UNL     1       4.823   4.255  16.274  0.00  0.00    +0.000 A 
ATOM     19  C   UNL     1       5.060   4.349  14.900  0.00  0.00    +0.000 A 
ATOM     20  C   UNL     1       6.323   4.739  14.452  0.00  0.00    +0.000 A 
ATOM     21  C   UNL     1       7.335   5.025  15.372  0.00  0.00    +0.000 A 
ATOM     22  C   UNL     1       7.090   4.909  16.744  0.00  0.00    +0.000 A 
ATOM     23  C   UNL     1       5.824   4.522  17.195  0.00  0.00    +0.000 A 
ATOM     24  C   UNL     1       5.525   4.375  18.634  0.00  0.00    +0.000 A 
ATOM     25  O   UNL     1       6.415   4.573  19.457  0.00  0.00    +0.000 OA
ENDBRANCH  14  15
ENDBRANCH   1  14
TORSDOF 5
ENDMDL
