MODEL 1
REMARK VINA RESULT:      -9.2      0.000      0.000
REMARK  Name = 
REMARK  13 active torsions:
REMARK  status: ('A' for Active; 'I' for Inactive)
REMARK    1  A    between atoms: C_1  and  C_2
REMARK    2  A    between atoms: C_2  and  C_3
REMARK    3  A    between atoms: C_3  and  C_4
REMARK    4  A    between atoms: C_4  and  N_5
REMARK    5  A    between atoms: N_5  and  C_24
REMARK    6  A    between atoms: C_6  and  C_8
REMARK    7  A    between atoms: C_8  and  C_9
REMARK    8  A    between atoms: C_9  and  N_10
REMARK    9  A    between atoms: N_13  and  C_14
REMARK   10  A    between atoms: C_25  and  N_26
REMARK   11  A    between atoms: N_27  and  C_28
REMARK   12  A    between atoms: C_28  and  C_29
REMARK   13  A    between atoms: C_29  and  C_30
REMARK                            x       y       z     vdW  Elec       q    Type
REMARK                         _______ _______ _______ _____ _____    ______ ____
ROOT
ATOM      1  N   UNL     1       5.734   4.767  17.154  0.00  0.00    +0.000 N 
ATOM      2  C   UNL     1       7.096   4.960  17.429  0.00  0.00    +0.000 C 
ATOM      3  O   UNL     1       7.982   4.316  16.873  0.00  0.00    +0.000 OA
ENDROOT
BRANCH   1   4
ATOM      4  C   UNL     1       4.743   5.434  17.900  0.00  0.00    +0.000 A 
ATOM      5  C   UNL     1       4.189   4.935  19.032  0.00  0.00    +0.000 A 
ATOM      6  N   UNL     1       3.147   5.636  19.652  0.00  0.00    +0.000 N 
ATOM      7  C   UNL     1       2.715   6.879  19.202  0.00  0.00    +0.000 A 
ATOM      8  O   UNL     1       1.747   7.486  19.655  0.00  0.00    +0.000 OA
ATOM      9  N   UNL     1       3.414   7.428  18.167  0.00  0.00    +0.000 N 
ATOM     10  C   UNL     1       4.278   6.755  17.360  0.00  0.00    +0.000 A 
ATOM     11  O   UNL     1       4.636   7.205  16.281  0.00  0.00    +0.000 OA
ATOM     12  H   UNL     1       3.051   8.300  17.803  0.00  0.00    +0.000 HD
BRANCH   5  13
ATOM     13  N   UNL     1       4.630   3.746  19.592  0.00  0.00    +0.000 N 
ATOM     14  H   UNL     1       5.640   3.654  19.646  0.00  0.00    +0.000 HD
ATOM     15  H   UNL     1       4.214   2.908  19.219  0.00  0.00    +0.000 HD
ENDBRANCH   5  13
BRANCH   6  16
ATOM     16  C   UNL     1       2.413   5.035  20.780  0.00  0.00    +0.000 C 
BRANCH  16  17
ATOM     17  C   UNL     1       1.236   4.128  20.408  0.00  0.00    +0.000 C 
ATOM     18  C   UNL     1       1.288   2.768  21.081  0.00  0.00    +0.000 C 
ENDBRANCH  16  17
ENDBRANCH   6  16
ENDBRANCH   1   4
BRANCH   1  19
ATOM     19  C   UNL     1       5.316   3.761  16.149  0.00  0.00    +0.000 C 
BRANCH  19  20
ATOM     20  C   UNL     1       5.307   4.215  14.676  0.00  0.00    +0.000 C 
BRANCH  20  22
ATOM     21  C   UNL     1       5.826   3.461  12.377  0.00  0.00    +0.000 C 
ATOM     22  C   UNL     1       6.418   3.686  13.768  0.00  0.00    +0.000 C 
ENDBRANCH  20  22
ENDBRANCH  19  20
ENDBRANCH   1  19
BRANCH   2  23
ATOM     23  C   UNL     1       7.475   6.034  18.498  0.00  0.00    +0.000 C 
BRANCH  23  24
ATOM     24  C   UNL     1       7.791   7.421  17.978  0.00  0.00    +0.000 C 
BRANCH  24  25
ATOM     25  N   UNL     1       8.610   8.191  18.924  0.00  0.00    +0.000 N 
ATOM     26  C   UNL     1       8.850   9.514  18.656  0.00  0.00    +0.000 C 
ATOM     27  O   UNL     1       8.359  10.071  17.686  0.00  0.00    +0.000 OA
ATOM     28  N   UNL     1       9.689  10.133  19.553  0.00  0.00    +0.000 N 
ATOM     29  H   UNL     1       9.194   7.701  19.587  0.00  0.00    +0.000 HD
ATOM     30  H   UNL     1       9.776   9.712  20.465  0.00  0.00    +0.000 HD
BRANCH  28  31
ATOM     31  C   UNL     1      10.035  11.564  19.414  0.00  0.00    +0.000 C 
ATOM     32  C   UNL     1      11.409  11.891  20.059  0.00  0.00    +0.000 C 
ATOM     33  C   UNL     1      11.724  13.393  19.945  0.00  0.00    +0.000 C 
ATOM     34  C   UNL     1      11.798  13.789  18.463  0.00  0.00    +0.000 C 
ATOM     35  C   UNL     1      10.465  13.464  17.765  0.00  0.00    +0.000 C 
ATOM     36  C   UNL     1       9.350  14.285  18.426  0.00  0.00    +0.000 C 
ATOM     37  C   UNL     1       9.263  13.941  19.919  0.00  0.00    +0.000 C 
ATOM     38  C   UNL     1      10.606  14.206  20.619  0.00  0.00    +0.000 C 
ATOM     39  C   UNL     1       8.938  12.451  20.066  0.00  0.00    +0.000 C 
ATOM     40  C   UNL     1      10.151  11.959  17.914  0.00  0.00    +0.000 C 
ENDBRANCH  28  31
ENDBRANCH  24  25
ENDBRANCH  23  24
ENDBRANCH   2  23
TORSDOF 11
ENDMDL
MODEL 2
REMARK VINA RESULT:      -9.1      0.602      1.427
REMARK  Name = 
REMARK  13 active torsions:
REMARK  status: ('A' for Active; 'I' for Inactive)
REMARK    1  A    between atoms: C_1  and  C_2
REMARK    2  A    between atoms: C_2  and  C_3
REMARK    3  A    between atoms: C_3  and  C_4
REMARK    4  A    between atoms: C_4  and  N_5
REMARK    5  A    between atoms: N_5  and  C_24
REMARK    6  A    between atoms: C_6  and  C_8
REMARK    7  A    between atoms: C_8  and  C_9
REMARK    8  A    between atoms: C_9  and  N_10
REMARK    9  A    between atoms: N_13  and  C_14
REMARK   10  A    between atoms: C_25  and  N_26
REMARK   11  A    between atoms: N_27  and  C_28
REMARK   12  A    between atoms: C_28  and  C_29
REMARK   13  A    between atoms: C_29  and  C_30
REMARK                            x       y       z     vdW  Elec       q    Type
REMARK                         _______ _______ _______ _____ _____    ______ ____
ROOT
ATOM      1  N   UNL     1       5.854   4.600  16.851  0.00  0.00    +0.000 N 
ATOM      2  C   UNL     1       7.205   4.935  17.027  0.00  0.00    +0.000 C 
ATOM      3  O   UNL     1       8.094   4.509  16.294  0.00  0.00    +0.000 OA
ENDROOT
BRANCH   1   4
ATOM      4  C   UNL     1       4.880   5.006  17.784  0.00  0.00    +0.000 A 
ATOM      5  C   UNL     1       4.545   4.287  18.884  0.00  0.00    +0.000 A 
ATOM      6  N   UNL     1       3.501   4.734  19.703  0.00  0.00    +0.000 N 
ATOM      7  C   UNL     1       2.848   5.943  19.484  0.00  0.00    +0.000 A 
ATOM      8  O   UNL     1       1.869   6.330  20.118  0.00  0.00    +0.000 OA
ATOM      9  N   UNL     1       3.330   6.720  18.472  0.00  0.00    +0.000 N 
ATOM     10  C   UNL     1       4.173   6.297  17.492  0.00  0.00    +0.000 A 
ATOM     11  O   UNL     1       4.329   6.931  16.457  0.00  0.00    +0.000 OA
ATOM     12  H   UNL     1       2.808   7.565  18.277  0.00  0.00    +0.000 HD
BRANCH   5  13
ATOM     13  N   UNL     1       5.213   3.119  19.217  0.00  0.00    +0.000 N 
ATOM     14  H   UNL     1       4.805   2.274  18.830  0.00  0.00    +0.000 HD
ATOM     15  H   UNL     1       5.421   3.001  20.196  0.00  0.00    +0.000 HD
ENDBRANCH   5  13
BRANCH   6  16
ATOM     16  C   UNL     1       3.003   3.889  20.802  0.00  0.00    +0.000 C 
BRANCH  16  17
ATOM     17  C   UNL     1       2.137   2.693  20.390  0.00  0.00    +0.000 C 
ATOM     18  C   UNL     1       0.653   2.919  20.617  0.00  0.00    +0.000 C 
ENDBRANCH  16  17
ENDBRANCH   6  16
ENDBRANCH   1   4
BRANCH   1  19
ATOM     19  C   UNL     1       5.450   3.708  15.739  0.00  0.00    +0.000 C 
BRANCH  19  20
ATOM     20  C   UNL     1       5.434   4.325  14.325  0.00  0.00    +0.000 C 
BRANCH  20  22
ATOM     21  C   UNL     1       5.271   3.294  12.083  0.00  0.00    +0.000 C 
ATOM     22  C   UNL     1       6.227   3.607  13.233  0.00  0.00    +0.000 C 
ENDBRANCH  20  22
ENDBRANCH  19  20
ENDBRANCH   1  19
BRANCH   2  23
ATOM     23  C   UNL     1       7.570   5.878  18.217  0.00  0.00    +0.000 C 
BRANCH  23  24
ATOM     24  C   UNL     1       7.624   7.360  17.910  0.00  0.00    +0.000 C 
BRANCH  24  25
ATOM     25  N   UNL     1       8.575   8.068  18.779  0.00  0.00    +0.000 N 
ATOM     26  C   UNL     1       8.759   9.413  18.590  0.00  0.00    +0.000 C 
ATOM     27  O   UNL     1       8.118  10.037  17.756  0.00  0.00    +0.000 OA
ATOM     28  N   UNL     1       9.722   9.975  19.394  0.00  0.00    +0.000 N 
ATOM     29  H   UNL     1       9.259   7.539  19.301  0.00  0.00    +0.000 HD
ATOM     30  H   UNL     1       9.953   9.483  20.244  0.00  0.00    +0.000 HD
BRANCH  28  31
ATOM     31  C   UNL     1      10.030  11.420  19.324  0.00  0.00    +0.000 C 
ATOM     32  C   UNL     1       8.931  12.278  20.008  0.00  0.00    +0.000 C 
ATOM     33  C   UNL     1       9.249  13.778  19.880  0.00  0.00    +0.000 C 
ATOM     34  C   UNL     1      10.581  14.081  20.581  0.00  0.00    +0.000 C 
ATOM     35  C   UNL     1      11.707  13.236  19.956  0.00  0.00    +0.000 C 
ATOM     36  C   UNL     1      11.845  13.618  18.476  0.00  0.00    +0.000 C 
ATOM     37  C   UNL     1      10.522  13.360  17.744  0.00  0.00    +0.000 C 
ATOM     38  C   UNL     1       9.376  14.152  18.394  0.00  0.00    +0.000 C 
ATOM     39  C   UNL     1      10.183  11.868  17.844  0.00  0.00    +0.000 C 
ATOM     40  C   UNL     1      11.359  11.736  20.068  0.00  0.00    +0.000 C 
ENDBRANCH  28  31
ENDBRANCH  24  25
ENDBRANCH  23  24
ENDBRANCH   2  23
TORSDOF 11
ENDMDL
MODEL 3
REMARK VINA RESULT:      -8.7      0.698      1.575
REMARK  Name = 
REMARK  13 active torsions:
REMARK  status: ('A' for Active; 'I' for Inactive)
REMARK    1  A    between atoms: C_1  and  C_2
REMARK    2  A    between atoms: C_2  and  C_3
REMARK    3  A    between atoms: C_3  and  C_4
REMARK    4  A    between atoms: C_4  and  N_5
REMARK    5  A    between atoms: N_5  and  C_24
REMARK    6  A    between atoms: C_6  and  C_8
REMARK    7  A    between atoms: C_8  and  C_9
REMARK    8  A    between atoms: C_9  and  N_10
REMARK    9  A    between atoms: N_13  and  C_14
REMARK   10  A    between atoms: C_25  and  N_26
REMARK   11  A    between atoms: N_27  and  C_28
REMARK   12  A    between atoms: C_28  and  C_29
REMARK   13  A    between atoms: C_29  and  C_30
REMARK                            x       y       z     vdW  Elec       q    Type
REMARK                         _______ _______ _______ _____ _____    ______ ____
ROOT
ATOM      1  N   UNL     1       5.905   4.612  17.339  0.00  0.00    +0.000 N 
ATOM      2  C   UNL     1       7.253   4.911  17.591  0.00  0.00    +0.000 C 
ATOM      3  O   UNL     1       8.177   4.320  17.038  0.00  0.00    +0.000 OA
ENDROOT
BRANCH   1   4
ATOM      4  C   UNL     1       4.877   5.221  18.084  0.00  0.00    +0.000 A 
ATOM      5  C   UNL     1       4.337   4.680  19.204  0.00  0.00    +0.000 A 
ATOM      6  N   UNL     1       3.257   5.322  19.822  0.00  0.00    +0.000 N 
ATOM      7  C   UNL     1       2.771   6.550  19.385  0.00  0.00    +0.000 A 
ATOM      8  O   UNL     1       1.771   7.104  19.837  0.00  0.00    +0.000 OA
ATOM      9  N   UNL     1       3.452   7.145  18.365  0.00  0.00    +0.000 N 
ATOM     10  C   UNL     1       4.355   6.526  17.558  0.00  0.00    +0.000 A 
ATOM     11  O   UNL     1       4.702   7.007  16.488  0.00  0.00    +0.000 OA
ATOM     12  H   UNL     1       3.053   8.005  18.009  0.00  0.00    +0.000 HD
BRANCH   5  13
ATOM     13  N   UNL     1       4.829   3.506  19.751  0.00  0.00    +0.000 N 
ATOM     14  H   UNL     1       4.268   3.125  20.507  0.00  0.00    +0.000 HD
ATOM     15  H   UNL     1       5.805   3.517  20.000  0.00  0.00    +0.000 HD
ENDBRANCH   5  13
BRANCH   6  16
ATOM     16  C   UNL     1       2.542   4.672  20.935  0.00  0.00    +0.000 C 
BRANCH  16  17
ATOM     17  C   UNL     1       1.492   3.628  20.539  0.00  0.00    +0.000 C 
ATOM     18  C   UNL     1       1.376   2.486  21.533  0.00  0.00    +0.000 C 
ENDBRANCH  16  17
ENDBRANCH   6  16
ENDBRANCH   1   4
BRANCH   1  19
ATOM     19  C   UNL     1       5.551   3.556  16.362  0.00  0.00    +0.000 C 
BRANCH  19  20
ATOM     20  C   UNL     1       5.060   4.028  14.978  0.00  0.00    +0.000 C 
BRANCH  20  22
ATOM     21  C   UNL     1       7.225   4.438  13.852  0.00  0.00    +0.000 C 
ATOM     22  C   UNL     1       5.899   5.083  14.255  0.00  0.00    +0.000 C 
ENDBRANCH  20  22
ENDBRANCH  19  20
ENDBRANCH   1  19
BRANCH   2  23
ATOM     23  C   UNL     1       7.565   6.032  18.633  0.00  0.00    +0.000 C 
BRANCH  23  24
ATOM     24  C   UNL     1       7.852   7.409  18.073  0.00  0.00    +0.000 C 
BRANCH  24  25
ATOM     25  N   UNL     1       8.617   8.239  19.015  0.00  0.00    +0.000 N 
ATOM     26  C   UNL     1       8.963   9.510  18.638  0.00  0.00    +0.000 C 
ATOM     27  O   UNL     1       8.606   9.980  17.567  0.00  0.00    +0.000 OA
ATOM     28  N   UNL     1       9.743  10.183  19.549  0.00  0.00    +0.000 N 
ATOM     29  H   UNL     1       9.100   7.797  19.785  0.00  0.00    +0.000 HD
ATOM     30  H   UNL     1       9.711   9.861  20.504  0.00  0.00    +0.000 HD
BRANCH  28  31
ATOM     31  C   UNL     1      10.186  11.571  19.298  0.00  0.00    +0.000 C 
ATOM     32  C   UNL     1       9.039  12.450  18.731  0.00  0.00    +0.000 C 
ATOM     33  C   UNL     1       9.537  13.875  18.434  0.00  0.00    +0.000 C 
ATOM     34  C   UNL     1      10.027  14.529  19.734  0.00  0.00    +0.000 C 
ATOM     35  C   UNL     1      11.153  13.683  20.355  0.00  0.00    +0.000 C 
ATOM     36  C   UNL     1      12.330  13.632  19.371  0.00  0.00    +0.000 C 
ATOM     37  C   UNL     1      11.874  13.013  18.044  0.00  0.00    +0.000 C 
ATOM     38  C   UNL     1      10.709  13.814  17.440  0.00  0.00    +0.000 C 
ATOM     39  C   UNL     1      11.382  11.585  18.306  0.00  0.00    +0.000 C 
ATOM     40  C   UNL     1      10.645  12.249  20.621  0.00  0.00    +0.000 C 
ENDBRANCH  28  31
ENDBRANCH  24  25
ENDBRANCH  23  24
ENDBRANCH   2  23
TORSDOF 11
ENDMDL
MODEL 4
REMARK VINA RESULT:      -8.3      5.286      6.969
REMARK  Name = 
REMARK  13 active torsions:
REMARK  status: ('A' for Active; 'I' for Inactive)
REMARK    1  A    between atoms: C_1  and  C_2
REMARK    2  A    between atoms: C_2  and  C_3
REMARK    3  A    between atoms: C_3  and  C_4
REMARK    4  A    between atoms: C_4  and  N_5
REMARK    5  A    between atoms: N_5  and  C_24
REMARK    6  A    between atoms: C_6  and  C_8
REMARK    7  A    between atoms: C_8  and  C_9
REMARK    8  A    between atoms: C_9  and  N_10
REMARK    9  A    between atoms: N_13  and  C_14
REMARK   10  A    between atoms: C_25  and  N_26
REMARK   11  A    between atoms: N_27  and  C_28
REMARK   12  A    between atoms: C_28  and  C_29
REMARK   13  A    between atoms: C_29  and  C_30
REMARK                            x       y       z     vdW  Elec       q    Type
REMARK                         _______ _______ _______ _____ _____    ______ ____
ROOT
ATOM      1  N   UNL     1       5.262   4.817  16.546  0.00  0.00    +0.000 N 
ATOM      2  C   UNL     1       5.122   6.214  16.535  0.00  0.00    +0.000 C 
ATOM      3  O   UNL     1       5.593   6.920  15.647  0.00  0.00    +0.000 OA
ENDROOT
BRANCH   1   4
ATOM      4  C   UNL     1       4.819   4.054  17.643  0.00  0.00    +0.000 A 
ATOM      5  C   UNL     1       3.576   3.523  17.739  0.00  0.00    +0.000 A 
ATOM      6  N   UNL     1       3.204   2.854  18.912  0.00  0.00    +0.000 N 
ATOM      7  C   UNL     1       4.096   2.631  19.956  0.00  0.00    +0.000 A 
ATOM      8  O   UNL     1       3.790   2.133  21.037  0.00  0.00    +0.000 OA
ATOM      9  N   UNL     1       5.384   3.026  19.750  0.00  0.00    +0.000 N 
ATOM     10  C   UNL     1       5.799   3.868  18.765  0.00  0.00    +0.000 A 
ATOM     11  O   UNL     1       6.887   4.424  18.807  0.00  0.00    +0.000 OA
ATOM     12  H   UNL     1       6.010   2.921  20.539  0.00  0.00    +0.000 HD
BRANCH   5  13
ATOM     13  N   UNL     1       2.663   3.625  16.701  0.00  0.00    +0.000 N 
ATOM     14  H   UNL     1       2.058   4.439  16.750  0.00  0.00    +0.000 HD
ATOM     15  H   UNL     1       2.129   2.793  16.507  0.00  0.00    +0.000 HD
ENDBRANCH   5  13
BRANCH   6  16
ATOM     16  C   UNL     1       1.810   2.419  19.111  0.00  0.00    +0.000 C 
BRANCH  16  17
ATOM     17  C   UNL     1       1.082   3.029  20.313  0.00  0.00    +0.000 C 
ATOM     18  C   UNL     1       1.088   4.548  20.311  0.00  0.00    +0.000 C 
ENDBRANCH  16  17
ENDBRANCH   6  16
ENDBRANCH   1   4
BRANCH   1  19
ATOM     19  C   UNL     1       5.991   4.137  15.450  0.00  0.00    +0.000 C 
BRANCH  19  20
ATOM     20  C   UNL     1       5.273   4.052  14.087  0.00  0.00    +0.000 C 
BRANCH  20  22
ATOM     21  C   UNL     1       5.157   3.040  11.833  0.00  0.00    +0.000 C 
ATOM     22  C   UNL     1       6.105   3.629  12.877  0.00  0.00    +0.000 C 
ENDBRANCH  20  22
ENDBRANCH  19  20
ENDBRANCH   1  19
BRANCH   2  23
ATOM     23  C   UNL     1       4.345   6.874  17.718  0.00  0.00    +0.000 C 
BRANCH  23  24
ATOM     24  C   UNL     1       2.900   7.243  17.452  0.00  0.00    +0.000 C 
BRANCH  24  25
ATOM     25  N   UNL     1       2.233   7.759  18.655  0.00  0.00    +0.000 N 
ATOM     26  C   UNL     1       1.576   8.960  18.576  0.00  0.00    +0.000 C 
ATOM     27  O   UNL     1       1.491   9.577  17.524  0.00  0.00    +0.000 OA
ATOM     28  N   UNL     1       1.049   9.400  19.768  0.00  0.00    +0.000 N 
ATOM     29  H   UNL     1       2.482   7.384  19.560  0.00  0.00    +0.000 HD
ATOM     30  H   UNL     1       0.881   8.705  20.479  0.00  0.00    +0.000 HD
BRANCH  28  31
ATOM     31  C   UNL     1       0.296  10.670  19.848  0.00  0.00    +0.000 C 
ATOM     32  C   UNL     1      -0.989  10.635  18.977  0.00  0.00    +0.000 C 
ATOM     33  C   UNL     1      -1.728  11.983  19.039  0.00  0.00    +0.000 C 
ATOM     34  C   UNL     1      -2.154  12.268  20.487  0.00  0.00    +0.000 C 
ATOM     35  C   UNL     1      -0.917  12.290  21.403  0.00  0.00    +0.000 C 
ATOM     36  C   UNL     1       0.015  13.421  20.945  0.00  0.00    +0.000 C 
ATOM     37  C   UNL     1       0.439  13.190  19.489  0.00  0.00    +0.000 C 
ATOM     38  C   UNL     1      -0.791  13.108  18.569  0.00  0.00    +0.000 C 
ATOM     39  C   UNL     1       1.190  11.858  19.396  0.00  0.00    +0.000 C 
ATOM     40  C   UNL     1      -0.171  10.941  21.307  0.00  0.00    +0.000 C 
ENDBRANCH  28  31
ENDBRANCH  24  25
ENDBRANCH  23  24
ENDBRANCH   2  23
TORSDOF 11
ENDMDL
MODEL 5
REMARK VINA RESULT:      -8.3      1.120      1.882
REMARK  Name = 
REMARK  13 active torsions:
REMARK  status: ('A' for Active; 'I' for Inactive)
REMARK    1  A    between atoms: C_1  and  C_2
REMARK    2  A    between atoms: C_2  and  C_3
REMARK    3  A    between atoms: C_3  and  C_4
REMARK    4  A    between atoms: C_4  and  N_5
REMARK    5  A    between atoms: N_5  and  C_24
REMARK    6  A    between atoms: C_6  and  C_8
REMARK    7  A    between atoms: C_8  and  C_9
REMARK    8  A    between atoms: C_9  and  N_10
REMARK    9  A    between atoms: N_13  and  C_14
REMARK   10  A    between atoms: C_25  and  N_26
REMARK   11  A    between atoms: N_27  and  C_28
REMARK   12  A    between atoms: C_28  and  C_29
REMARK   13  A    between atoms: C_29  and  C_30
REMARK                            x       y       z     vdW  Elec       q    Type
REMARK                         _______ _______ _______ _____ _____    ______ ____
ROOT
ATOM      1  N   UNL     1       5.599   4.909  17.133  0.00  0.00    +0.000 N 
ATOM      2  C   UNL     1       6.838   5.557  17.264  0.00  0.00    +0.000 C 
ATOM      3  O   UNL     1       7.774   5.357  16.494  0.00  0.00    +0.000 OA
ENDROOT
BRANCH   1   4
ATOM      4  C   UNL     1       4.594   5.068  18.106  0.00  0.00    +0.000 A 
ATOM      5  C   UNL     1       4.321   4.149  19.064  0.00  0.00    +0.000 A 
ATOM      6  N   UNL     1       3.241   4.362  19.931  0.00  0.00    +0.000 N 
ATOM      7  C   UNL     1       2.487   5.530  19.907  0.00  0.00    +0.000 A 
ATOM      8  O   UNL     1       1.477   5.720  20.582  0.00  0.00    +0.000 OA
ATOM      9  N   UNL     1       2.901   6.504  19.048  0.00  0.00    +0.000 N 
ATOM     10  C   UNL     1       3.778   6.325  18.023  0.00  0.00    +0.000 A 
ATOM     11  O   UNL     1       3.879   7.135  17.112  0.00  0.00    +0.000 OA
ATOM     12  H   UNL     1       2.308   7.322  18.989  0.00  0.00    +0.000 HD
BRANCH   5  13
ATOM     13  N   UNL     1       5.087   3.003  19.208  0.00  0.00    +0.000 N 
ATOM     14  H   UNL     1       5.576   2.714  18.367  0.00  0.00    +0.000 HD
ATOM     15  H   UNL     1       4.623   2.220  19.640  0.00  0.00    +0.000 HD
ENDBRANCH   5  13
BRANCH   6  16
ATOM     16  C   UNL     1       2.818   3.304  20.866  0.00  0.00    +0.000 C 
BRANCH  16  17
ATOM     17  C   UNL     1       1.478   2.629  20.552  0.00  0.00    +0.000 C 
ATOM     18  C   UNL     1       1.360   2.169  19.110  0.00  0.00    +0.000 C 
ENDBRANCH  16  17
ENDBRANCH   6  16
ENDBRANCH   1   4
BRANCH   1  19
ATOM     19  C   UNL     1       5.378   3.950  16.025  0.00  0.00    +0.000 C 
BRANCH  19  20
ATOM     20  C   UNL     1       5.372   4.530  14.597  0.00  0.00    +0.000 C 
BRANCH  20  22
ATOM     21  C   UNL     1       7.013   4.505  12.745  0.00  0.00    +0.000 C 
ATOM     22  C   UNL     1       5.968   3.669  13.483  0.00  0.00    +0.000 C 
ENDBRANCH  20  22
ENDBRANCH  19  20
ENDBRANCH   1  19
BRANCH   2  23
ATOM     23  C   UNL     1       7.012   6.555  18.451  0.00  0.00    +0.000 C 
BRANCH  23  24
ATOM     24  C   UNL     1       8.277   7.389  18.450  0.00  0.00    +0.000 C 
BRANCH  24  25
ATOM     25  N   UNL     1       8.056   8.724  17.878  0.00  0.00    +0.000 N 
ATOM     26  C   UNL     1       8.745   9.785  18.406  0.00  0.00    +0.000 C 
ATOM     27  O   UNL     1       9.568   9.636  19.297  0.00  0.00    +0.000 OA
ATOM     28  N   UNL     1       8.417  11.005  17.862  0.00  0.00    +0.000 N 
ATOM     29  H   UNL     1       7.235   8.893  17.314  0.00  0.00    +0.000 HD
ATOM     30  H   UNL     1       7.995  10.999  16.946  0.00  0.00    +0.000 HD
BRANCH  28  31
ATOM     31  C   UNL     1       9.083  12.247  18.311  0.00  0.00    +0.000 C 
ATOM     32  C   UNL     1       8.278  13.512  17.907  0.00  0.00    +0.000 C 
ATOM     33  C   UNL     1       9.014  14.791  18.343  0.00  0.00    +0.000 C 
ATOM     34  C   UNL     1       9.163  14.801  19.871  0.00  0.00    +0.000 C 
ATOM     35  C   UNL     1       9.936  13.552  20.332  0.00  0.00    +0.000 C 
ATOM     36  C   UNL     1      11.340  13.585  19.712  0.00  0.00    +0.000 C 
ATOM     37  C   UNL     1      11.235  13.608  18.182  0.00  0.00    +0.000 C 
ATOM     38  C   UNL     1      10.415  14.820  17.709  0.00  0.00    +0.000 C 
ATOM     39  C   UNL     1      10.515  12.338  17.715  0.00  0.00    +0.000 C 
ATOM     40  C   UNL     1       9.199  12.278  19.862  0.00  0.00    +0.000 C 
ENDBRANCH  28  31
ENDBRANCH  24  25
ENDBRANCH  23  24
ENDBRANCH   2  23
TORSDOF 11
ENDMDL
MODEL 6
REMARK VINA RESULT:      -8.3      5.278      6.810
REMARK  Name = 
REMARK  13 active torsions:
REMARK  status: ('A' for Active; 'I' for Inactive)
REMARK    1  A    between atoms: C_1  and  C_2
REMARK    2  A    between atoms: C_2  and  C_3
REMARK    3  A    between atoms: C_3  and  C_4
REMARK    4  A    between atoms: C_4  and  N_5
REMARK    5  A    between atoms: N_5  and  C_24
REMARK    6  A    between atoms: C_6  and  C_8
REMARK    7  A    between atoms: C_8  and  C_9
REMARK    8  A    between atoms: C_9  and  N_10
REMARK    9  A    between atoms: N_13  and  C_14
REMARK   10  A    between atoms: C_25  and  N_26
REMARK   11  A    between atoms: N_27  and  C_28
REMARK   12  A    between atoms: C_28  and  C_29
REMARK   13  A    between atoms: C_29  and  C_30
REMARK                            x       y       z     vdW  Elec       q    Type
REMARK                         _______ _______ _______ _____ _____    ______ ____
ROOT
ATOM      1  N   UNL     1       5.234   4.828  16.555  0.00  0.00    +0.000 N 
ATOM      2  C   UNL     1       5.091   6.224  16.527  0.00  0.00    +0.000 C 
ATOM      3  O   UNL     1       5.574   6.922  15.639  0.00  0.00    +0.000 OA
ENDROOT
BRANCH   1   4
ATOM      4  C   UNL     1       4.776   4.075  17.654  0.00  0.00    +0.000 A 
ATOM      5  C   UNL     1       3.534   3.539  17.734  0.00  0.00    +0.000 A 
ATOM      6  N   UNL     1       3.145   2.882  18.908  0.00  0.00    +0.000 N 
ATOM      7  C   UNL     1       4.020   2.675  19.970  0.00  0.00    +0.000 A 
ATOM      8  O   UNL     1       3.699   2.188  21.051  0.00  0.00    +0.000 OA
ATOM      9  N   UNL     1       5.310   3.073  19.781  0.00  0.00    +0.000 N 
ATOM     10  C   UNL     1       5.738   3.906  18.794  0.00  0.00    +0.000 A 
ATOM     11  O   UNL     1       6.823   4.468  18.848  0.00  0.00    +0.000 OA
ATOM     12  H   UNL     1       5.923   2.980  20.581  0.00  0.00    +0.000 HD
BRANCH   5  13
ATOM     13  N   UNL     1       2.638   3.626  16.680  0.00  0.00    +0.000 N 
ATOM     14  H   UNL     1       2.747   4.452  16.100  0.00  0.00    +0.000 HD
ATOM     15  H   UNL     1       1.670   3.481  16.918  0.00  0.00    +0.000 HD
ENDBRANCH   5  13
BRANCH   6  16
ATOM     16  C   UNL     1       1.750   2.442  19.088  0.00  0.00    +0.000 C 
BRANCH  16  17
ATOM     17  C   UNL     1       0.881   3.324  19.992  0.00  0.00    +0.000 C 
ATOM     18  C   UNL     1       1.395   4.746  20.118  0.00  0.00    +0.000 C 
ENDBRANCH  16  17
ENDBRANCH   6  16
ENDBRANCH   1   4
BRANCH   1  19
ATOM     19  C   UNL     1       5.983   4.138  15.478  0.00  0.00    +0.000 C 
BRANCH  19  20
ATOM     20  C   UNL     1       5.266   3.992  14.120  0.00  0.00    +0.000 C 
BRANCH  20  22
ATOM     21  C   UNL     1       5.165   3.142  11.799  0.00  0.00    +0.000 C 
ATOM     22  C   UNL     1       6.113   3.572  12.918  0.00  0.00    +0.000 C 
ENDBRANCH  20  22
ENDBRANCH  19  20
ENDBRANCH   1  19
BRANCH   2  23
ATOM     23  C   UNL     1       4.293   6.894  17.690  0.00  0.00    +0.000 C 
BRANCH  23  24
ATOM     24  C   UNL     1       2.910   7.409  17.349  0.00  0.00    +0.000 C 
BRANCH  24  25
ATOM     25  N   UNL     1       2.189   7.881  18.540  0.00  0.00    +0.000 N 
ATOM     26  C   UNL     1       1.621   9.129  18.510  0.00  0.00    +0.000 C 
ATOM     27  O   UNL     1       1.658   9.826  17.506  0.00  0.00    +0.000 OA
ATOM     28  N   UNL     1       1.036   9.517  19.692  0.00  0.00    +0.000 N 
ATOM     29  H   UNL     1       2.343   7.424  19.428  0.00  0.00    +0.000 HD
ATOM     30  H   UNL     1       0.769   8.785  20.333  0.00  0.00    +0.000 HD
BRANCH  28  31
ATOM     31  C   UNL     1       0.366  10.829  19.819  0.00  0.00    +0.000 C 
ATOM     32  C   UNL     1      -0.168  11.067  21.258  0.00  0.00    +0.000 C 
ATOM     33  C   UNL     1      -0.903  12.416  21.352  0.00  0.00    +0.000 C 
ATOM     34  C   UNL     1       0.072  13.555  21.021  0.00  0.00    +0.000 C 
ATOM     35  C   UNL     1       0.653  13.356  19.609  0.00  0.00    +0.000 C 
ATOM     36  C   UNL     1      -0.498  13.398  18.594  0.00  0.00    +0.000 C 
ATOM     37  C   UNL     1      -1.513  12.292  18.909  0.00  0.00    +0.000 C 
ATOM     38  C   UNL     1      -2.059  12.445  20.339  0.00  0.00    +0.000 C 
ATOM     39  C   UNL     1      -0.813  10.933  18.811  0.00  0.00    +0.000 C 
ATOM     40  C   UNL     1       1.362  11.986  19.523  0.00  0.00    +0.000 C 
ENDBRANCH  28  31
ENDBRANCH  24  25
ENDBRANCH  23  24
ENDBRANCH   2  23
TORSDOF 11
ENDMDL
MODEL 7
REMARK VINA RESULT:      -8.3      5.248      6.727
REMARK  Name = 
REMARK  13 active torsions:
REMARK  status: ('A' for Active; 'I' for Inactive)
REMARK    1  A    between atoms: C_1  and  C_2
REMARK    2  A    between atoms: C_2  and  C_3
REMARK    3  A    between atoms: C_3  and  C_4
REMARK    4  A    between atoms: C_4  and  N_5
REMARK    5  A    between atoms: N_5  and  C_24
REMARK    6  A    between atoms: C_6  and  C_8
REMARK    7  A    between atoms: C_8  and  C_9
REMARK    8  A    between atoms: C_9  and  N_10
REMARK    9  A    between atoms: N_13  and  C_14
REMARK   10  A    between atoms: C_25  and  N_26
REMARK   11  A    between atoms: N_27  and  C_28
REMARK   12  A    between atoms: C_28  and  C_29
REMARK   13  A    between atoms: C_29  and  C_30
REMARK                            x       y       z     vdW  Elec       q    Type
REMARK                         _______ _______ _______ _____ _____    ______ ____
ROOT
ATOM      1  N   UNL     1       5.248   4.826  16.604  0.00  0.00    +0.000 N 
ATOM      2  C   UNL     1       5.115   6.223  16.581  0.00  0.00    +0.000 C 
ATOM      3  O   UNL     1       5.609   6.921  15.700  0.00  0.00    +0.000 OA
ENDROOT
BRANCH   1   4
ATOM      4  C   UNL     1       4.778   4.072  17.696  0.00  0.00    +0.000 A 
ATOM      5  C   UNL     1       3.542   3.516  17.751  0.00  0.00    +0.000 A 
ATOM      6  N   UNL     1       3.138   2.859  18.920  0.00  0.00    +0.000 N 
ATOM      7  C   UNL     1       3.992   2.671  20.002  0.00  0.00    +0.000 A 
ATOM      8  O   UNL     1       3.655   2.185  21.079  0.00  0.00    +0.000 OA
ATOM      9  N   UNL     1       5.280   3.089  19.839  0.00  0.00    +0.000 N 
ATOM     10  C   UNL     1       5.716   3.924  18.858  0.00  0.00    +0.000 A 
ATOM     11  O   UNL     1       6.791   4.503  18.933  0.00  0.00    +0.000 OA
ATOM     12  H   UNL     1       5.876   3.010  20.654  0.00  0.00    +0.000 HD
BRANCH   5  13
ATOM     13  N   UNL     1       2.669   3.583  16.677  0.00  0.00    +0.000 N 
ATOM     14  H   UNL     1       1.795   4.061  16.872  0.00  0.00    +0.000 HD
ATOM     15  H   UNL     1       2.502   2.714  16.196  0.00  0.00    +0.000 HD
ENDBRANCH   5  13
BRANCH   6  16
ATOM     16  C   UNL     1       1.747   2.398  19.071  0.00  0.00    +0.000 C 
BRANCH  16  17
ATOM     17  C   UNL     1       0.870   3.214  20.028  0.00  0.00    +0.000 C 
ATOM     18  C   UNL     1       1.310   4.661  20.160  0.00  0.00    +0.000 C 
ENDBRANCH  16  17
ENDBRANCH   6  16
ENDBRANCH   1   4
BRANCH   1  19
ATOM     19  C   UNL     1       5.997   4.136  15.527  0.00  0.00    +0.000 C 
BRANCH  19  20
ATOM     20  C   UNL     1       5.270   3.959  14.179  0.00  0.00    +0.000 C 
BRANCH  20  22
ATOM     21  C   UNL     1       5.192   3.252  11.809  0.00  0.00    +0.000 C 
ATOM     22  C   UNL     1       6.127   3.656  12.950  0.00  0.00    +0.000 C 
ENDBRANCH  20  22
ENDBRANCH  19  20
ENDBRANCH   1  19
BRANCH   2  23
ATOM     23  C   UNL     1       4.316   6.894  17.743  0.00  0.00    +0.000 C 
BRANCH  23  24
ATOM     24  C   UNL     1       2.883   7.279  17.440  0.00  0.00    +0.000 C 
BRANCH  24  25
ATOM     25  N   UNL     1       2.207   7.854  18.611  0.00  0.00    +0.000 N 
ATOM     26  C   UNL     1       1.647   9.100  18.498  0.00  0.00    +0.000 C 
ATOM     27  O   UNL     1       1.654   9.713  17.440  0.00  0.00    +0.000 OA
ATOM     28  N   UNL     1       1.107   9.590  19.664  0.00  0.00    +0.000 N 
ATOM     29  H   UNL     1       2.389   7.470  19.528  0.00  0.00    +0.000 HD
ATOM     30  H   UNL     1       0.857   8.916  20.372  0.00  0.00    +0.000 HD
BRANCH  28  31
ATOM     31  C   UNL     1       0.450  10.914  19.706  0.00  0.00    +0.000 C 
ATOM     32  C   UNL     1       1.441  12.060  19.364  0.00  0.00    +0.000 C 
ATOM     33  C   UNL     1       0.747  13.430  19.461  0.00  0.00    +0.000 C 
ATOM     34  C   UNL     1      -0.406  13.493  18.449  0.00  0.00    +0.000 C 
ATOM     35  C   UNL     1      -1.411  12.360  18.727  0.00  0.00    +0.000 C 
ATOM     36  C   UNL     1      -1.995  12.553  20.133  0.00  0.00    +0.000 C 
ATOM     37  C   UNL     1      -0.868  12.529  21.174  0.00  0.00    +0.000 C 
ATOM     38  C   UNL     1       0.174  13.619  20.876  0.00  0.00    +0.000 C 
ATOM     39  C   UNL     1      -0.164  11.169  21.110  0.00  0.00    +0.000 C 
ATOM     40  C   UNL     1      -0.693  10.994  18.653  0.00  0.00    +0.000 C 
ENDBRANCH  28  31
ENDBRANCH  24  25
ENDBRANCH  23  24
ENDBRANCH   2  23
TORSDOF 11
ENDMDL
MODEL 8
REMARK VINA RESULT:      -8.1      5.262     10.108
REMARK  Name = 
REMARK  13 active torsions:
REMARK  status: ('A' for Active; 'I' for Inactive)
REMARK    1  A    between atoms: C_1  and  C_2
REMARK    2  A    between atoms: C_2  and  C_3
REMARK    3  A    between atoms: C_3  and  C_4
REMARK    4  A    between atoms: C_4  and  N_5
REMARK    5  A    between atoms: N_5  and  C_24
REMARK    6  A    between atoms: C_6  and  C_8
REMARK    7  A    between atoms: C_8  and  C_9
REMARK    8  A    between atoms: C_9  and  N_10
REMARK    9  A    between atoms: N_13  and  C_14
REMARK   10  A    between atoms: C_25  and  N_26
REMARK   11  A    between atoms: N_27  and  C_28
REMARK   12  A    between atoms: C_28  and  C_29
REMARK   13  A    between atoms: C_29  and  C_30
REMARK                            x       y       z     vdW  Elec       q    Type
REMARK                         _______ _______ _______ _____ _____    ______ ____
ROOT
ATOM      1  N   UNL     1       0.023  12.120  19.910  0.00  0.00    +0.000 N 
ATOM      2  C   UNL     1       0.548  11.318  20.935  0.00  0.00    +0.000 C 
ATOM      3  O   UNL     1       1.664  11.503  21.415  0.00  0.00    +0.000 OA
ENDROOT
BRANCH   1   4
ATOM      4  C   UNL     1      -1.205  11.800  19.299  0.00  0.00    +0.000 A 
ATOM      5  C   UNL     1      -1.339  10.880  18.314  0.00  0.00    +0.000 A 
ATOM      6  N   UNL     1      -2.590  10.699  17.709  0.00  0.00    +0.000 N 
ATOM      7  C   UNL     1      -3.730  11.366  18.145  0.00  0.00    +0.000 A 
ATOM      8  O   UNL     1      -4.824  11.309  17.589  0.00  0.00    +0.000 OA
ATOM      9  N   UNL     1      -3.590  12.150  19.251  0.00  0.00    +0.000 N 
ATOM     10  C   UNL     1      -2.405  12.568  19.772  0.00  0.00    +0.000 A 
ATOM     11  O   UNL     1      -2.340  13.500  20.561  0.00  0.00    +0.000 OA
ATOM     12  H   UNL     1      -4.408  12.683  19.521  0.00  0.00    +0.000 HD
BRANCH   5  13
ATOM     13  N   UNL     1      -0.266  10.112  17.889  0.00  0.00    +0.000 N 
ATOM     14  H   UNL     1      -0.094   9.282  18.447  0.00  0.00    +0.000 HD
ATOM     15  H   UNL     1       0.590  10.615  17.722  0.00  0.00    +0.000 HD
ENDBRANCH   5  13
BRANCH   6  16
ATOM     16  C   UNL     1      -2.726   9.833  16.525  0.00  0.00    +0.000 C 
BRANCH  16  17
ATOM     17  C   UNL     1      -2.746  10.548  15.170  0.00  0.00    +0.000 C 
ATOM     18  C   UNL     1      -3.809  10.017  14.225  0.00  0.00    +0.000 C 
ENDBRANCH  16  17
ENDBRANCH   6  16
ENDBRANCH   1   4
BRANCH   1  19
ATOM     19  C   UNL     1       0.816  13.251  19.374  0.00  0.00    +0.000 C 
BRANCH  19  20
ATOM     20  C   UNL     1       1.971  12.895  18.416  0.00  0.00    +0.000 C 
BRANCH  20  22
ATOM     21  C   UNL     1       3.650  14.578  19.099  0.00  0.00    +0.000 C 
ATOM     22  C   UNL     1       2.849  14.041  17.913  0.00  0.00    +0.000 C 
ENDBRANCH  20  22
ENDBRANCH  19  20
ENDBRANCH   1  19
BRANCH   2  23
ATOM     23  C   UNL     1      -0.333  10.140  21.459  0.00  0.00    +0.000 C 
BRANCH  23  24
ATOM     24  C   UNL     1       0.406   8.956  22.048  0.00  0.00    +0.000 C 
BRANCH  24  25
ATOM     25  N   UNL     1       1.548   8.551  21.217  0.00  0.00    +0.000 N 
ATOM     26  C   UNL     1       1.607   7.257  20.768  0.00  0.00    +0.000 C 
ATOM     27  O   UNL     1       0.711   6.458  21.000  0.00  0.00    +0.000 OA
ATOM     28  N   UNL     1       2.748   6.949  20.066  0.00  0.00    +0.000 N 
ATOM     29  H   UNL     1       2.384   9.120  21.211  0.00  0.00    +0.000 HD
ATOM     30  H   UNL     1       3.253   7.717  19.652  0.00  0.00    +0.000 HD
BRANCH  28  31
ATOM     31  C   UNL     1       2.956   5.598  19.500  0.00  0.00    +0.000 C 
ATOM     32  C   UNL     1       2.466   4.486  20.467  0.00  0.00    +0.000 C 
ATOM     33  C   UNL     1       2.737   3.090  19.878  0.00  0.00    +0.000 C 
ATOM     34  C   UNL     1       1.968   2.933  18.559  0.00  0.00    +0.000 C 
ATOM     35  C   UNL     1       2.397   4.029  17.566  0.00  0.00    +0.000 C 
ATOM     36  C   UNL     1       3.895   3.866  17.272  0.00  0.00    +0.000 C 
ATOM     37  C   UNL     1       4.699   3.985  18.573  0.00  0.00    +0.000 C 
ATOM     38  C   UNL     1       4.240   2.933  19.596  0.00  0.00    +0.000 C 
ATOM     39  C   UNL     1       4.459   5.372  19.179  0.00  0.00    +0.000 C 
ATOM     40  C   UNL     1       2.145   5.422  18.184  0.00  0.00    +0.000 C 
ENDBRANCH  28  31
ENDBRANCH  24  25
ENDBRANCH  23  24
ENDBRANCH   2  23
TORSDOF 11
ENDMDL
MODEL 9
REMARK VINA RESULT:      -8.1      1.136      1.413
REMARK  Name = 
REMARK  13 active torsions:
REMARK  status: ('A' for Active; 'I' for Inactive)
REMARK    1  A    between atoms: C_1  and  C_2
REMARK    2  A    between atoms: C_2  and  C_3
REMARK    3  A    between atoms: C_3  and  C_4
REMARK    4  A    between atoms: C_4  and  N_5
REMARK    5  A    between atoms: N_5  and  C_24
REMARK    6  A    between atoms: C_6  and  C_8
REMARK    7  A    between atoms: C_8  and  C_9
REMARK    8  A    between atoms: C_9  and  N_10
REMARK    9  A    between atoms: N_13  and  C_14
REMARK   10  A    between atoms: C_25  and  N_26
REMARK   11  A    between atoms: N_27  and  C_28
REMARK   12  A    between atoms: C_28  and  C_29
REMARK   13  A    between atoms: C_29  and  C_30
REMARK                            x       y       z     vdW  Elec       q    Type
REMARK                         _______ _______ _______ _____ _____    ______ ____
ROOT
ATOM      1  N   UNL     1       5.575   4.980  17.014  0.00  0.00    +0.000 N 
ATOM      2  C   UNL     1       6.824   5.602  17.162  0.00  0.00    +0.000 C 
ATOM      3  O   UNL     1       7.760   5.398  16.394  0.00  0.00    +0.000 OA
ENDROOT
BRANCH   1   4
ATOM      4  C   UNL     1       4.567   5.140  17.984  0.00  0.00    +0.000 A 
ATOM      5  C   UNL     1       4.262   4.203  18.915  0.00  0.00    +0.000 A 
ATOM      6  N   UNL     1       3.182   4.422  19.780  0.00  0.00    +0.000 N 
ATOM      7  C   UNL     1       2.461   5.612  19.784  0.00  0.00    +0.000 A 
ATOM      8  O   UNL     1       1.452   5.812  20.457  0.00  0.00    +0.000 OA
ATOM      9  N   UNL     1       2.909   6.597  18.954  0.00  0.00    +0.000 N 
ATOM     10  C   UNL     1       3.787   6.422  17.931  0.00  0.00    +0.000 A 
ATOM     11  O   UNL     1       3.918   7.253  17.043  0.00  0.00    +0.000 OA
ATOM     12  H   UNL     1       2.339   7.433  18.914  0.00  0.00    +0.000 HD
BRANCH   5  13
ATOM     13  N   UNL     1       4.994   3.033  19.032  0.00  0.00    +0.000 N 
ATOM     14  H   UNL     1       5.155   2.546  18.156  0.00  0.00    +0.000 HD
ATOM     15  H   UNL     1       4.682   2.393  19.745  0.00  0.00    +0.000 HD
ENDBRANCH   5  13
BRANCH   6  16
ATOM     16  C   UNL     1       2.722   3.352  20.683  0.00  0.00    +0.000 C 
BRANCH  16  17
ATOM     17  C   UNL     1       1.964   2.197  20.021  0.00  0.00    +0.000 C 
ATOM     18  C   UNL     1       0.627   2.613  19.434  0.00  0.00    +0.000 C 
ENDBRANCH  16  17
ENDBRANCH   6  16
ENDBRANCH   1   4
BRANCH   1  19
ATOM     19  C   UNL     1       5.342   4.044  15.889  0.00  0.00    +0.000 C 
BRANCH  19  20
ATOM     20  C   UNL     1       5.486   4.621  14.466  0.00  0.00    +0.000 C 
BRANCH  20  22
ATOM     21  C   UNL     1       6.965   4.418  12.493  0.00  0.00    +0.000 C 
ATOM     22  C   UNL     1       5.956   3.671  13.364  0.00  0.00    +0.000 C 
ENDBRANCH  20  22
ENDBRANCH  19  20
ENDBRANCH   1  19
BRANCH   2  23
ATOM     23  C   UNL     1       7.010   6.577  18.368  0.00  0.00    +0.000 C 
BRANCH  23  24
ATOM     24  C   UNL     1       8.269   7.420  18.363  0.00  0.00    +0.000 C 
BRANCH  24  25
ATOM     25  N   UNL     1       8.028   8.766  17.826  0.00  0.00    +0.000 N 
ATOM     26  C   UNL     1       8.719   9.821  18.364  0.00  0.00    +0.000 C 
ATOM     27  O   UNL     1       9.560   9.657  19.237  0.00  0.00    +0.000 OA
ATOM     28  N   UNL     1       8.372  11.049  17.854  0.00  0.00    +0.000 N 
ATOM     29  H   UNL     1       7.195   8.941  17.281  0.00  0.00    +0.000 HD
ATOM     30  H   UNL     1       7.934  11.061  16.945  0.00  0.00    +0.000 HD
BRANCH  28  31
ATOM     31  C   UNL     1       9.038  12.286  18.318  0.00  0.00    +0.000 C 
ATOM     32  C   UNL     1       9.199  12.309  19.862  0.00  0.00    +0.000 C 
ATOM     33  C   UNL     1       9.849  13.624  20.325  0.00  0.00    +0.000 C 
ATOM     34  C   UNL     1      11.250  13.749  19.708  0.00  0.00    +0.000 C 
ATOM     35  C   UNL     1      11.152  13.707  18.172  0.00  0.00    +0.000 C 
ATOM     36  C   UNL     1      10.312  14.901  17.700  0.00  0.00    +0.000 C 
ATOM     37  C   UNL     1       8.911  14.832  18.321  0.00  0.00    +0.000 C 
ATOM     38  C   UNL     1       8.995  14.814  19.856  0.00  0.00    +0.000 C 
ATOM     39  C   UNL     1       8.231  13.535  17.868  0.00  0.00    +0.000 C 
ATOM     40  C   UNL     1      10.472  12.393  17.726  0.00  0.00    +0.000 C 
ENDBRANCH  28  31
ENDBRANCH  24  25
ENDBRANCH  23  24
ENDBRANCH   2  23
TORSDOF 11
ENDMDL
