MODEL 1
REMARK VINA RESULT:      -7.7      0.000      0.000
REMARK  Name = 
REMARK  9 active torsions:
REMARK  status: ('A' for Active; 'I' for Inactive)
REMARK    1  A    between atoms: C_1  and  O_2
REMARK    2  A    between atoms: O_2  and  C_3
REMARK    3  A    between atoms: C_3  and  C_4
REMARK    4  A    between atoms: C_4  and  O_5
REMARK    5  A    between atoms: O_5  and  C_6
REMARK    6  A    between atoms: C_12  and  C_13
REMARK    7  A    between atoms: N_16  and  C_17
REMARK    8  A    between atoms: C_20  and  C_21
REMARK    9  A    between atoms: C_21  and  O_23
REMARK                            x       y       z     vdW  Elec       q    Type
REMARK                         _______ _______ _______ _____ _____    ______ ____
ROOT
ATOM      1  C   UNL     1       1.459   8.304  19.951  0.00  0.00    +0.000 A 
ATOM      2  C   UNL     1       2.087   8.584  18.743  0.00  0.00    +0.000 A 
ATOM      3  C   UNL     1       2.858   7.622  18.089  0.00  0.00    +0.000 A 
ATOM      4  C   UNL     1       3.017   6.355  18.678  0.00  0.00    +0.000 A 
ATOM      5  C   UNL     1       2.361   6.036  19.876  0.00  0.00    +0.000 A 
ATOM      6  C   UNL     1       1.590   7.031  20.521  0.00  0.00    +0.000 A 
ATOM      7  C   UNL     1       2.637   4.673  20.154  0.00  0.00    +0.000 A 
ATOM      8  C   UNL     1       3.420   4.186  19.131  0.00  0.00    +0.000 A 
ATOM      9  N   UNL     1       3.703   5.215  18.254  0.00  0.00    +0.000 N 
ENDROOT
BRANCH   9  10
ATOM     10  C   UNL     1       4.563   5.092  17.121  0.00  0.00    +0.000 A 
ATOM     11  C   UNL     1       4.982   6.243  16.442  0.00  0.00    +0.000 A 
ATOM     12  C   UNL     1       5.812   6.131  15.321  0.00  0.00    +0.000 A 
ATOM     13  C   UNL     1       6.209   4.872  14.856  0.00  0.00    +0.000 A 
ATOM     14  C   UNL     1       5.807   3.722  15.545  0.00  0.00    +0.000 A 
ATOM     15  C   UNL     1       4.977   3.833  16.667  0.00  0.00    +0.000 A 
BRANCH  13  16
ATOM     16  C   UNL     1       7.069   4.813  13.648  0.00  0.00    +0.000 C 
ATOM     17  O   UNL     1       8.032   5.544  13.489  0.00  0.00    +0.000 OA
BRANCH  16  18
ATOM     18  O   UNL     1       6.658   3.921  12.723  0.00  0.00    +0.000 OA
ATOM     19  H   UNL     1       6.175   4.297  11.964  0.00  0.00    +0.000 HD
ENDBRANCH  16  18
ENDBRANCH  13  16
ENDBRANCH   9  10
BRANCH   7  20
ATOM     20  C   UNL     1       2.192   3.909  21.278  0.00  0.00    +0.000 C 
ATOM     21  N   UNL     1       1.832   3.296  22.195  0.00  0.00    +0.000 NA
ENDBRANCH   7  20
BRANCH   1  22
ATOM     22  O   UNL     1       0.673   9.176  20.657  0.00  0.00    +0.000 OA
BRANCH  22  23
ATOM     23  C   UNL     1      -0.130   8.602  21.690  0.00  0.00    +0.000 C 
BRANCH  23  24
ATOM     24  C   UNL     1       0.162   9.309  23.006  0.00  0.00    +0.000 C 
BRANCH  24  26
ATOM     25  C   UNL     1      -1.321  11.136  23.072  0.00  0.00    +0.000 C 
ATOM     26  O   UNL     1       0.011  10.716  22.813  0.00  0.00    +0.000 OA
ENDBRANCH  24  26
ENDBRANCH  23  24
ENDBRANCH  22  23
ENDBRANCH   1  22
TORSDOF 8
ENDMDL
MODEL 2
REMARK VINA RESULT:      -7.6      0.385      1.042
REMARK  Name = 
REMARK  9 active torsions:
REMARK  status: ('A' for Active; 'I' for Inactive)
REMARK    1  A    between atoms: C_1  and  O_2
REMARK    2  A    between atoms: O_2  and  C_3
REMARK    3  A    between atoms: C_3  and  C_4
REMARK    4  A    between atoms: C_4  and  O_5
REMARK    5  A    between atoms: O_5  and  C_6
REMARK    6  A    between atoms: C_12  and  C_13
REMARK    7  A    between atoms: N_16  and  C_17
REMARK    8  A    between atoms: C_20  and  C_21
REMARK    9  A    between atoms: C_21  and  O_23
REMARK                            x       y       z     vdW  Elec       q    Type
REMARK                         _______ _______ _______ _____ _____    ______ ____
ROOT
ATOM      1  C   UNL     1       1.366   8.187  20.200  0.00  0.00    +0.000 A 
ATOM      2  C   UNL     1       1.965   8.501  18.985  0.00  0.00    +0.000 A 
ATOM      3  C   UNL     1       2.723   7.558  18.288  0.00  0.00    +0.000 A 
ATOM      4  C   UNL     1       2.899   6.276  18.841  0.00  0.00    +0.000 A 
ATOM      5  C   UNL     1       2.271   5.925  20.045  0.00  0.00    +0.000 A 
ATOM      6  C   UNL     1       1.513   6.901  20.733  0.00  0.00    +0.000 A 
ATOM      7  C   UNL     1       2.558   4.556  20.282  0.00  0.00    +0.000 A 
ATOM      8  C   UNL     1       3.317   4.098  19.228  0.00  0.00    +0.000 A 
ATOM      9  N   UNL     1       3.578   5.150  18.371  0.00  0.00    +0.000 N 
ENDROOT
BRANCH   9  10
ATOM     10  C   UNL     1       4.411   5.059  17.216  0.00  0.00    +0.000 A 
ATOM     11  C   UNL     1       4.862   3.804  16.786  0.00  0.00    +0.000 A 
ATOM     12  C   UNL     1       5.693   3.707  15.664  0.00  0.00    +0.000 A 
ATOM     13  C   UNL     1       6.098   4.859  14.980  0.00  0.00    +0.000 A 
ATOM     14  C   UNL     1       5.632   6.111  15.397  0.00  0.00    +0.000 A 
ATOM     15  C   UNL     1       4.800   6.210  16.519  0.00  0.00    +0.000 A 
BRANCH  13  16
ATOM     16  C   UNL     1       7.000   4.696  13.812  0.00  0.00    +0.000 C 
ATOM     17  O   UNL     1       7.885   5.491  13.548  0.00  0.00    +0.000 OA
BRANCH  16  18
ATOM     18  O   UNL     1       6.716   3.625  13.043  0.00  0.00    +0.000 OA
ATOM     19  H   UNL     1       7.436   2.975  12.947  0.00  0.00    +0.000 HD
ENDBRANCH  16  18
ENDBRANCH  13  16
ENDBRANCH   9  10
BRANCH   7  20
ATOM     20  C   UNL     1       2.141   3.762  21.396  0.00  0.00    +0.000 C 
ATOM     21  N   UNL     1       1.794   3.117  22.296  0.00  0.00    +0.000 NA
ENDBRANCH   7  20
BRANCH   1  22
ATOM     22  O   UNL     1       0.595   9.038  20.946  0.00  0.00    +0.000 OA
BRANCH  22  23
ATOM     23  C   UNL     1      -0.004   8.480  22.116  0.00  0.00    +0.000 C 
BRANCH  23  24
ATOM     24  C   UNL     1       0.014   9.513  23.234  0.00  0.00    +0.000 C 
BRANCH  24  26
ATOM     25  C   UNL     1      -0.992  11.619  22.925  0.00  0.00    +0.000 C 
ATOM     26  O   UNL     1      -1.213  10.243  23.202  0.00  0.00    +0.000 OA
ENDBRANCH  24  26
ENDBRANCH  23  24
ENDBRANCH  22  23
ENDBRANCH   1  22
TORSDOF 8
ENDMDL
MODEL 3
REMARK VINA RESULT:      -7.5      1.084      1.451
REMARK  Name = 
REMARK  9 active torsions:
REMARK  status: ('A' for Active; 'I' for Inactive)
REMARK    1  A    between atoms: C_1  and  O_2
REMARK    2  A    between atoms: O_2  and  C_3
REMARK    3  A    between atoms: C_3  and  C_4
REMARK    4  A    between atoms: C_4  and  O_5
REMARK    5  A    between atoms: O_5  and  C_6
REMARK    6  A    between atoms: C_12  and  C_13
REMARK    7  A    between atoms: N_16  and  C_17
REMARK    8  A    between atoms: C_20  and  C_21
REMARK    9  A    between atoms: C_21  and  O_23
REMARK                            x       y       z     vdW  Elec       q    Type
REMARK                         _______ _______ _______ _____ _____    ______ ____
ROOT
ATOM      1  C   UNL     1       1.310   8.068  20.383  0.00  0.00    +0.000 A 
ATOM      2  C   UNL     1       1.931   8.442  19.198  0.00  0.00    +0.000 A 
ATOM      3  C   UNL     1       2.718   7.541  18.478  0.00  0.00    +0.000 A 
ATOM      4  C   UNL     1       2.900   6.239  18.978  0.00  0.00    +0.000 A 
ATOM      5  C   UNL     1       2.251   5.827  20.151  0.00  0.00    +0.000 A 
ATOM      6  C   UNL     1       1.464   6.761  20.863  0.00  0.00    +0.000 A 
ATOM      7  C   UNL     1       2.551   4.453  20.334  0.00  0.00    +0.000 A 
ATOM      8  C   UNL     1       3.340   4.051  19.279  0.00  0.00    +0.000 A 
ATOM      9  N   UNL     1       3.605   5.143  18.475  0.00  0.00    +0.000 N 
ENDROOT
BRANCH   9  10
ATOM     10  C   UNL     1       4.465   5.113  17.337  0.00  0.00    +0.000 A 
ATOM     11  C   UNL     1       4.481   3.982  16.511  0.00  0.00    +0.000 A 
ATOM     12  C   UNL     1       5.333   3.938  15.402  0.00  0.00    +0.000 A 
ATOM     13  C   UNL     1       6.190   5.009  15.124  0.00  0.00    +0.000 A 
ATOM     14  C   UNL     1       6.162   6.147  15.937  0.00  0.00    +0.000 A 
ATOM     15  C   UNL     1       5.309   6.193  17.047  0.00  0.00    +0.000 A 
BRANCH  13  16
ATOM     16  C   UNL     1       7.090   4.895  13.948  0.00  0.00    +0.000 C 
ATOM     17  O   UNL     1       8.089   5.582  13.814  0.00  0.00    +0.000 OA
BRANCH  16  18
ATOM     18  O   UNL     1       6.674   4.008  13.021  0.00  0.00    +0.000 OA
ATOM     19  H   UNL     1       5.961   4.319  12.433  0.00  0.00    +0.000 HD
ENDBRANCH  16  18
ENDBRANCH  13  16
ENDBRANCH   9  10
BRANCH   7  20
ATOM     20  C   UNL     1       2.120   3.604  21.403  0.00  0.00    +0.000 C 
ATOM     21  N   UNL     1       1.780   2.914  22.271  0.00  0.00    +0.000 NA
ENDBRANCH   7  20
BRANCH   1  22
ATOM     22  O   UNL     1       0.511   8.875  21.148  0.00  0.00    +0.000 OA
BRANCH  22  23
ATOM     23  C   UNL     1      -0.240   9.864  20.444  0.00  0.00    +0.000 C 
BRANCH  23  24
ATOM     24  C   UNL     1      -0.392  11.100  21.319  0.00  0.00    +0.000 C 
BRANCH  24  26
ATOM     25  C   UNL     1       1.325  12.529  20.575  0.00  0.00    +0.000 C 
ATOM     26  O   UNL     1       0.906  11.630  21.592  0.00  0.00    +0.000 OA
ENDBRANCH  24  26
ENDBRANCH  23  24
ENDBRANCH  22  23
ENDBRANCH   1  22
TORSDOF 8
ENDMDL
MODEL 4
REMARK VINA RESULT:      -7.5      0.938      1.343
REMARK  Name = 
REMARK  9 active torsions:
REMARK  status: ('A' for Active; 'I' for Inactive)
REMARK    1  A    between atoms: C_1  and  O_2
REMARK    2  A    between atoms: O_2  and  C_3
REMARK    3  A    between atoms: C_3  and  C_4
REMARK    4  A    between atoms: C_4  and  O_5
REMARK    5  A    between atoms: O_5  and  C_6
REMARK    6  A    between atoms: C_12  and  C_13
REMARK    7  A    between atoms: N_16  and  C_17
REMARK    8  A    between atoms: C_20  and  C_21
REMARK    9  A    between atoms: C_21  and  O_23
REMARK                            x       y       z     vdW  Elec       q    Type
REMARK                         _______ _______ _______ _____ _____    ______ ____
ROOT
ATOM      1  C   UNL     1       1.597   7.411  20.310  0.00  0.00    +0.000 A 
ATOM      2  C   UNL     1       2.160   7.879  19.128  0.00  0.00    +0.000 A 
ATOM      3  C   UNL     1       3.005   7.074  18.361  0.00  0.00    +0.000 A 
ATOM      4  C   UNL     1       3.306   5.775  18.810  0.00  0.00    +0.000 A 
ATOM      5  C   UNL     1       2.718   5.268  19.978  0.00  0.00    +0.000 A 
ATOM      6  C   UNL     1       1.870   6.107  20.739  0.00  0.00    +0.000 A 
ATOM      7  C   UNL     1       3.136   3.919  20.105  0.00  0.00    +0.000 A 
ATOM      8  C   UNL     1       3.935   3.623  19.022  0.00  0.00    +0.000 A 
ATOM      9  N   UNL     1       4.090   4.762  18.255  0.00  0.00    +0.000 N 
ENDROOT
BRANCH   9  10
ATOM     10  C   UNL     1       4.926   4.846  17.101  0.00  0.00    +0.000 A 
ATOM     11  C   UNL     1       4.539   4.203  15.918  0.00  0.00    +0.000 A 
ATOM     12  C   UNL     1       5.360   4.266  14.787  0.00  0.00    +0.000 A 
ATOM     13  C   UNL     1       6.581   4.949  14.835  0.00  0.00    +0.000 A 
ATOM     14  C   UNL     1       6.959   5.609  16.010  0.00  0.00    +0.000 A 
ATOM     15  C   UNL     1       6.138   5.546  17.142  0.00  0.00    +0.000 A 
BRANCH  13  16
ATOM     16  C   UNL     1       7.422   4.962  13.612  0.00  0.00    +0.000 C 
ATOM     17  O   UNL     1       7.216   4.225  12.662  0.00  0.00    +0.000 OA
BRANCH  16  18
ATOM     18  O   UNL     1       8.462   5.820  13.669  0.00  0.00    +0.000 OA
ATOM     19  H   UNL     1       8.693   6.255  12.827  0.00  0.00    +0.000 HD
ENDBRANCH  16  18
ENDBRANCH  13  16
ENDBRANCH   9  10
BRANCH   7  20
ATOM     20  C   UNL     1       2.801   3.000  21.149  0.00  0.00    +0.000 C 
ATOM     21  N   UNL     1       2.535   2.248  21.991  0.00  0.00    +0.000 NA
ENDBRANCH   7  20
BRANCH   1  22
ATOM     22  O   UNL     1       0.748   8.120  21.118  0.00  0.00    +0.000 OA
BRANCH  22  23
ATOM     23  C   UNL     1       1.331   9.204  21.844  0.00  0.00    +0.000 C 
BRANCH  23  24
ATOM     24  C   UNL     1       0.402  10.407  21.786  0.00  0.00    +0.000 C 
BRANCH  24  26
ATOM     25  C   UNL     1      -1.296  11.455  23.036  0.00  0.00    +0.000 C 
ATOM     26  O   UNL     1      -0.143  10.627  23.088  0.00  0.00    +0.000 OA
ENDBRANCH  24  26
ENDBRANCH  23  24
ENDBRANCH  22  23
ENDBRANCH   1  22
TORSDOF 8
ENDMDL
MODEL 5
REMARK VINA RESULT:      -7.4      1.231      1.438
REMARK  Name = 
REMARK  9 active torsions:
REMARK  status: ('A' for Active; 'I' for Inactive)
REMARK    1  A    between atoms: C_1  and  O_2
REMARK    2  A    between atoms: O_2  and  C_3
REMARK    3  A    between atoms: C_3  and  C_4
REMARK    4  A    between atoms: C_4  and  O_5
REMARK    5  A    between atoms: O_5  and  C_6
REMARK    6  A    between atoms: C_12  and  C_13
REMARK    7  A    between atoms: N_16  and  C_17
REMARK    8  A    between atoms: C_20  and  C_21
REMARK    9  A    between atoms: C_21  and  O_23
REMARK                            x       y       z     vdW  Elec       q    Type
REMARK                         _______ _______ _______ _____ _____    ______ ____
ROOT
ATOM      1  C   UNL     1       1.401   7.918  20.445  0.00  0.00    +0.000 A 
ATOM      2  C   UNL     1       2.044   8.283  19.268  0.00  0.00    +0.000 A 
ATOM      3  C   UNL     1       2.770   7.353  18.522  0.00  0.00    +0.000 A 
ATOM      4  C   UNL     1       2.867   6.028  18.987  0.00  0.00    +0.000 A 
ATOM      5  C   UNL     1       2.193   5.628  20.150  0.00  0.00    +0.000 A 
ATOM      6  C   UNL     1       1.469   6.592  20.890  0.00  0.00    +0.000 A 
ATOM      7  C   UNL     1       2.403   4.233  20.296  0.00  0.00    +0.000 A 
ATOM      8  C   UNL     1       3.164   3.809  19.229  0.00  0.00    +0.000 A 
ATOM      9  N   UNL     1       3.499   4.903  18.454  0.00  0.00    +0.000 N 
ENDROOT
BRANCH   9  10
ATOM     10  C   UNL     1       4.354   4.848  17.313  0.00  0.00    +0.000 A 
ATOM     11  C   UNL     1       4.718   6.034  16.663  0.00  0.00    +0.000 A 
ATOM     12  C   UNL     1       5.543   5.989  15.534  0.00  0.00    +0.000 A 
ATOM     13  C   UNL     1       5.990   4.762  15.032  0.00  0.00    +0.000 A 
ATOM     14  C   UNL     1       5.644   3.577  15.691  0.00  0.00    +0.000 A 
ATOM     15  C   UNL     1       4.819   3.621  16.822  0.00  0.00    +0.000 A 
BRANCH  13  16
ATOM     16  C   UNL     1       6.843   4.773  13.817  0.00  0.00    +0.000 C 
ATOM     17  O   UNL     1       6.634   4.050  12.858  0.00  0.00    +0.000 OA
BRANCH  16  18
ATOM     18  O   UNL     1       7.897   5.613  13.892  0.00  0.00    +0.000 OA
ATOM     19  H   UNL     1       8.023   6.050  14.754  0.00  0.00    +0.000 HD
ENDBRANCH  16  18
ENDBRANCH  13  16
ENDBRANCH   9  10
BRANCH   7  20
ATOM     20  C   UNL     1       1.920   3.386  21.343  0.00  0.00    +0.000 C 
ATOM     21  N   UNL     1       1.518   2.702  22.189  0.00  0.00    +0.000 NA
ENDBRANCH   7  20
BRANCH   1  22
ATOM     22  O   UNL     1       0.656   8.755  21.234  0.00  0.00    +0.000 OA
BRANCH  22  23
ATOM     23  C   UNL     1      -0.207   9.661  20.546  0.00  0.00    +0.000 C 
BRANCH  23  24
ATOM     24  C   UNL     1       0.112  11.086  20.977  0.00  0.00    +0.000 C 
BRANCH  24  26
ATOM     25  C   UNL     1       1.662  12.823  20.625  0.00  0.00    +0.000 C 
ATOM     26  O   UNL     1       1.131  11.605  20.122  0.00  0.00    +0.000 OA
ENDBRANCH  24  26
ENDBRANCH  23  24
ENDBRANCH  22  23
ENDBRANCH   1  22
TORSDOF 8
ENDMDL
MODEL 6
REMARK VINA RESULT:      -7.3      1.726      8.202
REMARK  Name = 
REMARK  9 active torsions:
REMARK  status: ('A' for Active; 'I' for Inactive)
REMARK    1  A    between atoms: C_1  and  O_2
REMARK    2  A    between atoms: O_2  and  C_3
REMARK    3  A    between atoms: C_3  and  C_4
REMARK    4  A    between atoms: C_4  and  O_5
REMARK    5  A    between atoms: O_5  and  C_6
REMARK    6  A    between atoms: C_12  and  C_13
REMARK    7  A    between atoms: N_16  and  C_17
REMARK    8  A    between atoms: C_20  and  C_21
REMARK    9  A    between atoms: C_21  and  O_23
REMARK                            x       y       z     vdW  Elec       q    Type
REMARK                         _______ _______ _______ _____ _____    ______ ____
ROOT
ATOM      1  C   UNL     1       6.325   5.237  16.191  0.00  0.00    +0.000 A 
ATOM      2  C   UNL     1       6.045   6.577  16.433  0.00  0.00    +0.000 A 
ATOM      3  C   UNL     1       4.972   6.957  17.242  0.00  0.00    +0.000 A 
ATOM      4  C   UNL     1       4.151   5.962  17.801  0.00  0.00    +0.000 A 
ATOM      5  C   UNL     1       4.438   4.603  17.604  0.00  0.00    +0.000 A 
ATOM      6  C   UNL     1       5.527   4.246  16.775  0.00  0.00    +0.000 A 
ATOM      7  C   UNL     1       3.500   3.862  18.367  0.00  0.00    +0.000 A 
ATOM      8  C   UNL     1       2.689   4.761  19.024  0.00  0.00    +0.000 A 
ATOM      9  N   UNL     1       3.040   6.043  18.645  0.00  0.00    +0.000 N 
ENDROOT
BRANCH   9  10
ATOM     10  C   UNL     1       2.354   7.222  19.063  0.00  0.00    +0.000 A 
ATOM     11  C   UNL     1       1.941   7.346  20.396  0.00  0.00    +0.000 A 
ATOM     12  C   UNL     1       1.253   8.491  20.811  0.00  0.00    +0.000 A 
ATOM     13  C   UNL     1       0.950   9.507  19.897  0.00  0.00    +0.000 A 
ATOM     14  C   UNL     1       1.379   9.393  18.570  0.00  0.00    +0.000 A 
ATOM     15  C   UNL     1       2.068   8.247  18.153  0.00  0.00    +0.000 A 
BRANCH  13  16
ATOM     16  C   UNL     1       0.196  10.687  20.389  0.00  0.00    +0.000 C 
ATOM     17  O   UNL     1      -0.819  11.092  19.849  0.00  0.00    +0.000 OA
BRANCH  16  18
ATOM     18  O   UNL     1       0.764  11.300  21.448  0.00  0.00    +0.000 OA
ATOM     19  H   UNL     1       1.699  11.553  21.334  0.00  0.00    +0.000 HD
ENDBRANCH  16  18
ENDBRANCH  13  16
ENDBRANCH   9  10
BRANCH   7  20
ATOM     20  C   UNL     1       3.392   2.439  18.468  0.00  0.00    +0.000 C 
ATOM     21  N   UNL     1       3.314   1.285  18.552  0.00  0.00    +0.000 NA
ENDBRANCH   7  20
BRANCH   1  22
ATOM     22  O   UNL     1       7.360   4.770  15.425  0.00  0.00    +0.000 OA
BRANCH  22  23
ATOM     23  C   UNL     1       7.175   4.838  14.011  0.00  0.00    +0.000 C 
BRANCH  23  24
ATOM     24  C   UNL     1       6.356   3.641  13.551  0.00  0.00    +0.000 C 
BRANCH  24  26
ATOM     25  C   UNL     1       4.964   3.217  11.701  0.00  0.00    +0.000 C 
ATOM     26  O   UNL     1       6.233   3.689  12.130  0.00  0.00    +0.000 OA
ENDBRANCH  24  26
ENDBRANCH  23  24
ENDBRANCH  22  23
ENDBRANCH   1  22
TORSDOF 8
ENDMDL
MODEL 7
REMARK VINA RESULT:      -7.3      1.187      1.217
REMARK  Name = 
REMARK  9 active torsions:
REMARK  status: ('A' for Active; 'I' for Inactive)
REMARK    1  A    between atoms: C_1  and  O_2
REMARK    2  A    between atoms: O_2  and  C_3
REMARK    3  A    between atoms: C_3  and  C_4
REMARK    4  A    between atoms: C_4  and  O_5
REMARK    5  A    between atoms: O_5  and  C_6
REMARK    6  A    between atoms: C_12  and  C_13
REMARK    7  A    between atoms: N_16  and  C_17
REMARK    8  A    between atoms: C_20  and  C_21
REMARK    9  A    between atoms: C_21  and  O_23
REMARK                            x       y       z     vdW  Elec       q    Type
REMARK                         _______ _______ _______ _____ _____    ______ ____
ROOT
ATOM      1  C   UNL     1       1.446   8.042  20.128  0.00  0.00    +0.000 A 
ATOM      2  C   UNL     1       2.058   8.367  18.923  0.00  0.00    +0.000 A 
ATOM      3  C   UNL     1       2.833   7.434  18.231  0.00  0.00    +0.000 A 
ATOM      4  C   UNL     1       3.012   6.151  18.780  0.00  0.00    +0.000 A 
ATOM      5  C   UNL     1       2.371   5.788  19.973  0.00  0.00    +0.000 A 
ATOM      6  C   UNL     1       1.597   6.754  20.657  0.00  0.00    +0.000 A 
ATOM      7  C   UNL     1       2.666   4.421  20.207  0.00  0.00    +0.000 A 
ATOM      8  C   UNL     1       3.443   3.974  19.161  0.00  0.00    +0.000 A 
ATOM      9  N   UNL     1       3.706   5.033  18.313  0.00  0.00    +0.000 N 
ENDROOT
BRANCH   9  10
ATOM     10  C   UNL     1       4.555   4.954  17.168  0.00  0.00    +0.000 A 
ATOM     11  C   UNL     1       4.940   6.130  16.511  0.00  0.00    +0.000 A 
ATOM     12  C   UNL     1       5.759   6.062  15.379  0.00  0.00    +0.000 A 
ATOM     13  C   UNL     1       6.179   4.823  14.881  0.00  0.00    +0.000 A 
ATOM     14  C   UNL     1       5.811   3.649  15.548  0.00  0.00    +0.000 A 
ATOM     15  C   UNL     1       4.992   3.716  16.682  0.00  0.00    +0.000 A 
BRANCH  13  16
ATOM     16  C   UNL     1       7.026   4.810  13.662  0.00  0.00    +0.000 C 
ATOM     17  O   UNL     1       7.964   5.573  13.504  0.00  0.00    +0.000 OA
BRANCH  16  18
ATOM     18  O   UNL     1       6.632   3.921  12.728  0.00  0.00    +0.000 OA
ATOM     19  H   UNL     1       6.555   4.271  11.821  0.00  0.00    +0.000 HD
ENDBRANCH  16  18
ENDBRANCH  13  16
ENDBRANCH   9  10
BRANCH   7  20
ATOM     20  C   UNL     1       2.241   3.617  21.311  0.00  0.00    +0.000 C 
ATOM     21  N   UNL     1       1.905   2.965  22.210  0.00  0.00    +0.000 NA
ENDBRANCH   7  20
BRANCH   1  22
ATOM     22  O   UNL     1       0.658   8.883  20.869  0.00  0.00    +0.000 OA
BRANCH  22  23
ATOM     23  C   UNL     1      -0.026   9.904  20.143  0.00  0.00    +0.000 C 
BRANCH  23  24
ATOM     24  C   UNL     1      -0.165  11.140  21.020  0.00  0.00    +0.000 C 
BRANCH  24  26
ATOM     25  C   UNL     1      -1.565  11.560  19.175  0.00  0.00    +0.000 C 
ATOM     26  O   UNL     1      -0.926  12.120  20.313  0.00  0.00    +0.000 OA
ENDBRANCH  24  26
ENDBRANCH  23  24
ENDBRANCH  22  23
ENDBRANCH   1  22
TORSDOF 8
ENDMDL
MODEL 8
REMARK VINA RESULT:      -7.3      1.145      1.664
REMARK  Name = 
REMARK  9 active torsions:
REMARK  status: ('A' for Active; 'I' for Inactive)
REMARK    1  A    between atoms: C_1  and  O_2
REMARK    2  A    between atoms: O_2  and  C_3
REMARK    3  A    between atoms: C_3  and  C_4
REMARK    4  A    between atoms: C_4  and  O_5
REMARK    5  A    between atoms: O_5  and  C_6
REMARK    6  A    between atoms: C_12  and  C_13
REMARK    7  A    between atoms: N_16  and  C_17
REMARK    8  A    between atoms: C_20  and  C_21
REMARK    9  A    between atoms: C_21  and  O_23
REMARK                            x       y       z     vdW  Elec       q    Type
REMARK                         _______ _______ _______ _____ _____    ______ ____
ROOT
ATOM      1  C   UNL     1       1.428   8.026  20.378  0.00  0.00    +0.000 A 
ATOM      2  C   UNL     1       2.009   8.387  19.168  0.00  0.00    +0.000 A 
ATOM      3  C   UNL     1       2.745   7.468  18.416  0.00  0.00    +0.000 A 
ATOM      4  C   UNL     1       2.916   6.162  18.909  0.00  0.00    +0.000 A 
ATOM      5  C   UNL     1       2.305   5.764  20.107  0.00  0.00    +0.000 A 
ATOM      6  C   UNL     1       1.570   6.716  20.851  0.00  0.00    +0.000 A 
ATOM      7  C   UNL     1       2.579   4.383  20.277  0.00  0.00    +0.000 A 
ATOM      8  C   UNL     1       3.316   3.963  19.191  0.00  0.00    +0.000 A 
ATOM      9  N   UNL     1       3.573   5.050  18.377  0.00  0.00    +0.000 N 
ENDROOT
BRANCH   9  10
ATOM     10  C   UNL     1       4.385   5.001  17.205  0.00  0.00    +0.000 A 
ATOM     11  C   UNL     1       4.885   3.771  16.760  0.00  0.00    +0.000 A 
ATOM     12  C   UNL     1       5.696   3.716  15.621  0.00  0.00    +0.000 A 
ATOM     13  C   UNL     1       6.032   4.888  14.933  0.00  0.00    +0.000 A 
ATOM     14  C   UNL     1       5.517   6.115  15.365  0.00  0.00    +0.000 A 
ATOM     15  C   UNL     1       4.706   6.172  16.505  0.00  0.00    +0.000 A 
BRANCH  13  16
ATOM     16  C   UNL     1       6.916   4.771  13.746  0.00  0.00    +0.000 C 
ATOM     17  O   UNL     1       6.695   3.992  12.834  0.00  0.00    +0.000 OA
BRANCH  16  18
ATOM     18  O   UNL     1       8.008   5.562  13.793  0.00  0.00    +0.000 OA
ATOM     19  H   UNL     1       8.743   5.297  13.210  0.00  0.00    +0.000 HD
ENDBRANCH  16  18
ENDBRANCH  13  16
ENDBRANCH   9  10
BRANCH   7  20
ATOM     20  C   UNL     1       2.173   3.544  21.362  0.00  0.00    +0.000 C 
ATOM     21  N   UNL     1       1.850   2.867  22.248  0.00  0.00    +0.000 NA
ENDBRANCH   7  20
BRANCH   1  22
ATOM     22  O   UNL     1       0.680   8.851  21.175  0.00  0.00    +0.000 OA
BRANCH  22  23
ATOM     23  C   UNL     1       0.746  10.245  20.872  0.00  0.00    +0.000 C 
BRANCH  23  24
ATOM     24  C   UNL     1      -0.626  10.729  20.423  0.00  0.00    +0.000 C 
BRANCH  24  26
ATOM     25  C   UNL     1      -1.696  12.826  20.424  0.00  0.00    +0.000 C 
ATOM     26  O   UNL     1      -0.528  12.106  20.056  0.00  0.00    +0.000 OA
ENDBRANCH  24  26
ENDBRANCH  23  24
ENDBRANCH  22  23
ENDBRANCH   1  22
TORSDOF 8
ENDMDL
MODEL 9
REMARK VINA RESULT:      -7.2      1.795      8.115
REMARK  Name = 
REMARK  9 active torsions:
REMARK  status: ('A' for Active; 'I' for Inactive)
REMARK    1  A    between atoms: C_1  and  O_2
REMARK    2  A    between atoms: O_2  and  C_3
REMARK    3  A    between atoms: C_3  and  C_4
REMARK    4  A    between atoms: C_4  and  O_5
REMARK    5  A    between atoms: O_5  and  C_6
REMARK    6  A    between atoms: C_12  and  C_13
REMARK    7  A    between atoms: N_16  and  C_17
REMARK    8  A    between atoms: C_20  and  C_21
REMARK    9  A    between atoms: C_21  and  O_23
REMARK                            x       y       z     vdW  Elec       q    Type
REMARK                         _______ _______ _______ _____ _____    ______ ____
ROOT
ATOM      1  C   UNL     1       6.257   5.273  16.228  0.00  0.00    +0.000 A 
ATOM      2  C   UNL     1       5.995   6.625  16.420  0.00  0.00    +0.000 A 
ATOM      3  C   UNL     1       4.903   7.049  17.180  0.00  0.00    +0.000 A 
ATOM      4  C   UNL     1       4.044   6.087  17.741  0.00  0.00    +0.000 A 
ATOM      5  C   UNL     1       4.311   4.718  17.594  0.00  0.00    +0.000 A 
ATOM      6  C   UNL     1       5.420   4.315  16.814  0.00  0.00    +0.000 A 
ATOM      7  C   UNL     1       3.334   4.018  18.346  0.00  0.00    +0.000 A 
ATOM      8  C   UNL     1       2.519   4.951  18.948  0.00  0.00    +0.000 A 
ATOM      9  N   UNL     1       2.908   6.214  18.543  0.00  0.00    +0.000 N 
ENDROOT
BRANCH   9  10
ATOM     10  C   UNL     1       2.230   7.417  18.902  0.00  0.00    +0.000 A 
ATOM     11  C   UNL     1       1.977   8.387  17.924  0.00  0.00    +0.000 A 
ATOM     12  C   UNL     1       1.328   9.577  18.270  0.00  0.00    +0.000 A 
ATOM     13  C   UNL     1       0.950   9.818  19.596  0.00  0.00    +0.000 A 
ATOM     14  C   UNL     1       1.184   8.843  20.571  0.00  0.00    +0.000 A 
ATOM     15  C   UNL     1       1.833   7.651  20.225  0.00  0.00    +0.000 A 
BRANCH  13  16
ATOM     16  C   UNL     1       0.287  11.110  19.909  0.00  0.00    +0.000 C 
ATOM     17  O   UNL     1      -0.139  11.379  21.019  0.00  0.00    +0.000 OA
BRANCH  16  18
ATOM     18  O   UNL     1       0.150  11.929  18.846  0.00  0.00    +0.000 OA
ATOM     19  H   UNL     1       0.702  12.732  18.862  0.00  0.00    +0.000 HD
ENDBRANCH  16  18
ENDBRANCH  13  16
ENDBRANCH   9  10
BRANCH   7  20
ATOM     20  C   UNL     1       3.195   2.601  18.486  0.00  0.00    +0.000 C 
ATOM     21  N   UNL     1       3.074   1.452  18.596  0.00  0.00    +0.000 NA
ENDBRANCH   7  20
BRANCH   1  22
ATOM     22  O   UNL     1       7.307   4.763  15.512  0.00  0.00    +0.000 OA
BRANCH  22  23
ATOM     23  C   UNL     1       7.171   4.792  14.091  0.00  0.00    +0.000 C 
BRANCH  23  24
ATOM     24  C   UNL     1       6.253   3.660  13.649  0.00  0.00    +0.000 C 
BRANCH  24  26
ATOM     25  C   UNL     1       4.973   3.185  11.732  0.00  0.00    +0.000 C 
ATOM     26  O   UNL     1       6.234   3.617  12.222  0.00  0.00    +0.000 OA
ENDBRANCH  24  26
ENDBRANCH  23  24
ENDBRANCH  22  23
ENDBRANCH   1  22
TORSDOF 8
ENDMDL
