MODEL 1
REMARK VINA RESULT:      -7.3      0.000      0.000
REMARK  Name = 
REMARK  6 active torsions:
REMARK  status: ('A' for Active; 'I' for Inactive)
REMARK    1  A    between atoms: C_1  and  N_2
REMARK    2  A    between atoms: C_3  and  C_5
REMARK    3  A    between atoms: N_13  and  C_14
REMARK    4  A    between atoms: C_14  and  C_15
REMARK    5  A    between atoms: C_18  and  O_19
REMARK    6  A    between atoms: O_19  and  C_20
REMARK                            x       y       z     vdW  Elec       q    Type
REMARK                         _______ _______ _______ _____ _____    ______ ____
ROOT
ATOM      1  C   UNL     1       3.749   4.685  17.348  0.00  0.00    +0.000 C 
ATOM      2  C   UNL     1       3.244   3.317  16.865  0.00  0.00    +0.000 C 
ATOM      3  C   UNL     1       2.176   2.706  17.755  0.00  0.00    +0.000 C 
ATOM      4  S   UNL     1       2.756   2.518  19.420  0.00  0.00    +0.000 S 
ATOM      5  O   UNL     1       1.634   2.150  20.254  0.00  0.00    +0.000 OA
ATOM      6  O   UNL     1       3.953   1.693  19.372  0.00  0.00    +0.000 OA
ATOM      7  C   UNL     1       3.263   4.149  19.847  0.00  0.00    +0.000 C 
ATOM      8  C   UNL     1       2.150   5.171  19.952  0.00  0.00    +0.000 C 
ATOM      9  N   UNL     1       2.855   6.470  19.879  0.00  0.00    +0.000 NA
ATOM     10  C   UNL     1       4.188   6.233  19.291  0.00  0.00    +0.000 C 
ATOM     11  C   UNL     1       4.211   4.770  18.827  0.00  0.00    +0.000 C 
ENDROOT
BRANCH   1  14
ATOM     12  C   UNL     1       6.999   4.645  15.344  0.00  0.00    +0.000 C 
ATOM     13  N   UNL     1       5.871   4.280  16.165  0.00  0.00    +0.000 N 
ATOM     14  C   UNL     1       4.870   5.185  16.433  0.00  0.00    +0.000 C 
ATOM     15  O   UNL     1       4.872   6.334  16.006  0.00  0.00    +0.000 OA
ATOM     16  H   UNL     1       5.843   3.344  16.548  0.00  0.00    +0.000 HD
ENDBRANCH   1  14
BRANCH   9  17
ATOM     17  C   UNL     1       2.054   7.494  19.190  0.00  0.00    +0.000 C 
BRANCH  17  18
ATOM     18  C   UNL     1       1.414   8.522  20.103  0.00  0.00    +0.000 A 
ATOM     19  C   UNL     1       1.296   8.285  21.482  0.00  0.00    +0.000 A 
ATOM     20  C   UNL     1       0.740   9.253  22.328  0.00  0.00    +0.000 A 
ATOM     21  C   UNL     1       0.338  10.487  21.817  0.00  0.00    +0.000 A 
ATOM     22  C   UNL     1       0.429  10.720  20.446  0.00  0.00    +0.000 A 
ATOM     23  C   UNL     1       0.950   9.741  19.595  0.00  0.00    +0.000 A 
BRANCH  21  24
ATOM     24  O   UNL     1      -0.172  11.376  22.728  0.00  0.00    +0.000 OA
ATOM     25  C   UNL     1      -1.576  11.609  22.613  0.00  0.00    +0.000 C 
ENDBRANCH  21  24
ENDBRANCH  17  18
ENDBRANCH   9  17
TORSDOF 4
ENDMDL
MODEL 2
REMARK VINA RESULT:      -7.2      2.273      4.172
REMARK  Name = 
REMARK  6 active torsions:
REMARK  status: ('A' for Active; 'I' for Inactive)
REMARK    1  A    between atoms: C_1  and  N_2
REMARK    2  A    between atoms: C_3  and  C_5
REMARK    3  A    between atoms: N_13  and  C_14
REMARK    4  A    between atoms: C_14  and  C_15
REMARK    5  A    between atoms: C_18  and  O_19
REMARK    6  A    between atoms: O_19  and  C_20
REMARK                            x       y       z     vdW  Elec       q    Type
REMARK                         _______ _______ _______ _____ _____    ______ ____
ROOT
ATOM      1  C   UNL     1       4.083   4.499  19.184  0.00  0.00    +0.000 C 
ATOM      2  C   UNL     1       5.578   4.143  19.169  0.00  0.00    +0.000 C 
ATOM      3  C   UNL     1       6.455   5.196  18.516  0.00  0.00    +0.000 C 
ATOM      4  S   UNL     1       5.950   5.506  16.844  0.00  0.00    +0.000 S 
ATOM      5  O   UNL     1       6.668   6.665  16.359  0.00  0.00    +0.000 OA
ATOM      6  O   UNL     1       6.008   4.240  16.132  0.00  0.00    +0.000 OA
ATOM      7  C   UNL     1       4.250   5.930  17.018  0.00  0.00    +0.000 C 
ATOM      8  C   UNL     1       3.974   7.233  17.739  0.00  0.00    +0.000 C 
ATOM      9  N   UNL     1       2.549   7.127  18.124  0.00  0.00    +0.000 NA
ATOM     10  C   UNL     1       2.166   5.703  18.073  0.00  0.00    +0.000 C 
ATOM     11  C   UNL     1       3.456   4.909  17.825  0.00  0.00    +0.000 C 
ENDROOT
BRANCH   1  14
ATOM     12  C   UNL     1       1.756   2.662  21.590  0.00  0.00    +0.000 C 
ATOM     13  N   UNL     1       2.531   3.668  20.906  0.00  0.00    +0.000 N 
ATOM     14  C   UNL     1       3.276   3.350  19.793  0.00  0.00    +0.000 C 
ATOM     15  O   UNL     1       3.331   2.219  19.323  0.00  0.00    +0.000 OA
ATOM     16  H   UNL     1       2.522   4.609  21.275  0.00  0.00    +0.000 HD
ENDBRANCH   1  14
BRANCH   9  17
ATOM     17  C   UNL     1       2.274   7.790  19.410  0.00  0.00    +0.000 C 
BRANCH  17  18
ATOM     18  C   UNL     1       1.216   8.875  19.353  0.00  0.00    +0.000 A 
ATOM     19  C   UNL     1       0.772   9.383  18.122  0.00  0.00    +0.000 A 
ATOM     20  C   UNL     1      -0.234  10.357  18.072  0.00  0.00    +0.000 A 
ATOM     21  C   UNL     1      -0.840  10.803  19.246  0.00  0.00    +0.000 A 
ATOM     22  C   UNL     1      -0.387  10.322  20.473  0.00  0.00    +0.000 A 
ATOM     23  C   UNL     1       0.641   9.377  20.527  0.00  0.00    +0.000 A 
BRANCH  21  24
ATOM     24  O   UNL     1      -1.828  11.740  19.092  0.00  0.00    +0.000 OA
ATOM     25  C   UNL     1      -2.772  11.451  18.060  0.00  0.00    +0.000 C 
ENDBRANCH  21  24
ENDBRANCH  17  18
ENDBRANCH   9  17
TORSDOF 4
ENDMDL
MODEL 3
REMARK VINA RESULT:      -7.2      1.413      1.840
REMARK  Name = 
REMARK  6 active torsions:
REMARK  status: ('A' for Active; 'I' for Inactive)
REMARK    1  A    between atoms: C_1  and  N_2
REMARK    2  A    between atoms: C_3  and  C_5
REMARK    3  A    between atoms: N_13  and  C_14
REMARK    4  A    between atoms: C_14  and  C_15
REMARK    5  A    between atoms: C_18  and  O_19
REMARK    6  A    between atoms: O_19  and  C_20
REMARK                            x       y       z     vdW  Elec       q    Type
REMARK                         _______ _______ _______ _____ _____    ______ ____
ROOT
ATOM      1  C   UNL     1       4.575   3.909  17.399  0.00  0.00    +0.000 C 
ATOM      2  C   UNL     1       4.128   2.440  17.407  0.00  0.00    +0.000 C 
ATOM      3  C   UNL     1       3.078   2.121  18.456  0.00  0.00    +0.000 C 
ATOM      4  S   UNL     1       3.651   2.527  20.084  0.00  0.00    +0.000 S 
ATOM      5  O   UNL     1       2.537   2.415  21.000  0.00  0.00    +0.000 OA
ATOM      6  O   UNL     1       4.880   1.782  20.309  0.00  0.00    +0.000 OA
ATOM      7  C   UNL     1       4.090   4.225  19.936  0.00  0.00    +0.000 C 
ATOM      8  C   UNL     1       2.936   5.178  19.698  0.00  0.00    +0.000 C 
ATOM      9  N   UNL     1       3.591   6.403  19.189  0.00  0.00    +0.000 NA
ATOM     10  C   UNL     1       4.936   6.036  18.707  0.00  0.00    +0.000 C 
ATOM     11  C   UNL     1       5.021   4.504  18.762  0.00  0.00    +0.000 C 
ENDROOT
BRANCH   1  14
ATOM     12  C   UNL     1       6.233   4.284  13.981  0.00  0.00    +0.000 C 
ATOM     13  N   UNL     1       5.277   4.131  15.049  0.00  0.00    +0.000 N 
ATOM     14  C   UNL     1       5.682   4.117  16.364  0.00  0.00    +0.000 C 
ATOM     15  O   UNL     1       6.855   4.227  16.705  0.00  0.00    +0.000 OA
ATOM     16  H   UNL     1       4.301   4.022  14.804  0.00  0.00    +0.000 HD
ENDBRANCH   1  14
BRANCH   9  17
ATOM     17  C   UNL     1       2.755   7.104  18.200  0.00  0.00    +0.000 C 
BRANCH  17  18
ATOM     18  C   UNL     1       1.944   8.258  18.756  0.00  0.00    +0.000 A 
ATOM     19  C   UNL     1       1.491   9.290  17.919  0.00  0.00    +0.000 A 
ATOM     20  C   UNL     1       0.709  10.333  18.430  0.00  0.00    +0.000 A 
ATOM     21  C   UNL     1       0.330  10.337  19.772  0.00  0.00    +0.000 A 
ATOM     22  C   UNL     1       0.797   9.331  20.615  0.00  0.00    +0.000 A 
ATOM     23  C   UNL     1       1.608   8.308  20.115  0.00  0.00    +0.000 A 
BRANCH  21  24
ATOM     24  O   UNL     1      -0.453  11.388  20.171  0.00  0.00    +0.000 OA
ATOM     25  C   UNL     1      -0.123  11.928  21.451  0.00  0.00    +0.000 C 
ENDBRANCH  21  24
ENDBRANCH  17  18
ENDBRANCH   9  17
TORSDOF 4
ENDMDL
MODEL 4
REMARK VINA RESULT:      -7.2      1.352      1.527
REMARK  Name = 
REMARK  6 active torsions:
REMARK  status: ('A' for Active; 'I' for Inactive)
REMARK    1  A    between atoms: C_1  and  N_2
REMARK    2  A    between atoms: C_3  and  C_5
REMARK    3  A    between atoms: N_13  and  C_14
REMARK    4  A    between atoms: C_14  and  C_15
REMARK    5  A    between atoms: C_18  and  O_19
REMARK    6  A    between atoms: O_19  and  C_20
REMARK                            x       y       z     vdW  Elec       q    Type
REMARK                         _______ _______ _______ _____ _____    ______ ____
ROOT
ATOM      1  C   UNL     1       4.560   3.924  17.398  0.00  0.00    +0.000 C 
ATOM      2  C   UNL     1       4.103   2.457  17.405  0.00  0.00    +0.000 C 
ATOM      3  C   UNL     1       3.049   2.146  18.452  0.00  0.00    +0.000 C 
ATOM      4  S   UNL     1       3.622   2.548  20.081  0.00  0.00    +0.000 S 
ATOM      5  O   UNL     1       2.505   2.444  20.995  0.00  0.00    +0.000 OA
ATOM      6  O   UNL     1       4.845   1.795  20.308  0.00  0.00    +0.000 OA
ATOM      7  C   UNL     1       4.072   4.243  19.933  0.00  0.00    +0.000 C 
ATOM      8  C   UNL     1       2.925   5.204  19.693  0.00  0.00    +0.000 C 
ATOM      9  N   UNL     1       3.589   6.424  19.185  0.00  0.00    +0.000 NA
ATOM     10  C   UNL     1       4.933   6.048  18.705  0.00  0.00    +0.000 C 
ATOM     11  C   UNL     1       5.007   4.516  18.761  0.00  0.00    +0.000 C 
ENDROOT
BRANCH   1  14
ATOM     12  C   UNL     1       6.223   4.312  13.983  0.00  0.00    +0.000 C 
ATOM     13  N   UNL     1       5.265   4.163  15.050  0.00  0.00    +0.000 N 
ATOM     14  C   UNL     1       5.671   4.124  16.364  0.00  0.00    +0.000 C 
ATOM     15  O   UNL     1       6.845   4.207  16.706  0.00  0.00    +0.000 OA
ATOM     16  H   UNL     1       4.287   4.076  14.804  0.00  0.00    +0.000 HD
ENDBRANCH   1  14
BRANCH   9  17
ATOM     17  C   UNL     1       2.760   7.131  18.194  0.00  0.00    +0.000 C 
BRANCH  17  18
ATOM     18  C   UNL     1       1.969   8.301  18.746  0.00  0.00    +0.000 A 
ATOM     19  C   UNL     1       1.570   8.330  20.092  0.00  0.00    +0.000 A 
ATOM     20  C   UNL     1       0.874   9.431  20.607  0.00  0.00    +0.000 A 
ATOM     21  C   UNL     1       0.606  10.535  19.799  0.00  0.00    +0.000 A 
ATOM     22  C   UNL     1       0.975  10.503  18.456  0.00  0.00    +0.000 A 
ATOM     23  C   UNL     1       1.639   9.390  17.930  0.00  0.00    +0.000 A 
BRANCH  21  24
ATOM     24  O   UNL     1      -0.061  11.571  20.400  0.00  0.00    +0.000 OA
ATOM     25  C   UNL     1      -0.444  11.330  21.754  0.00  0.00    +0.000 C 
ENDBRANCH  21  24
ENDBRANCH  17  18
ENDBRANCH   9  17
TORSDOF 4
ENDMDL
MODEL 5
REMARK VINA RESULT:      -7.2      1.395      1.420
REMARK  Name = 
REMARK  6 active torsions:
REMARK  status: ('A' for Active; 'I' for Inactive)
REMARK    1  A    between atoms: C_1  and  N_2
REMARK    2  A    between atoms: C_3  and  C_5
REMARK    3  A    between atoms: N_13  and  C_14
REMARK    4  A    between atoms: C_14  and  C_15
REMARK    5  A    between atoms: C_18  and  O_19
REMARK    6  A    between atoms: O_19  and  C_20
REMARK                            x       y       z     vdW  Elec       q    Type
REMARK                         _______ _______ _______ _____ _____    ______ ____
ROOT
ATOM      1  C   UNL     1       4.542   4.737  17.807  0.00  0.00    +0.000 C 
ATOM      2  C   UNL     1       4.370   3.611  16.776  0.00  0.00    +0.000 C 
ATOM      3  C   UNL     1       2.965   3.039  16.717  0.00  0.00    +0.000 C 
ATOM      4  S   UNL     1       2.459   2.415  18.298  0.00  0.00    +0.000 S 
ATOM      5  O   UNL     1       1.049   2.097  18.231  0.00  0.00    +0.000 OA
ATOM      6  O   UNL     1       3.432   1.411  18.700  0.00  0.00    +0.000 OA
ATOM      7  C   UNL     1       2.673   3.804  19.357  0.00  0.00    +0.000 C 
ATOM      8  C   UNL     1       1.740   4.970  19.100  0.00  0.00    +0.000 C 
ATOM      9  N   UNL     1       2.397   6.104  19.786  0.00  0.00    +0.000 NA
ATOM     10  C   UNL     1       3.814   5.752  19.998  0.00  0.00    +0.000 C 
ATOM     11  C   UNL     1       4.056   4.434  19.250  0.00  0.00    +0.000 C 
ENDROOT
BRANCH   1  14
ATOM     12  C   UNL     1       7.561   7.048  17.452  0.00  0.00    +0.000 C 
ATOM     13  N   UNL     1       6.224   6.507  17.489  0.00  0.00    +0.000 N 
ATOM     14  C   UNL     1       6.001   5.197  17.845  0.00  0.00    +0.000 C 
ATOM     15  O   UNL     1       6.902   4.420  18.143  0.00  0.00    +0.000 OA
ATOM     16  H   UNL     1       5.457   7.115  17.233  0.00  0.00    +0.000 HD
ENDBRANCH   1  14
BRANCH   9  17
ATOM     17  C   UNL     1       2.181   7.377  19.077  0.00  0.00    +0.000 C 
BRANCH  17  18
ATOM     18  C   UNL     1       1.517   8.460  19.904  0.00  0.00    +0.000 A 
ATOM     19  C   UNL     1       1.240   8.259  21.266  0.00  0.00    +0.000 A 
ATOM     20  C   UNL     1       0.663   9.277  22.035  0.00  0.00    +0.000 A 
ATOM     21  C   UNL     1       0.395  10.523  21.469  0.00  0.00    +0.000 A 
ATOM     22  C   UNL     1       0.643  10.722  20.112  0.00  0.00    +0.000 A 
ATOM     23  C   UNL     1       1.187   9.696  19.333  0.00  0.00    +0.000 A 
BRANCH  21  24
ATOM     24  O   UNL     1      -0.149  11.460  22.308  0.00  0.00    +0.000 OA
ATOM     25  C   UNL     1      -1.237  10.989  23.104  0.00  0.00    +0.000 C 
ENDBRANCH  21  24
ENDBRANCH  17  18
ENDBRANCH   9  17
TORSDOF 4
ENDMDL
MODEL 6
REMARK VINA RESULT:      -7.1      2.207      3.992
REMARK  Name = 
REMARK  6 active torsions:
REMARK  status: ('A' for Active; 'I' for Inactive)
REMARK    1  A    between atoms: C_1  and  N_2
REMARK    2  A    between atoms: C_3  and  C_5
REMARK    3  A    between atoms: N_13  and  C_14
REMARK    4  A    between atoms: C_14  and  C_15
REMARK    5  A    between atoms: C_18  and  O_19
REMARK    6  A    between atoms: O_19  and  C_20
REMARK                            x       y       z     vdW  Elec       q    Type
REMARK                         _______ _______ _______ _____ _____    ______ ____
ROOT
ATOM      1  C   UNL     1       4.044   4.411  19.219  0.00  0.00    +0.000 C 
ATOM      2  C   UNL     1       5.535   4.043  19.170  0.00  0.00    +0.000 C 
ATOM      3  C   UNL     1       6.407   5.093  18.506  0.00  0.00    +0.000 C 
ATOM      4  S   UNL     1       5.871   5.421  16.848  0.00  0.00    +0.000 S 
ATOM      5  O   UNL     1       6.588   6.577  16.357  0.00  0.00    +0.000 OA
ATOM      6  O   UNL     1       5.903   4.159  16.125  0.00  0.00    +0.000 OA
ATOM      7  C   UNL     1       4.179   5.857  17.061  0.00  0.00    +0.000 C 
ATOM      8  C   UNL     1       3.928   7.158  17.798  0.00  0.00    +0.000 C 
ATOM      9  N   UNL     1       2.511   7.061  18.211  0.00  0.00    +0.000 NA
ATOM     10  C   UNL     1       2.115   5.641  18.157  0.00  0.00    +0.000 C 
ATOM     11  C   UNL     1       3.393   4.838  17.876  0.00  0.00    +0.000 C 
ENDROOT
BRANCH   1  14
ATOM     12  C   UNL     1       1.707   2.590  21.626  0.00  0.00    +0.000 C 
ATOM     13  N   UNL     1       2.481   3.592  20.936  0.00  0.00    +0.000 N 
ATOM     14  C   UNL     1       3.240   3.265  19.836  0.00  0.00    +0.000 C 
ATOM     15  O   UNL     1       3.309   2.127  19.383  0.00  0.00    +0.000 OA
ATOM     16  H   UNL     1       2.460   4.539  21.292  0.00  0.00    +0.000 HD
ENDBRANCH   1  14
BRANCH   9  17
ATOM     17  C   UNL     1       2.269   7.716  19.507  0.00  0.00    +0.000 C 
BRANCH  17  18
ATOM     18  C   UNL     1       1.247   8.836  19.473  0.00  0.00    +0.000 A 
ATOM     19  C   UNL     1       0.552   9.212  20.634  0.00  0.00    +0.000 A 
ATOM     20  C   UNL     1      -0.362  10.273  20.606  0.00  0.00    +0.000 A 
ATOM     21  C   UNL     1      -0.561  11.001  19.434  0.00  0.00    +0.000 A 
ATOM     22  C   UNL     1       0.106  10.617  18.272  0.00  0.00    +0.000 A 
ATOM     23  C   UNL     1       0.992   9.536  18.288  0.00  0.00    +0.000 A 
BRANCH  21  24
ATOM     24  O   UNL     1      -1.459  12.033  19.513  0.00  0.00    +0.000 OA
ATOM     25  C   UNL     1      -2.714  11.784  18.881  0.00  0.00    +0.000 C 
ENDBRANCH  21  24
ENDBRANCH  17  18
ENDBRANCH   9  17
TORSDOF 4
ENDMDL
MODEL 7
REMARK VINA RESULT:      -7.1      0.300      1.027
REMARK  Name = 
REMARK  6 active torsions:
REMARK  status: ('A' for Active; 'I' for Inactive)
REMARK    1  A    between atoms: C_1  and  N_2
REMARK    2  A    between atoms: C_3  and  C_5
REMARK    3  A    between atoms: N_13  and  C_14
REMARK    4  A    between atoms: C_14  and  C_15
REMARK    5  A    between atoms: C_18  and  O_19
REMARK    6  A    between atoms: O_19  and  C_20
REMARK                            x       y       z     vdW  Elec       q    Type
REMARK                         _______ _______ _______ _____ _____    ______ ____
ROOT
ATOM      1  C   UNL     1       3.777   4.514  17.406  0.00  0.00    +0.000 C 
ATOM      2  C   UNL     1       3.258   3.150  16.926  0.00  0.00    +0.000 C 
ATOM      3  C   UNL     1       2.145   2.578  17.786  0.00  0.00    +0.000 C 
ATOM      4  S   UNL     1       2.660   2.404  19.473  0.00  0.00    +0.000 S 
ATOM      5  O   UNL     1       1.501   2.075  20.272  0.00  0.00    +0.000 OA
ATOM      6  O   UNL     1       3.839   1.551  19.481  0.00  0.00    +0.000 OA
ATOM      7  C   UNL     1       3.190   4.030  19.893  0.00  0.00    +0.000 C 
ATOM      8  C   UNL     1       2.097   5.078  19.943  0.00  0.00    +0.000 C 
ATOM      9  N   UNL     1       2.835   6.359  19.875  0.00  0.00    +0.000 NA
ATOM     10  C   UNL     1       4.182   6.083  19.339  0.00  0.00    +0.000 C 
ATOM     11  C   UNL     1       4.187   4.612  18.899  0.00  0.00    +0.000 C 
ENDROOT
BRANCH   1  14
ATOM     12  C   UNL     1       7.198   4.470  15.711  0.00  0.00    +0.000 C 
ATOM     13  N   UNL     1       6.026   4.130  16.480  0.00  0.00    +0.000 N 
ATOM     14  C   UNL     1       4.941   4.974  16.524  0.00  0.00    +0.000 C 
ATOM     15  O   UNL     1       4.900   6.047  15.932  0.00  0.00    +0.000 OA
ATOM     16  H   UNL     1       6.030   3.259  16.994  0.00  0.00    +0.000 HD
ENDBRANCH   1  14
BRANCH   9  17
ATOM     17  C   UNL     1       2.083   7.391  19.142  0.00  0.00    +0.000 C 
BRANCH  17  18
ATOM     18  C   UNL     1       1.518   8.501  20.007  0.00  0.00    +0.000 A 
ATOM     19  C   UNL     1       1.081   9.707  19.435  0.00  0.00    +0.000 A 
ATOM     20  C   UNL     1       0.524  10.714  20.233  0.00  0.00    +0.000 A 
ATOM     21  C   UNL     1       0.353  10.515  21.602  0.00  0.00    +0.000 A 
ATOM     22  C   UNL     1       0.808   9.331  22.181  0.00  0.00    +0.000 A 
ATOM     23  C   UNL     1       1.397   8.338  21.392  0.00  0.00    +0.000 A 
BRANCH  21  24
ATOM     24  O   UNL     1      -0.221  11.550  22.293  0.00  0.00    +0.000 OA
ATOM     25  C   UNL     1      -1.455  12.019  21.750  0.00  0.00    +0.000 C 
ENDBRANCH  21  24
ENDBRANCH  17  18
ENDBRANCH   9  17
TORSDOF 4
ENDMDL
MODEL 8
REMARK VINA RESULT:      -6.9      1.448      1.655
REMARK  Name = 
REMARK  6 active torsions:
REMARK  status: ('A' for Active; 'I' for Inactive)
REMARK    1  A    between atoms: C_1  and  N_2
REMARK    2  A    between atoms: C_3  and  C_5
REMARK    3  A    between atoms: N_13  and  C_14
REMARK    4  A    between atoms: C_14  and  C_15
REMARK    5  A    between atoms: C_18  and  O_19
REMARK    6  A    between atoms: O_19  and  C_20
REMARK                            x       y       z     vdW  Elec       q    Type
REMARK                         _______ _______ _______ _____ _____    ______ ____
ROOT
ATOM      1  C   UNL     1       3.784   4.171  17.870  0.00  0.00    +0.000 C 
ATOM      2  C   UNL     1       3.275   2.722  17.824  0.00  0.00    +0.000 C 
ATOM      3  C   UNL     1       2.100   2.453  18.748  0.00  0.00    +0.000 C 
ATOM      4  S   UNL     1       2.504   2.838  20.431  0.00  0.00    +0.000 S 
ATOM      5  O   UNL     1       1.290   2.779  21.215  0.00  0.00    +0.000 OA
ATOM      6  O   UNL     1       3.666   2.041  20.792  0.00  0.00    +0.000 OA
ATOM      7  C   UNL     1       3.031   4.515  20.335  0.00  0.00    +0.000 C 
ATOM      8  C   UNL     1       1.954   5.517  19.971  0.00  0.00    +0.000 C 
ATOM      9  N   UNL     1       2.715   6.711  19.541  0.00  0.00    +0.000 NA
ATOM     10  C   UNL     1       4.089   6.284  19.213  0.00  0.00    +0.000 C 
ATOM     11  C   UNL     1       4.099   4.750  19.275  0.00  0.00    +0.000 C 
ENDROOT
BRANCH   1  14
ATOM     12  C   UNL     1       7.457   4.406  16.854  0.00  0.00    +0.000 C 
ATOM     13  N   UNL     1       6.231   4.241  17.594  0.00  0.00    +0.000 N 
ATOM     14  C   UNL     1       5.009   4.326  16.966  0.00  0.00    +0.000 C 
ATOM     15  O   UNL     1       4.886   4.546  15.766  0.00  0.00    +0.000 OA
ATOM     16  H   UNL     1       6.293   4.074  18.589  0.00  0.00    +0.000 HD
ENDBRANCH   1  14
BRANCH   9  17
ATOM     17  C   UNL     1       2.028   7.445  18.465  0.00  0.00    +0.000 C 
BRANCH  17  18
ATOM     18  C   UNL     1       1.644   8.870  18.812  0.00  0.00    +0.000 A 
ATOM     19  C   UNL     1       0.965   9.163  20.005  0.00  0.00    +0.000 A 
ATOM     20  C   UNL     1       0.647  10.485  20.341  0.00  0.00    +0.000 A 
ATOM     21  C   UNL     1       1.043  11.535  19.514  0.00  0.00    +0.000 A 
ATOM     22  C   UNL     1       1.695  11.251  18.315  0.00  0.00    +0.000 A 
ATOM     23  C   UNL     1       1.981   9.930  17.961  0.00  0.00    +0.000 A 
BRANCH  21  24
ATOM     24  O   UNL     1       0.705  12.794  19.939  0.00  0.00    +0.000 OA
ATOM     25  C   UNL     1      -0.699  13.036  20.034  0.00  0.00    +0.000 C 
ENDBRANCH  21  24
ENDBRANCH  17  18
ENDBRANCH   9  17
TORSDOF 4
ENDMDL
MODEL 9
REMARK VINA RESULT:      -6.9      2.296      4.020
REMARK  Name = 
REMARK  6 active torsions:
REMARK  status: ('A' for Active; 'I' for Inactive)
REMARK    1  A    between atoms: C_1  and  N_2
REMARK    2  A    between atoms: C_3  and  C_5
REMARK    3  A    between atoms: N_13  and  C_14
REMARK    4  A    between atoms: C_14  and  C_15
REMARK    5  A    between atoms: C_18  and  O_19
REMARK    6  A    between atoms: O_19  and  C_20
REMARK                            x       y       z     vdW  Elec       q    Type
REMARK                         _______ _______ _______ _____ _____    ______ ____
ROOT
ATOM      1  C   UNL     1       4.763   4.669  18.959  0.00  0.00    +0.000 C 
ATOM      2  C   UNL     1       6.295   4.603  19.042  0.00  0.00    +0.000 C 
ATOM      3  C   UNL     1       6.989   5.892  18.637  0.00  0.00    +0.000 C 
ATOM      4  S   UNL     1       6.550   6.367  16.986  0.00  0.00    +0.000 S 
ATOM      5  O   UNL     1       7.056   7.701  16.747  0.00  0.00    +0.000 OA
ATOM      6  O   UNL     1       6.908   5.264  16.107  0.00  0.00    +0.000 OA
ATOM      7  C   UNL     1       4.793   6.435  17.050  0.00  0.00    +0.000 C 
ATOM      8  C   UNL     1       4.213   7.532  17.920  0.00  0.00    +0.000 C 
ATOM      9  N   UNL     1       2.815   7.103  18.142  0.00  0.00    +0.000 NA
ATOM     10  C   UNL     1       2.727   5.660  17.849  0.00  0.00    +0.000 C 
ATOM     11  C   UNL     1       4.162   5.169  17.618  0.00  0.00    +0.000 C 
ENDROOT
BRANCH   1  14
ATOM     12  C   UNL     1       3.685   1.030  18.542  0.00  0.00    +0.000 C 
ATOM     13  N   UNL     1       4.249   2.341  18.339  0.00  0.00    +0.000 N 
ATOM     14  C   UNL     1       4.158   3.308  19.314  0.00  0.00    +0.000 C 
ATOM     15  O   UNL     1       3.603   3.124  20.392  0.00  0.00    +0.000 OA
ATOM     16  H   UNL     1       4.701   2.534  17.455  0.00  0.00    +0.000 HD
ENDBRANCH   1  14
BRANCH   9  17
ATOM     17  C   UNL     1       2.326   7.489  19.477  0.00  0.00    +0.000 C 
BRANCH  17  18
ATOM     18  C   UNL     1       1.360   8.657  19.487  0.00  0.00    +0.000 A 
ATOM     19  C   UNL     1       1.032   9.331  18.299  0.00  0.00    +0.000 A 
ATOM     20  C   UNL     1       0.109  10.384  18.307  0.00  0.00    +0.000 A 
ATOM     21  C   UNL     1      -0.533  10.750  19.490  0.00  0.00    +0.000 A 
ATOM     22  C   UNL     1      -0.194  10.103  20.677  0.00  0.00    +0.000 A 
ATOM     23  C   UNL     1       0.754   9.075  20.678  0.00  0.00    +0.000 A 
BRANCH  21  24
ATOM     24  O   UNL     1      -1.435  11.777  19.391  0.00  0.00    +0.000 OA
ATOM     25  C   UNL     1      -0.874  13.029  18.997  0.00  0.00    +0.000 C 
ENDBRANCH  21  24
ENDBRANCH  17  18
ENDBRANCH   9  17
TORSDOF 4
ENDMDL
