MODEL 1
REMARK VINA RESULT:      -7.2      0.000      0.000
REMARK  Name = 
REMARK  3 active torsions:
REMARK  status: ('A' for Active; 'I' for Inactive)
REMARK    1  A    between atoms: C_1  and  N_2
REMARK    2  A    between atoms: C_6  and  C_7
REMARK    3  A    between atoms: C_11  and  O_12
REMARK                            x       y       z     vdW  Elec       q    Type
REMARK                         _______ _______ _______ _____ _____    ______ ____
ROOT
ATOM      1  C   UNL     1       2.410   7.371  18.748  0.00  0.00    +0.000 A 
ATOM      2  N   UNL     1       2.088   7.247  20.018  0.00  0.00    +0.000 NA
ATOM      3  C   UNL     1       1.451   8.398  20.466  0.00  0.00    +0.000 A 
ATOM      4  C   UNL     1       1.035   8.658  21.788  0.00  0.00    +0.000 A 
ATOM      5  C   UNL     1       0.437   9.885  22.079  0.00  0.00    +0.000 A 
ATOM      6  C   UNL     1       0.237  10.846  21.099  0.00  0.00    +0.000 A 
ATOM      7  C   UNL     1       0.631  10.606  19.783  0.00  0.00    +0.000 A 
ATOM      8  C   UNL     1       1.238   9.375  19.490  0.00  0.00    +0.000 A 
ATOM      9  S   UNL     1       1.829   8.804  17.987  0.00  0.00    +0.000 S 
ENDROOT
BRANCH   1  15
ATOM     10  C   UNL     1       6.922   4.313  15.430  0.00  0.00    +0.000 C 
ATOM     11  N   UNL     1       5.756   3.699  16.051  0.00  0.00    +0.000 N 
ATOM     12  C   UNL     1       4.897   4.621  16.671  0.00  0.00    +0.000 A 
ATOM     13  C   UNL     1       3.760   4.146  17.323  0.00  0.00    +0.000 A 
ATOM     14  C   UNL     1       2.920   5.042  17.995  0.00  0.00    +0.000 A 
ATOM     15  C   UNL     1       3.217   6.405  17.992  0.00  0.00    +0.000 A 
ATOM     16  C   UNL     1       4.353   6.783  17.287  0.00  0.00    +0.000 A 
ATOM     17  N   UNL     1       5.179   5.935  16.628  0.00  0.00    +0.000 NA
ATOM     18  H   UNL     1       6.024   3.000  16.738  0.00  0.00    +0.000 HD
ENDBRANCH   1  15
BRANCH   5  19
ATOM     19  O   UNL     1       0.029  10.189  23.346  0.00  0.00    +0.000 OA
ATOM     20  H   UNL     1      -0.038  11.154  23.432  0.00  0.00    +0.000 HD
ENDBRANCH   5  19
TORSDOF 2
ENDMDL
MODEL 2
REMARK VINA RESULT:      -7.0      3.383      7.459
REMARK  Name = 
REMARK  3 active torsions:
REMARK  status: ('A' for Active; 'I' for Inactive)
REMARK    1  A    between atoms: C_1  and  N_2
REMARK    2  A    between atoms: C_6  and  C_7
REMARK    3  A    between atoms: C_11  and  O_12
REMARK                            x       y       z     vdW  Elec       q    Type
REMARK                         _______ _______ _______ _____ _____    ______ ____
ROOT
ATOM      1  C   UNL     1       2.960   6.905  18.223  0.00  0.00    +0.000 A 
ATOM      2  N   UNL     1       3.936   7.352  17.462  0.00  0.00    +0.000 NA
ATOM      3  C   UNL     1       4.632   6.288  16.900  0.00  0.00    +0.000 A 
ATOM      4  C   UNL     1       5.786   6.381  16.095  0.00  0.00    +0.000 A 
ATOM      5  C   UNL     1       6.386   5.207  15.636  0.00  0.00    +0.000 A 
ATOM      6  C   UNL     1       5.870   3.958  15.948  0.00  0.00    +0.000 A 
ATOM      7  C   UNL     1       4.723   3.843  16.734  0.00  0.00    +0.000 A 
ATOM      8  C   UNL     1       4.123   5.023  17.201  0.00  0.00    +0.000 A 
ATOM      9  S   UNL     1       2.729   5.198  18.182  0.00  0.00    +0.000 S 
ENDROOT
BRANCH   1  15
ATOM     10  C   UNL     1      -0.157   9.684  23.048  0.00  0.00    +0.000 C 
ATOM     11  N   UNL     1      -0.032  10.212  21.697  0.00  0.00    +0.000 N 
ATOM     12  C   UNL     1       0.662   9.361  20.821  0.00  0.00    +0.000 A 
ATOM     13  C   UNL     1       0.869   9.774  19.506  0.00  0.00    +0.000 A 
ATOM     14  C   UNL     1       1.606   8.967  18.632  0.00  0.00    +0.000 A 
ATOM     15  C   UNL     1       2.115   7.747  19.079  0.00  0.00    +0.000 A 
ATOM     16  C   UNL     1       1.828   7.410  20.396  0.00  0.00    +0.000 A 
ATOM     17  N   UNL     1       1.115   8.173  21.258  0.00  0.00    +0.000 NA
ATOM     18  H   UNL     1       0.426  11.119  21.691  0.00  0.00    +0.000 HD
ENDBRANCH   1  15
BRANCH   5  19
ATOM     19  O   UNL     1       7.512   5.245  14.865  0.00  0.00    +0.000 OA
ATOM     20  H   UNL     1       7.454   6.001  14.259  0.00  0.00    +0.000 HD
ENDBRANCH   5  19
TORSDOF 2
ENDMDL
MODEL 3
REMARK VINA RESULT:      -6.9      4.986      5.342
REMARK  Name = 
REMARK  3 active torsions:
REMARK  status: ('A' for Active; 'I' for Inactive)
REMARK    1  A    between atoms: C_1  and  N_2
REMARK    2  A    between atoms: C_6  and  C_7
REMARK    3  A    between atoms: C_11  and  O_12
REMARK                            x       y       z     vdW  Elec       q    Type
REMARK                         _______ _______ _______ _____ _____    ______ ____
ROOT
ATOM      1  C   UNL     1       4.231   3.683  17.517  0.00  0.00    +0.000 A 
ATOM      2  N   UNL     1       4.399   3.359  18.782  0.00  0.00    +0.000 NA
ATOM      3  C   UNL     1       3.167   3.139  19.387  0.00  0.00    +0.000 A 
ATOM      4  C   UNL     1       2.950   2.851  20.750  0.00  0.00    +0.000 A 
ATOM      5  C   UNL     1       1.641   2.690  21.207  0.00  0.00    +0.000 A 
ATOM      6  C   UNL     1       0.554   2.800  20.351  0.00  0.00    +0.000 A 
ATOM      7  C   UNL     1       0.747   3.073  18.996  0.00  0.00    +0.000 A 
ATOM      8  C   UNL     1       2.063   3.240  18.538  0.00  0.00    +0.000 A 
ATOM      9  S   UNL     1       2.607   3.589  16.951  0.00  0.00    +0.000 S 
ENDROOT
BRANCH   1  15
ATOM     10  C   UNL     1       7.876   5.281  12.529  0.00  0.00    +0.000 C 
ATOM     11  N   UNL     1       8.165   5.576  13.925  0.00  0.00    +0.000 N 
ATOM     12  C   UNL     1       7.215   5.054  14.819  0.00  0.00    +0.000 A 
ATOM     13  C   UNL     1       7.372   5.297  16.183  0.00  0.00    +0.000 A 
ATOM     14  C   UNL     1       6.408   4.834  17.086  0.00  0.00    +0.000 A 
ATOM     15  C   UNL     1       5.306   4.119  16.617  0.00  0.00    +0.000 A 
ATOM     16  C   UNL     1       5.257   3.901  15.246  0.00  0.00    +0.000 A 
ATOM     17  N   UNL     1       6.178   4.336  14.354  0.00  0.00    +0.000 NA
ATOM     18  H   UNL     1       8.241   6.576  14.087  0.00  0.00    +0.000 HD
ENDBRANCH   1  15
BRANCH   5  19
ATOM     19  O   UNL     1       1.378   2.425  22.520  0.00  0.00    +0.000 OA
ATOM     20  H   UNL     1       0.416   2.359  22.641  0.00  0.00    +0.000 HD
ENDBRANCH   5  19
TORSDOF 2
ENDMDL
MODEL 4
REMARK VINA RESULT:      -6.8      3.440      7.423
REMARK  Name = 
REMARK  3 active torsions:
REMARK  status: ('A' for Active; 'I' for Inactive)
REMARK    1  A    between atoms: C_1  and  N_2
REMARK    2  A    between atoms: C_6  and  C_7
REMARK    3  A    between atoms: C_11  and  O_12
REMARK                            x       y       z     vdW  Elec       q    Type
REMARK                         _______ _______ _______ _____ _____    ______ ____
ROOT
ATOM      1  C   UNL     1       3.005   6.919  18.226  0.00  0.00    +0.000 A 
ATOM      2  N   UNL     1       3.966   7.342  17.434  0.00  0.00    +0.000 NA
ATOM      3  C   UNL     1       4.637   6.260  16.874  0.00  0.00    +0.000 A 
ATOM      4  C   UNL     1       5.770   6.327  16.039  0.00  0.00    +0.000 A 
ATOM      5  C   UNL     1       6.347   5.138  15.587  0.00  0.00    +0.000 A 
ATOM      6  C   UNL     1       5.826   3.900  15.935  0.00  0.00    +0.000 A 
ATOM      7  C   UNL     1       4.698   3.812  16.751  0.00  0.00    +0.000 A 
ATOM      8  C   UNL     1       4.122   5.006  17.211  0.00  0.00    +0.000 A 
ATOM      9  S   UNL     1       2.755   5.215  18.223  0.00  0.00    +0.000 S 
ENDROOT
BRANCH   1  15
ATOM     10  C   UNL     1      -0.900  11.346  20.650  0.00  0.00    +0.000 C 
ATOM     11  N   UNL     1      -0.386  10.182  21.359  0.00  0.00    +0.000 N 
ATOM     12  C   UNL     1       0.501   9.405  20.597  0.00  0.00    +0.000 A 
ATOM     13  C   UNL     1       1.037   8.249  21.161  0.00  0.00    +0.000 A 
ATOM     14  C   UNL     1       1.879   7.430  20.400  0.00  0.00    +0.000 A 
ATOM     15  C   UNL     1       2.190   7.786  19.087  0.00  0.00    +0.000 A 
ATOM     16  C   UNL     1       1.633   8.973  18.627  0.00  0.00    +0.000 A 
ATOM     17  N   UNL     1       0.818   9.782  19.345  0.00  0.00    +0.000 NA
ATOM     18  H   UNL     1      -1.138   9.582  21.685  0.00  0.00    +0.000 HD
ENDBRANCH   1  15
BRANCH   5  19
ATOM     19  O   UNL     1       7.454   5.149  14.788  0.00  0.00    +0.000 OA
ATOM     20  H   UNL     1       8.127   4.566  15.175  0.00  0.00    +0.000 HD
ENDBRANCH   5  19
TORSDOF 2
ENDMDL
MODEL 5
REMARK VINA RESULT:      -6.6      3.912      4.954
REMARK  Name = 
REMARK  3 active torsions:
REMARK  status: ('A' for Active; 'I' for Inactive)
REMARK    1  A    between atoms: C_1  and  N_2
REMARK    2  A    between atoms: C_6  and  C_7
REMARK    3  A    between atoms: C_11  and  O_12
REMARK                            x       y       z     vdW  Elec       q    Type
REMARK                         _______ _______ _______ _____ _____    ______ ____
ROOT
ATOM      1  C   UNL     1       4.396   4.510  17.237  0.00  0.00    +0.000 A 
ATOM      2  N   UNL     1       4.164   3.377  17.863  0.00  0.00    +0.000 NA
ATOM      3  C   UNL     1       3.450   3.612  19.033  0.00  0.00    +0.000 A 
ATOM      4  C   UNL     1       3.091   2.647  19.996  0.00  0.00    +0.000 A 
ATOM      5  C   UNL     1       2.400   3.057  21.138  0.00  0.00    +0.000 A 
ATOM      6  C   UNL     1       2.054   4.385  21.340  0.00  0.00    +0.000 A 
ATOM      7  C   UNL     1       2.390   5.354  20.394  0.00  0.00    +0.000 A 
ATOM      8  C   UNL     1       3.090   4.944  19.249  0.00  0.00    +0.000 A 
ATOM      9  S   UNL     1       3.641   5.894  17.933  0.00  0.00    +0.000 S 
ENDROOT
BRANCH   1  15
ATOM     10  C   UNL     1       8.993   5.851  13.020  0.00  0.00    +0.000 C 
ATOM     11  N   UNL     1       7.899   4.911  12.818  0.00  0.00    +0.000 N 
ATOM     12  C   UNL     1       6.998   4.857  13.895  0.00  0.00    +0.000 A 
ATOM     13  C   UNL     1       5.924   3.971  13.828  0.00  0.00    +0.000 A 
ATOM     14  C   UNL     1       5.047   3.860  14.913  0.00  0.00    +0.000 A 
ATOM     15  C   UNL     1       5.243   4.649  16.046  0.00  0.00    +0.000 A 
ATOM     16  C   UNL     1       6.322   5.524  16.003  0.00  0.00    +0.000 A 
ATOM     17  N   UNL     1       7.182   5.650  14.965  0.00  0.00    +0.000 NA
ATOM     18  H   UNL     1       8.242   3.972  12.641  0.00  0.00    +0.000 HD
ENDBRANCH   1  15
BRANCH   5  19
ATOM     19  O   UNL     1       2.043   2.163  22.106  0.00  0.00    +0.000 OA
ATOM     20  H   UNL     1       1.357   2.564  22.666  0.00  0.00    +0.000 HD
ENDBRANCH   5  19
TORSDOF 2
ENDMDL
MODEL 6
REMARK VINA RESULT:      -6.5      1.570      2.047
REMARK  Name = 
REMARK  3 active torsions:
REMARK  status: ('A' for Active; 'I' for Inactive)
REMARK    1  A    between atoms: C_1  and  N_2
REMARK    2  A    between atoms: C_6  and  C_7
REMARK    3  A    between atoms: C_11  and  O_12
REMARK                            x       y       z     vdW  Elec       q    Type
REMARK                         _______ _______ _______ _____ _____    ______ ____
ROOT
ATOM      1  C   UNL     1       3.216   6.932  18.154  0.00  0.00    +0.000 A 
ATOM      2  N   UNL     1       2.716   8.124  17.909  0.00  0.00    +0.000 NA
ATOM      3  C   UNL     1       1.905   8.530  18.962  0.00  0.00    +0.000 A 
ATOM      4  C   UNL     1       1.143   9.715  19.015  0.00  0.00    +0.000 A 
ATOM      5  C   UNL     1       0.350   9.958  20.138  0.00  0.00    +0.000 A 
ATOM      6  C   UNL     1       0.303   9.067  21.201  0.00  0.00    +0.000 A 
ATOM      7  C   UNL     1       1.058   7.895  21.174  0.00  0.00    +0.000 A 
ATOM      8  C   UNL     1       1.851   7.647  20.042  0.00  0.00    +0.000 A 
ATOM      9  S   UNL     1       2.866   6.305  19.720  0.00  0.00    +0.000 S 
ENDROOT
BRANCH   1  15
ATOM     10  C   UNL     1       7.330   4.815  13.760  0.00  0.00    +0.000 C 
ATOM     11  N   UNL     1       6.498   3.985  14.619  0.00  0.00    +0.000 N 
ATOM     12  C   UNL     1       5.642   4.719  15.455  0.00  0.00    +0.000 A 
ATOM     13  C   UNL     1       4.817   4.032  16.343  0.00  0.00    +0.000 A 
ATOM     14  C   UNL     1       3.997   4.746  17.225  0.00  0.00    +0.000 A 
ATOM     15  C   UNL     1       3.999   6.141  17.197  0.00  0.00    +0.000 A 
ATOM     16  C   UNL     1       4.831   6.733  16.254  0.00  0.00    +0.000 A 
ATOM     17  N   UNL     1       5.631   6.063  15.390  0.00  0.00    +0.000 NA
ATOM     18  H   UNL     1       7.060   3.368  15.199  0.00  0.00    +0.000 HD
ENDBRANCH   1  15
BRANCH   5  19
ATOM     19  O   UNL     1      -0.417  11.084  20.231  0.00  0.00    +0.000 OA
ATOM     20  H   UNL     1       0.016  11.801  19.740  0.00  0.00    +0.000 HD
ENDBRANCH   5  19
TORSDOF 2
ENDMDL
MODEL 7
REMARK VINA RESULT:      -6.4      3.578      7.039
REMARK  Name = 
REMARK  3 active torsions:
REMARK  status: ('A' for Active; 'I' for Inactive)
REMARK    1  A    between atoms: C_1  and  N_2
REMARK    2  A    between atoms: C_6  and  C_7
REMARK    3  A    between atoms: C_11  and  O_12
REMARK                            x       y       z     vdW  Elec       q    Type
REMARK                         _______ _______ _______ _____ _____    ______ ____
ROOT
ATOM      1  C   UNL     1       2.542   6.054  18.800  0.00  0.00    +0.000 A 
ATOM      2  N   UNL     1       3.549   5.546  19.478  0.00  0.00    +0.000 NA
ATOM      3  C   UNL     1       3.640   4.178  19.249  0.00  0.00    +0.000 A 
ATOM      4  C   UNL     1       4.546   3.290  19.865  0.00  0.00    +0.000 A 
ATOM      5  C   UNL     1       4.482   1.932  19.548  0.00  0.00    +0.000 A 
ATOM      6  C   UNL     1       3.555   1.441  18.639  0.00  0.00    +0.000 A 
ATOM      7  C   UNL     1       2.657   2.303  18.010  0.00  0.00    +0.000 A 
ATOM      8  C   UNL     1       2.717   3.668  18.333  0.00  0.00    +0.000 A 
ATOM      9  S   UNL     1       1.750   4.952  17.739  0.00  0.00    +0.000 S 
ENDROOT
BRANCH   1  15
ATOM     10  C   UNL     1       0.623  11.803  20.795  0.00  0.00    +0.000 C 
ATOM     11  N   UNL     1       0.987  11.452  19.430  0.00  0.00    +0.000 N 
ATOM     12  C   UNL     1       1.317  10.097  19.265  0.00  0.00    +0.000 A 
ATOM     13  C   UNL     1       1.709   9.649  18.005  0.00  0.00    +0.000 A 
ATOM     14  C   UNL     1       2.096   8.315  17.831  0.00  0.00    +0.000 A 
ATOM     15  C   UNL     1       2.071   7.439  18.917  0.00  0.00    +0.000 A 
ATOM     16  C   UNL     1       1.634   7.973  20.124  0.00  0.00    +0.000 A 
ATOM     17  N   UNL     1       1.253   9.258  20.315  0.00  0.00    +0.000 NA
ATOM     18  H   UNL     1       1.765  12.013  19.095  0.00  0.00    +0.000 HD
ENDBRANCH   1  15
BRANCH   5  19
ATOM     19  O   UNL     1       5.328   1.031  20.128  0.00  0.00    +0.000 OA
ATOM     20  H   UNL     1       4.803   0.306  20.506  0.00  0.00    +0.000 HD
ENDBRANCH   5  19
TORSDOF 2
ENDMDL
MODEL 8
REMARK VINA RESULT:      -6.3      1.603      2.130
REMARK  Name = 
REMARK  3 active torsions:
REMARK  status: ('A' for Active; 'I' for Inactive)
REMARK    1  A    between atoms: C_1  and  N_2
REMARK    2  A    between atoms: C_6  and  C_7
REMARK    3  A    between atoms: C_11  and  O_12
REMARK                            x       y       z     vdW  Elec       q    Type
REMARK                         _______ _______ _______ _____ _____    ______ ____
ROOT
ATOM      1  C   UNL     1       1.895   7.432  19.585  0.00  0.00    +0.000 A 
ATOM      2  N   UNL     1       1.344   7.599  20.768  0.00  0.00    +0.000 NA
ATOM      3  C   UNL     1       0.907   8.911  20.912  0.00  0.00    +0.000 A 
ATOM      4  C   UNL     1       0.340   9.476  22.073  0.00  0.00    +0.000 A 
ATOM      5  C   UNL     1      -0.016  10.826  22.063  0.00  0.00    +0.000 A 
ATOM      6  C   UNL     1       0.168  11.617  20.938  0.00  0.00    +0.000 A 
ATOM      7  C   UNL     1       0.717  11.076  19.776  0.00  0.00    +0.000 A 
ATOM      8  C   UNL     1       1.081   9.720  19.787  0.00  0.00    +0.000 A 
ATOM      9  S   UNL     1       1.779   8.788  18.530  0.00  0.00    +0.000 S 
ENDROOT
BRANCH   1  15
ATOM     10  C   UNL     1       3.757   1.442  18.412  0.00  0.00    +0.000 C 
ATOM     11  N   UNL     1       4.288   2.640  17.778  0.00  0.00    +0.000 N 
ATOM     12  C   UNL     1       3.733   3.832  18.270  0.00  0.00    +0.000 A 
ATOM     13  C   UNL     1       4.145   5.044  17.717  0.00  0.00    +0.000 A 
ATOM     14  C   UNL     1       3.563   6.240  18.154  0.00  0.00    +0.000 A 
ATOM     15  C   UNL     1       2.588   6.212  19.151  0.00  0.00    +0.000 A 
ATOM     16  C   UNL     1       2.269   4.959  19.661  0.00  0.00    +0.000 A 
ATOM     17  N   UNL     1       2.820   3.790  19.256  0.00  0.00    +0.000 NA
ATOM     18  H   UNL     1       4.156   2.618  16.770  0.00  0.00    +0.000 HD
ENDBRANCH   1  15
BRANCH   5  19
ATOM     19  O   UNL     1      -0.556  11.422  23.166  0.00  0.00    +0.000 OA
ATOM     20  H   UNL     1      -1.315  10.898  23.467  0.00  0.00    +0.000 HD
ENDBRANCH   5  19
TORSDOF 2
ENDMDL
MODEL 9
REMARK VINA RESULT:      -6.3      3.242      7.221
REMARK  Name = 
REMARK  3 active torsions:
REMARK  status: ('A' for Active; 'I' for Inactive)
REMARK    1  A    between atoms: C_1  and  N_2
REMARK    2  A    between atoms: C_6  and  C_7
REMARK    3  A    between atoms: C_11  and  O_12
REMARK                            x       y       z     vdW  Elec       q    Type
REMARK                         _______ _______ _______ _____ _____    ______ ____
ROOT
ATOM      1  C   UNL     1       2.276   7.197  19.560  0.00  0.00    +0.000 A 
ATOM      2  N   UNL     1       2.408   6.016  20.125  0.00  0.00    +0.000 NA
ATOM      3  C   UNL     1       3.060   5.142  19.262  0.00  0.00    +0.000 A 
ATOM      4  C   UNL     1       3.306   3.774  19.495  0.00  0.00    +0.000 A 
ATOM      5  C   UNL     1       3.946   3.025  18.505  0.00  0.00    +0.000 A 
ATOM      6  C   UNL     1       4.348   3.597  17.307  0.00  0.00    +0.000 A 
ATOM      7  C   UNL     1       4.124   4.952  17.061  0.00  0.00    +0.000 A 
ATOM      8  C   UNL     1       3.476   5.704  18.053  0.00  0.00    +0.000 A 
ATOM      9  S   UNL     1       3.058   7.366  18.035  0.00  0.00    +0.000 S 
ENDROOT
BRANCH   1  15
ATOM     10  C   UNL     1      -1.286  12.393  20.578  0.00  0.00    +0.000 C 
ATOM     11  N   UNL     1      -0.914  11.404  21.580  0.00  0.00    +0.000 N 
ATOM     12  C   UNL     1      -0.074  10.392  21.089  0.00  0.00    +0.000 A 
ATOM     13  C   UNL     1       0.326   9.372  21.951  0.00  0.00    +0.000 A 
ATOM     14  C   UNL     1       1.117   8.324  21.468  0.00  0.00    +0.000 A 
ATOM     15  C   UNL     1       1.513   8.315  20.130  0.00  0.00    +0.000 A 
ATOM     16  C   UNL     1       1.091   9.391  19.359  0.00  0.00    +0.000 A 
ATOM     17  N   UNL     1       0.328  10.417  19.806  0.00  0.00    +0.000 NA
ATOM     18  H   UNL     1      -1.732  10.967  21.995  0.00  0.00    +0.000 HD
ENDBRANCH   1  15
BRANCH   5  19
ATOM     19  O   UNL     1       4.194   1.693  18.677  0.00  0.00    +0.000 OA
ATOM     20  H   UNL     1       5.107   1.506  18.400  0.00  0.00    +0.000 HD
ENDBRANCH   5  19
TORSDOF 2
ENDMDL
