MODEL 1
REMARK VINA RESULT:      -6.2      0.000      0.000
REMARK  Name = 
REMARK  4 active torsions:
REMARK  status: ('A' for Active; 'I' for Inactive)
REMARK    1  A    between atoms: C_1  and  O_2
REMARK    2  A    between atoms: O_2  and  C_3
REMARK    3  A    between atoms: C_3  and  C_5
REMARK    4  A    between atoms: C_6  and  C_7
REMARK                            x       y       z     vdW  Elec       q    Type
REMARK                         _______ _______ _______ _____ _____    ______ ____
ROOT
ATOM      1  C   UNL     1      -5.311  13.864  21.677  0.00  0.00    +0.000 C 
ATOM      2  C   UNL     1      -3.993  14.189  21.529  0.00  0.00    +0.000 C 
ATOM      3  C   UNL     1      -3.608  15.675  21.351  0.00  0.00    +0.000 C 
ATOM      4  C   UNL     1      -4.810  16.644  21.495  0.00  0.00    +0.000 C 
ATOM      5  C   UNL     1      -5.311  16.690  22.954  0.00  0.00    +0.000 C 
ATOM      6  C   UNL     1      -6.405  15.633  23.046  0.00  0.00    +0.000 C 
ATOM      7  C   UNL     1      -6.377  14.978  21.687  0.00  0.00    +0.000 C 
ATOM      8  N   UNL     1      -5.924  16.032  20.797  0.00  0.00    +0.000 N 
ATOM      9  C   UNL     1      -6.132  16.247  19.449  0.00  0.00    +0.000 C 
ATOM     10  O   UNL     1      -5.687  17.242  18.902  0.00  0.00    +0.000 OA
ATOM     11  N   UNL     1      -6.845  15.280  18.748  0.00  0.00    +0.000 N 
ATOM     12  C   UNL     1      -7.379  13.997  19.184  0.00  0.00    +0.000 C 
ATOM     13  C   UNL     1      -6.947  12.832  18.320  0.00  0.00    +0.000 C 
ATOM     14  O   UNL     1      -7.320  13.067  16.971  0.00  0.00    +0.000 OA
ATOM     15  C   UNL     1      -6.733  14.293  16.511  0.00  0.00    +0.000 C 
ATOM     16  C   UNL     1      -7.172  15.504  17.343  0.00  0.00    +0.000 C 
ENDROOT
BRANCH   2  17
ATOM     17  C   UNL     1      -2.988  13.165  21.579  0.00  0.00    +0.000 A 
ATOM     18  C   UNL     1      -2.509  12.459  22.665  0.00  0.00    +0.000 A 
ATOM     19  C   UNL     1      -1.531  11.463  22.322  0.00  0.00    +0.000 A 
ATOM     20  C   UNL     1      -0.823  10.551  23.142  0.00  0.00    +0.000 A 
ATOM     21  C   UNL     1       0.070   9.634  22.581  0.00  0.00    +0.000 A 
ATOM     22  C   UNL     1       0.270   9.609  21.208  0.00  0.00    +0.000 A 
ATOM     23  C   UNL     1      -0.405  10.505  20.373  0.00  0.00    +0.000 A 
ATOM     24  C   UNL     1      -1.300  11.433  20.947  0.00  0.00    +0.000 A 
ATOM     25  S   UNL     1      -2.229  12.634  20.133  0.00  0.00    +0.000 S 
ENDBRANCH   2  17
BRANCH   1  26
ATOM     26  C   UNL     1      -5.837  12.462  21.752  0.00  0.00    +0.000 C 
ATOM     27  O   UNL     1      -5.735  11.616  20.862  0.00  0.00    +0.000 OA
BRANCH  26  29
ATOM     28  C   UNL     1      -7.917  11.835  22.595  0.00  0.00    +0.000 C 
ATOM     29  O   UNL     1      -6.599  12.308  22.861  0.00  0.00    +0.000 OA
ENDBRANCH  26  29
ENDBRANCH   1  26
TORSDOF 3
ENDMDL
MODEL 2
REMARK VINA RESULT:      -6.1      3.955      6.051
REMARK  Name = 
REMARK  4 active torsions:
REMARK  status: ('A' for Active; 'I' for Inactive)
REMARK    1  A    between atoms: C_1  and  O_2
REMARK    2  A    between atoms: O_2  and  C_3
REMARK    3  A    between atoms: C_3  and  C_5
REMARK    4  A    between atoms: C_6  and  C_7
REMARK                            x       y       z     vdW  Elec       q    Type
REMARK                         _______ _______ _______ _____ _____    ______ ____
ROOT
ATOM      1  C   UNL     1      -1.482  12.334  20.355  0.00  0.00    +0.000 C 
ATOM      2  C   UNL     1      -0.690  11.518  21.111  0.00  0.00    +0.000 C 
ATOM      3  C   UNL     1      -0.672  11.711  22.644  0.00  0.00    +0.000 C 
ATOM      4  C   UNL     1      -1.693  12.767  23.144  0.00  0.00    +0.000 C 
ATOM      5  C   UNL     1      -3.140  12.260  22.975  0.00  0.00    +0.000 C 
ATOM      6  C   UNL     1      -3.592  12.758  21.608  0.00  0.00    +0.000 C 
ATOM      7  C   UNL     1      -2.353  13.406  21.040  0.00  0.00    +0.000 C 
ATOM      8  N   UNL     1      -1.634  13.876  22.211  0.00  0.00    +0.000 N 
ATOM      9  C   UNL     1      -0.737  14.912  22.383  0.00  0.00    +0.000 C 
ATOM     10  O   UNL     1      -0.280  15.163  23.485  0.00  0.00    +0.000 OA
ATOM     11  N   UNL     1      -0.367  15.633  21.253  0.00  0.00    +0.000 N 
ATOM     12  C   UNL     1      -0.721  15.444  19.852  0.00  0.00    +0.000 C 
ATOM     13  C   UNL     1       0.474  15.358  18.928  0.00  0.00    +0.000 C 
ATOM     14  O   UNL     1       1.273  16.523  19.062  0.00  0.00    +0.000 OA
ATOM     15  C   UNL     1       1.690  16.673  20.428  0.00  0.00    +0.000 C 
ATOM     16  C   UNL     1       0.505  16.796  21.394  0.00  0.00    +0.000 C 
ENDROOT
BRANCH   2  17
ATOM     17  C   UNL     1       0.077  10.478  20.487  0.00  0.00    +0.000 A 
ATOM     18  C   UNL     1       0.698  10.466  19.253  0.00  0.00    +0.000 A 
ATOM     19  C   UNL     1       1.428   9.257  18.984  0.00  0.00    +0.000 A 
ATOM     20  C   UNL     1       2.186   8.875  17.850  0.00  0.00    +0.000 A 
ATOM     21  C   UNL     1       2.849   7.645  17.819  0.00  0.00    +0.000 A 
ATOM     22  C   UNL     1       2.773   6.785  18.906  0.00  0.00    +0.000 A 
ATOM     23  C   UNL     1       2.022   7.129  20.035  0.00  0.00    +0.000 A 
ATOM     24  C   UNL     1       1.348   8.369  20.057  0.00  0.00    +0.000 A 
ATOM     25  S   UNL     1       0.361   9.003  21.318  0.00  0.00    +0.000 S 
ENDBRANCH   2  17
BRANCH   1  26
ATOM     26  C   UNL     1      -1.519  12.330  18.856  0.00  0.00    +0.000 C 
ATOM     27  O   UNL     1      -0.719  12.915  18.123  0.00  0.00    +0.000 OA
BRANCH  26  29
ATOM     28  C   UNL     1      -2.564  11.205  17.103  0.00  0.00    +0.000 C 
ATOM     29  O   UNL     1      -2.660  11.746  18.418  0.00  0.00    +0.000 OA
ENDBRANCH  26  29
ENDBRANCH   1  26
TORSDOF 3
ENDMDL
MODEL 3
REMARK VINA RESULT:      -6.1      0.920      1.005
REMARK  Name = 
REMARK  4 active torsions:
REMARK  status: ('A' for Active; 'I' for Inactive)
REMARK    1  A    between atoms: C_1  and  O_2
REMARK    2  A    between atoms: O_2  and  C_3
REMARK    3  A    between atoms: C_3  and  C_5
REMARK    4  A    between atoms: C_6  and  C_7
REMARK                            x       y       z     vdW  Elec       q    Type
REMARK                         _______ _______ _______ _____ _____    ______ ____
ROOT
ATOM      1  C   UNL     1      -4.674  14.104  22.106  0.00  0.00    +0.000 C 
ATOM      2  C   UNL     1      -3.365  14.255  21.748  0.00  0.00    +0.000 C 
ATOM      3  C   UNL     1      -2.841  15.672  21.424  0.00  0.00    +0.000 C 
ATOM      4  C   UNL     1      -3.887  16.789  21.681  0.00  0.00    +0.000 C 
ATOM      5  C   UNL     1      -4.150  16.962  23.191  0.00  0.00    +0.000 C 
ATOM      6  C   UNL     1      -5.333  16.054  23.507  0.00  0.00    +0.000 C 
ATOM      7  C   UNL     1      -5.590  15.341  22.203  0.00  0.00    +0.000 C 
ATOM      8  N   UNL     1      -5.157  16.290  21.192  0.00  0.00    +0.000 N 
ATOM      9  C   UNL     1      -5.541  16.470  19.877  0.00  0.00    +0.000 C 
ATOM     10  O   UNL     1      -5.072  17.376  19.211  0.00  0.00    +0.000 OA
ATOM     11  N   UNL     1      -6.460  15.569  19.349  0.00  0.00    +0.000 N 
ATOM     12  C   UNL     1      -7.067  14.383  19.938  0.00  0.00    +0.000 C 
ATOM     13  C   UNL     1      -6.911  13.136  19.095  0.00  0.00    +0.000 C 
ATOM     14  O   UNL     1      -7.455  13.356  17.802  0.00  0.00    +0.000 OA
ATOM     15  C   UNL     1      -6.806  14.478  17.186  0.00  0.00    +0.000 C 
ATOM     16  C   UNL     1      -6.969  15.770  17.996  0.00  0.00    +0.000 C 
ENDROOT
BRANCH   2  17
ATOM     17  C   UNL     1      -2.491  13.117  21.715  0.00  0.00    +0.000 A 
ATOM     18  C   UNL     1      -2.002  12.356  22.758  0.00  0.00    +0.000 A 
ATOM     19  C   UNL     1      -1.187  11.250  22.337  0.00  0.00    +0.000 A 
ATOM     20  C   UNL     1      -0.522  10.257  23.097  0.00  0.00    +0.000 A 
ATOM     21  C   UNL     1       0.199   9.241  22.464  0.00  0.00    +0.000 A 
ATOM     22  C   UNL     1       0.267   9.194  21.078  0.00  0.00    +0.000 A 
ATOM     23  C   UNL     1      -0.369  10.167  20.301  0.00  0.00    +0.000 A 
ATOM     24  C   UNL     1      -1.089  11.195  20.946  0.00  0.00    +0.000 A 
ATOM     25  S   UNL     1      -1.938  12.501  20.210  0.00  0.00    +0.000 S 
ENDBRANCH   2  17
BRANCH   1  26
ATOM     26  C   UNL     1      -5.342  12.783  22.344  0.00  0.00    +0.000 C 
ATOM     27  O   UNL     1      -5.491  11.899  21.499  0.00  0.00    +0.000 OA
BRANCH  26  29
ATOM     28  C   UNL     1      -5.028  12.434  24.626  0.00  0.00    +0.000 C 
ATOM     29  O   UNL     1      -5.922  12.766  23.568  0.00  0.00    +0.000 OA
ENDBRANCH  26  29
ENDBRANCH   1  26
TORSDOF 3
ENDMDL
MODEL 4
REMARK VINA RESULT:      -6.1      0.776      1.215
REMARK  Name = 
REMARK  4 active torsions:
REMARK  status: ('A' for Active; 'I' for Inactive)
REMARK    1  A    between atoms: C_1  and  O_2
REMARK    2  A    between atoms: O_2  and  C_3
REMARK    3  A    between atoms: C_3  and  C_5
REMARK    4  A    between atoms: C_6  and  C_7
REMARK                            x       y       z     vdW  Elec       q    Type
REMARK                         _______ _______ _______ _____ _____    ______ ____
ROOT
ATOM      1  C   UNL     1      -5.047  14.001  21.944  0.00  0.00    +0.000 C 
ATOM      2  C   UNL     1      -3.718  14.175  21.683  0.00  0.00    +0.000 C 
ATOM      3  C   UNL     1      -3.197  15.601  21.397  0.00  0.00    +0.000 C 
ATOM      4  C   UNL     1      -4.278  16.700  21.576  0.00  0.00    +0.000 C 
ATOM      5  C   UNL     1      -4.655  16.867  23.062  0.00  0.00    +0.000 C 
ATOM      6  C   UNL     1      -5.842  15.938  23.291  0.00  0.00    +0.000 C 
ATOM      7  C   UNL     1      -5.989  15.221  21.972  0.00  0.00    +0.000 C 
ATOM      8  N   UNL     1      -5.500  16.178  20.995  0.00  0.00    +0.000 N 
ATOM      9  C   UNL     1      -5.789  16.352  19.655  0.00  0.00    +0.000 C 
ATOM     10  O   UNL     1      -5.288  17.267  19.024  0.00  0.00    +0.000 OA
ATOM     11  N   UNL     1      -6.650  15.436  19.062  0.00  0.00    +0.000 N 
ATOM     12  C   UNL     1      -7.278  14.238  19.605  0.00  0.00    +0.000 C 
ATOM     13  C   UNL     1      -7.038  12.995  18.776  0.00  0.00    +0.000 C 
ATOM     14  O   UNL     1      -7.488  13.206  17.447  0.00  0.00    +0.000 OA
ATOM     15  C   UNL     1      -6.815  14.339  16.879  0.00  0.00    +0.000 C 
ATOM     16  C   UNL     1      -7.061  15.628  17.674  0.00  0.00    +0.000 C 
ENDROOT
BRANCH   2  17
ATOM     17  C   UNL     1      -2.823  13.053  21.715  0.00  0.00    +0.000 A 
ATOM     18  C   UNL     1      -2.142  12.445  20.680  0.00  0.00    +0.000 A 
ATOM     19  C   UNL     1      -1.286  11.370  21.102  0.00  0.00    +0.000 A 
ATOM     20  C   UNL     1      -0.437  10.522  20.349  0.00  0.00    +0.000 A 
ATOM     21  C   UNL     1       0.342   9.550  20.983  0.00  0.00    +0.000 A 
ATOM     22  C   UNL     1       0.293   9.410  22.363  0.00  0.00    +0.000 A 
ATOM     23  C   UNL     1      -0.544  10.224  23.133  0.00  0.00    +0.000 A 
ATOM     24  C   UNL     1      -1.335  11.198  22.486  0.00  0.00    +0.000 A 
ATOM     25  S   UNL     1      -2.442  12.301  23.211  0.00  0.00    +0.000 S 
ENDBRANCH   2  17
BRANCH   1  26
ATOM     26  C   UNL     1      -5.707  12.668  22.133  0.00  0.00    +0.000 C 
ATOM     27  O   UNL     1      -5.865  11.821  21.252  0.00  0.00    +0.000 OA
BRANCH  26  29
ATOM     28  C   UNL     1      -7.644  12.222  23.349  0.00  0.00    +0.000 C 
ATOM     29  O   UNL     1      -6.269  12.595  23.363  0.00  0.00    +0.000 OA
ENDBRANCH  26  29
ENDBRANCH   1  26
TORSDOF 3
ENDMDL
MODEL 5
REMARK VINA RESULT:      -6.0      1.396      1.691
REMARK  Name = 
REMARK  4 active torsions:
REMARK  status: ('A' for Active; 'I' for Inactive)
REMARK    1  A    between atoms: C_1  and  O_2
REMARK    2  A    between atoms: O_2  and  C_3
REMARK    3  A    between atoms: C_3  and  C_5
REMARK    4  A    between atoms: C_6  and  C_7
REMARK                            x       y       z     vdW  Elec       q    Type
REMARK                         _______ _______ _______ _____ _____    ______ ____
ROOT
ATOM      1  C   UNL     1      -6.086  13.250  21.720  0.00  0.00    +0.000 C 
ATOM      2  C   UNL     1      -4.952  13.853  22.184  0.00  0.00    +0.000 C 
ATOM      3  C   UNL     1      -5.075  15.211  22.910  0.00  0.00    +0.000 C 
ATOM      4  C   UNL     1      -6.543  15.662  23.129  0.00  0.00    +0.000 C 
ATOM      5  C   UNL     1      -7.248  14.763  24.165  0.00  0.00    +0.000 C 
ATOM      6  C   UNL     1      -7.916  13.654  23.360  0.00  0.00    +0.000 C 
ATOM      7  C   UNL     1      -7.456  13.919  21.947  0.00  0.00    +0.000 C 
ATOM      8  N   UNL     1      -7.258  15.357  21.904  0.00  0.00    +0.000 N 
ATOM      9  C   UNL     1      -7.316  16.261  20.862  0.00  0.00    +0.000 C 
ATOM     10  O   UNL     1      -7.159  17.453  21.063  0.00  0.00    +0.000 OA
ATOM     11  N   UNL     1      -7.538  15.755  19.586  0.00  0.00    +0.000 N 
ATOM     12  C   UNL     1      -7.663  14.379  19.123  0.00  0.00    +0.000 C 
ATOM     13  C   UNL     1      -6.731  14.034  17.981  0.00  0.00    +0.000 C 
ATOM     14  O   UNL     1      -6.948  14.921  16.896  0.00  0.00    +0.000 OA
ATOM     15  C   UNL     1      -6.751  16.276  17.328  0.00  0.00    +0.000 C 
ATOM     16  C   UNL     1      -7.701  16.674  18.464  0.00  0.00    +0.000 C 
ENDROOT
BRANCH   2  17
ATOM     17  C   UNL     1      -3.679  13.208  22.032  0.00  0.00    +0.000 A 
ATOM     18  C   UNL     1      -3.082  12.246  22.823  0.00  0.00    +0.000 A 
ATOM     19  C   UNL     1      -1.813  11.791  22.325  0.00  0.00    +0.000 A 
ATOM     20  C   UNL     1      -0.914  10.828  22.844  0.00  0.00    +0.000 A 
ATOM     21  C   UNL     1       0.266  10.516  22.163  0.00  0.00    +0.000 A 
ATOM     22  C   UNL     1       0.567  11.148  20.965  0.00  0.00    +0.000 A 
ATOM     23  C   UNL     1      -0.295  12.112  20.433  0.00  0.00    +0.000 A 
ATOM     24  C   UNL     1      -1.481  12.429  21.129  0.00  0.00    +0.000 A 
ATOM     25  S   UNL     1      -2.682  13.581  20.683  0.00  0.00    +0.000 S 
ENDBRANCH   2  17
BRANCH   1  26
ATOM     26  C   UNL     1      -6.106  11.989  20.909  0.00  0.00    +0.000 C 
ATOM     27  O   UNL     1      -5.488  11.809  19.859  0.00  0.00    +0.000 OA
BRANCH  26  29
ATOM     28  C   UNL     1      -7.469  10.154  20.456  0.00  0.00    +0.000 C 
ATOM     29  O   UNL     1      -7.041  11.137  21.394  0.00  0.00    +0.000 OA
ENDBRANCH  26  29
ENDBRANCH   1  26
TORSDOF 3
ENDMDL
MODEL 6
REMARK VINA RESULT:      -6.0      1.230      1.659
REMARK  Name = 
REMARK  4 active torsions:
REMARK  status: ('A' for Active; 'I' for Inactive)
REMARK    1  A    between atoms: C_1  and  O_2
REMARK    2  A    between atoms: O_2  and  C_3
REMARK    3  A    between atoms: C_3  and  C_5
REMARK    4  A    between atoms: C_6  and  C_7
REMARK                            x       y       z     vdW  Elec       q    Type
REMARK                         _______ _______ _______ _____ _____    ______ ____
ROOT
ATOM      1  C   UNL     1      -6.020  13.424  21.402  0.00  0.00    +0.000 C 
ATOM      2  C   UNL     1      -4.795  13.997  21.588  0.00  0.00    +0.000 C 
ATOM      3  C   UNL     1      -4.724  15.485  22.000  0.00  0.00    +0.000 C 
ATOM      4  C   UNL     1      -6.114  16.114  22.278  0.00  0.00    +0.000 C 
ATOM      5  C   UNL     1      -6.738  15.530  23.562  0.00  0.00    +0.000 C 
ATOM      6  C   UNL     1      -7.583  14.347  23.106  0.00  0.00    +0.000 C 
ATOM      7  C   UNL     1      -7.297  14.257  21.627  0.00  0.00    +0.000 C 
ATOM      8  N   UNL     1      -7.005  15.627  21.242  0.00  0.00    +0.000 N 
ATOM      9  C   UNL     1      -7.135  16.289  20.037  0.00  0.00    +0.000 C 
ATOM     10  O   UNL     1      -6.868  17.475  19.947  0.00  0.00    +0.000 OA
ATOM     11  N   UNL     1      -7.560  15.547  18.940  0.00  0.00    +0.000 N 
ATOM     12  C   UNL     1      -7.842  14.123  18.814  0.00  0.00    +0.000 C 
ATOM     13  C   UNL     1      -7.096  13.453  17.680  0.00  0.00    +0.000 C 
ATOM     14  O   UNL     1      -7.391  14.105  16.456  0.00  0.00    +0.000 OA
ATOM     15  C   UNL     1      -7.043  15.495  16.548  0.00  0.00    +0.000 C 
ATOM     16  C   UNL     1      -7.803  16.218  17.667  0.00  0.00    +0.000 C 
ENDROOT
BRANCH   2  17
ATOM     17  C   UNL     1      -3.602  13.213  21.440  0.00  0.00    +0.000 A 
ATOM     18  C   UNL     1      -2.813  13.019  20.323  0.00  0.00    +0.000 A 
ATOM     19  C   UNL     1      -1.654  12.203  20.567  0.00  0.00    +0.000 A 
ATOM     20  C   UNL     1      -0.622  11.789  19.690  0.00  0.00    +0.000 A 
ATOM     21  C   UNL     1       0.442  11.013  20.160  0.00  0.00    +0.000 A 
ATOM     22  C   UNL     1       0.496  10.642  21.496  0.00  0.00    +0.000 A 
ATOM     23  C   UNL     1      -0.515  11.025  22.383  0.00  0.00    +0.000 A 
ATOM     24  C   UNL     1      -1.590  11.802  21.902  0.00  0.00    +0.000 A 
ATOM     25  S   UNL     1      -2.947  12.380  22.792  0.00  0.00    +0.000 S 
ENDBRANCH   2  17
BRANCH   1  26
ATOM     26  C   UNL     1      -6.237  12.028  20.901  0.00  0.00    +0.000 C 
ATOM     27  O   UNL     1      -5.811  11.580  19.835  0.00  0.00    +0.000 OA
BRANCH  26  29
ATOM     28  C   UNL     1      -7.913  10.413  21.014  0.00  0.00    +0.000 C 
ATOM     29  O   UNL     1      -7.118  11.377  21.698  0.00  0.00    +0.000 OA
ENDBRANCH  26  29
ENDBRANCH   1  26
TORSDOF 3
ENDMDL
MODEL 7
REMARK VINA RESULT:      -6.0      4.633      6.201
REMARK  Name = 
REMARK  4 active torsions:
REMARK  status: ('A' for Active; 'I' for Inactive)
REMARK    1  A    between atoms: C_1  and  O_2
REMARK    2  A    between atoms: O_2  and  C_3
REMARK    3  A    between atoms: C_3  and  C_5
REMARK    4  A    between atoms: C_6  and  C_7
REMARK                            x       y       z     vdW  Elec       q    Type
REMARK                         _______ _______ _______ _____ _____    ______ ____
ROOT
ATOM      1  C   UNL     1       0.009  12.132  21.044  0.00  0.00    +0.000 C 
ATOM      2  C   UNL     1       0.218  13.467  20.844  0.00  0.00    +0.000 C 
ATOM      3  C   UNL     1      -0.925  14.455  21.167  0.00  0.00    +0.000 C 
ATOM      4  C   UNL     1      -2.160  13.778  21.817  0.00  0.00    +0.000 C 
ATOM      5  C   UNL     1      -1.838  13.296  23.246  0.00  0.00    +0.000 C 
ATOM      6  C   UNL     1      -1.370  11.853  23.098  0.00  0.00    +0.000 C 
ATOM      7  C   UNL     1      -1.341  11.644  21.604  0.00  0.00    +0.000 C 
ATOM      8  N   UNL     1      -2.375  12.533  21.103  0.00  0.00    +0.000 N 
ATOM      9  C   UNL     1      -3.158  12.483  19.967  0.00  0.00    +0.000 C 
ATOM     10  O   UNL     1      -4.013  13.328  19.763  0.00  0.00    +0.000 OA
ATOM     11  N   UNL     1      -2.917  11.449  19.068  0.00  0.00    +0.000 N 
ATOM     12  C   UNL     1      -1.902  10.404  19.078  0.00  0.00    +0.000 C 
ATOM     13  C   UNL     1      -1.096  10.326  17.800  0.00  0.00    +0.000 C 
ATOM     14  O   UNL     1      -1.963  10.135  16.693  0.00  0.00    +0.000 OA
ATOM     15  C   UNL     1      -2.918  11.204  16.633  0.00  0.00    +0.000 C 
ATOM     16  C   UNL     1      -3.778  11.296  17.899  0.00  0.00    +0.000 C 
ENDROOT
BRANCH   2  17
ATOM     17  C   UNL     1       1.493  13.936  20.381  0.00  0.00    +0.000 A 
ATOM     18  C   UNL     1       2.652  14.172  21.094  0.00  0.00    +0.000 A 
ATOM     19  C   UNL     1       3.760  14.590  20.278  0.00  0.00    +0.000 A 
ATOM     20  C   UNL     1       5.091  14.917  20.634  0.00  0.00    +0.000 A 
ATOM     21  C   UNL     1       6.023  15.271  19.654  0.00  0.00    +0.000 A 
ATOM     22  C   UNL     1       5.650  15.303  18.318  0.00  0.00    +0.000 A 
ATOM     23  C   UNL     1       4.340  14.998  17.936  0.00  0.00    +0.000 A 
ATOM     24  C   UNL     1       3.401  14.648  18.931  0.00  0.00    +0.000 A 
ATOM     25  S   UNL     1       1.740  14.247  18.711  0.00  0.00    +0.000 S 
ENDBRANCH   2  17
BRANCH   1  26
ATOM     26  C   UNL     1       0.986  11.056  20.676  0.00  0.00    +0.000 C 
ATOM     27  O   UNL     1       1.403  10.832  19.538  0.00  0.00    +0.000 OA
BRANCH  26  29
ATOM     28  C   UNL     1       1.114   8.857  21.437  0.00  0.00    +0.000 C 
ATOM     29  O   UNL     1       1.211  10.246  21.739  0.00  0.00    +0.000 OA
ENDBRANCH  26  29
ENDBRANCH   1  26
TORSDOF 3
ENDMDL
MODEL 8
REMARK VINA RESULT:      -5.8      4.658      6.330
REMARK  Name = 
REMARK  4 active torsions:
REMARK  status: ('A' for Active; 'I' for Inactive)
REMARK    1  A    between atoms: C_1  and  O_2
REMARK    2  A    between atoms: O_2  and  C_3
REMARK    3  A    between atoms: C_3  and  C_5
REMARK    4  A    between atoms: C_6  and  C_7
REMARK                            x       y       z     vdW  Elec       q    Type
REMARK                         _______ _______ _______ _____ _____    ______ ____
ROOT
ATOM      1  C   UNL     1      -0.011  12.006  20.816  0.00  0.00    +0.000 C 
ATOM      2  C   UNL     1       0.200  13.345  20.653  0.00  0.00    +0.000 C 
ATOM      3  C   UNL     1      -0.918  14.329  21.062  0.00  0.00    +0.000 C 
ATOM      4  C   UNL     1      -2.128  13.638  21.745  0.00  0.00    +0.000 C 
ATOM      5  C   UNL     1      -1.745  13.105  23.140  0.00  0.00    +0.000 C 
ATOM      6  C   UNL     1      -1.297  11.665  22.920  0.00  0.00    +0.000 C 
ATOM      7  C   UNL     1      -1.339  11.507  21.420  0.00  0.00    +0.000 C 
ATOM      8  N   UNL     1      -2.386  12.421  20.999  0.00  0.00    +0.000 N 
ATOM      9  C   UNL     1      -3.221  12.416  19.899  0.00  0.00    +0.000 C 
ATOM     10  O   UNL     1      -4.077  13.274  19.764  0.00  0.00    +0.000 OA
ATOM     11  N   UNL     1      -3.031  11.413  18.955  0.00  0.00    +0.000 N 
ATOM     12  C   UNL     1      -2.026  10.361  18.882  0.00  0.00    +0.000 C 
ATOM     13  C   UNL     1      -1.280  10.322  17.566  0.00  0.00    +0.000 C 
ATOM     14  O   UNL     1      -2.199  10.176  16.494  0.00  0.00    +0.000 OA
ATOM     15  C   UNL     1      -3.146  11.253  16.515  0.00  0.00    +0.000 C 
ATOM     16  C   UNL     1      -3.946  11.307  17.822  0.00  0.00    +0.000 C 
ENDROOT
BRANCH   2  17
ATOM     17  C   UNL     1       1.457  13.821  20.148  0.00  0.00    +0.000 A 
ATOM     18  C   UNL     1       1.795  14.215  18.868  0.00  0.00    +0.000 A 
ATOM     19  C   UNL     1       3.147  14.688  18.746  0.00  0.00    +0.000 A 
ATOM     20  C   UNL     1       3.851  15.173  17.618  0.00  0.00    +0.000 A 
ATOM     21  C   UNL     1       5.171  15.619  17.740  0.00  0.00    +0.000 A 
ATOM     22  C   UNL     1       5.803  15.592  18.975  0.00  0.00    +0.000 A 
ATOM     23  C   UNL     1       5.138  15.107  20.105  0.00  0.00    +0.000 A 
ATOM     24  C   UNL     1       3.808  14.651  19.974  0.00  0.00    +0.000 A 
ATOM     25  S   UNL     1       2.795  14.004  21.208  0.00  0.00    +0.000 S 
ENDBRANCH   2  17
BRANCH   1  26
ATOM     26  C   UNL     1       0.939  10.936  20.366  0.00  0.00    +0.000 C 
ATOM     27  O   UNL     1       1.389  10.818  19.225  0.00  0.00    +0.000 OA
BRANCH  26  29
ATOM     28  C   UNL     1       1.092   8.666  20.868  0.00  0.00    +0.000 C 
ATOM     29  O   UNL     1       1.094  10.009  21.342  0.00  0.00    +0.000 OA
ENDBRANCH  26  29
ENDBRANCH   1  26
TORSDOF 3
ENDMDL
MODEL 9
REMARK VINA RESULT:      -5.8     12.020     14.114
REMARK  Name = 
REMARK  4 active torsions:
REMARK  status: ('A' for Active; 'I' for Inactive)
REMARK    1  A    between atoms: C_1  and  O_2
REMARK    2  A    between atoms: O_2  and  C_3
REMARK    3  A    between atoms: C_3  and  C_5
REMARK    4  A    between atoms: C_6  and  C_7
REMARK                            x       y       z     vdW  Elec       q    Type
REMARK                         _______ _______ _______ _____ _____    ______ ____
ROOT
ATOM      1  C   UNL     1       8.315  14.119  19.807  0.00  0.00    +0.000 C 
ATOM      2  C   UNL     1       7.359  14.566  20.674  0.00  0.00    +0.000 C 
ATOM      3  C   UNL     1       6.297  15.562  20.160  0.00  0.00    +0.000 C 
ATOM      4  C   UNL     1       6.393  15.834  18.635  0.00  0.00    +0.000 C 
ATOM      5  C   UNL     1       5.977  14.588  17.825  0.00  0.00    +0.000 C 
ATOM      6  C   UNL     1       7.266  13.816  17.570  0.00  0.00    +0.000 C 
ATOM      7  C   UNL     1       8.303  14.594  18.341  0.00  0.00    +0.000 C 
ATOM      8  N   UNL     1       7.804  15.958  18.323  0.00  0.00    +0.000 N 
ATOM      9  C   UNL     1       8.453  17.174  18.408  0.00  0.00    +0.000 C 
ATOM     10  O   UNL     1       7.830  18.219  18.324  0.00  0.00    +0.000 OA
ATOM     11  N   UNL     1       9.828  17.154  18.610  0.00  0.00    +0.000 N 
ATOM     12  C   UNL     1      10.737  16.035  18.821  0.00  0.00    +0.000 C 
ATOM     13  C   UNL     1      11.592  16.170  20.063  0.00  0.00    +0.000 C 
ATOM     14  O   UNL     1      12.333  17.379  20.009  0.00  0.00    +0.000 OA
ATOM     15  C   UNL     1      11.438  18.493  19.877  0.00  0.00    +0.000 C 
ATOM     16  C   UNL     1      10.575  18.408  18.612  0.00  0.00    +0.000 C 
ENDROOT
BRANCH   2  17
ATOM     17  C   UNL     1       7.327  14.081  22.025  0.00  0.00    +0.000 A 
ATOM     18  C   UNL     1       6.799  12.906  22.522  0.00  0.00    +0.000 A 
ATOM     19  C   UNL     1       7.001  12.732  23.935  0.00  0.00    +0.000 A 
ATOM     20  C   UNL     1       6.617  11.674  24.794  0.00  0.00    +0.000 A 
ATOM     21  C   UNL     1       6.953  11.701  26.150  0.00  0.00    +0.000 A 
ATOM     22  C   UNL     1       7.674  12.769  26.668  0.00  0.00    +0.000 A 
ATOM     23  C   UNL     1       8.057  13.834  25.847  0.00  0.00    +0.000 A 
ATOM     24  C   UNL     1       7.707  13.805  24.480  0.00  0.00    +0.000 A 
ATOM     25  S   UNL     1       8.053  14.995  23.284  0.00  0.00    +0.000 S 
ENDBRANCH   2  17
BRANCH   1  26
ATOM     26  C   UNL     1       9.465  13.237  20.193  0.00  0.00    +0.000 C 
ATOM     27  O   UNL     1      10.343  13.528  21.007  0.00  0.00    +0.000 OA
BRANCH  26  29
ATOM     28  C   UNL     1      10.807  11.578  19.258  0.00  0.00    +0.000 C 
ATOM     29  O   UNL     1       9.508  12.148  19.389  0.00  0.00    +0.000 OA
ENDBRANCH  26  29
ENDBRANCH   1  26
TORSDOF 3
ENDMDL
