MODEL 1
REMARK VINA RESULT:      -8.6      0.000      0.000
REMARK  Name = 
REMARK  4 active torsions:
REMARK  status: ('A' for Active; 'I' for Inactive)
REMARK    1  A    between atoms: C_5  and  C_6
REMARK    2  A    between atoms: C_6  and  N_7
REMARK    3  A    between atoms: C_8  and  C_9
REMARK    4  A    between atoms: C_9  and  N_10
REMARK                            x       y       z     vdW  Elec       q    Type
REMARK                         _______ _______ _______ _____ _____    ______ ____
ROOT
ATOM      1  N   UNL     1      -1.401  11.912  18.828  0.00  0.00    +0.000 N 
ATOM      2  C   UNL     1      -0.413  10.942  18.714  0.00  0.00    +0.000 A 
ATOM      3  N   UNL     1      -0.784  10.010  17.857  0.00  0.00    +0.000 NA
ATOM      4  C   UNL     1      -2.057  10.322  17.472  0.00  0.00    +0.000 A 
ATOM      5  C   UNL     1      -2.925   9.613  16.630  0.00  0.00    +0.000 A 
ATOM      6  C   UNL     1      -4.212  10.115  16.410  0.00  0.00    +0.000 A 
ATOM      7  C   UNL     1      -4.623  11.306  17.010  0.00  0.00    +0.000 A 
ATOM      8  C   UNL     1      -3.766  12.026  17.851  0.00  0.00    +0.000 A 
ATOM      9  C   UNL     1      -2.480  11.506  18.064  0.00  0.00    +0.000 A 
ENDROOT
BRANCH   1  10
ATOM     10  C   UNL     1      -1.420  13.058  19.732  0.00  0.00    +0.000 C 
BRANCH  10  15
ATOM     11 CL   UNL     1      -4.486  12.280  24.886  0.00  0.00    +0.000 Cl
ATOM     12  C   UNL     1      -3.624  12.473  23.410  0.00  0.00    +0.000 A 
ATOM     13  C   UNL     1      -2.377  11.876  23.251  0.00  0.00    +0.000 A 
ATOM     14  C   UNL     1      -1.672  12.049  22.054  0.00  0.00    +0.000 A 
ATOM     15  C   UNL     1      -2.203  12.816  21.002  0.00  0.00    +0.000 A 
ATOM     16  C   UNL     1      -3.464  13.407  21.184  0.00  0.00    +0.000 A 
ATOM     17  C   UNL     1      -4.169  13.235  22.380  0.00  0.00    +0.000 A 
ENDBRANCH  10  15
ENDBRANCH   1  10
BRANCH   2  18
ATOM     18  C   UNL     1       0.874  10.944  19.482  0.00  0.00    +0.000 C 
BRANCH  18  19
ATOM     19  N   UNL     1       1.298   9.616  19.918  0.00  0.00    +0.000 N 
ATOM     20  C   UNL     1       0.920   8.982  21.072  0.00  0.00    +0.000 A 
ATOM     21  N   UNL     1       1.265   7.711  21.072  0.00  0.00    +0.000 NA
ATOM     22  C   UNL     1       1.935   7.509  19.876  0.00  0.00    +0.000 A 
ATOM     23  C   UNL     1       2.524   6.359  19.274  0.00  0.00    +0.000 A 
ATOM     24  N   UNL     1       2.475   5.040  19.755  0.00  0.00    +0.000 N 
ATOM     25  C   UNL     1       3.617   4.200  19.344  0.00  0.00    +0.000 C 
ATOM     26  C   UNL     1       3.350   2.729  19.687  0.00  0.00    +0.000 C 
ATOM     27  O   UNL     1       3.035   2.554  21.075  0.00  0.00    +0.000 OA
ATOM     28  C   UNL     1       1.858   3.310  21.403  0.00  0.00    +0.000 C 
ATOM     29  C   UNL     1       2.048   4.818  21.146  0.00  0.00    +0.000 C 
ATOM     30  N   UNL     1       3.130   6.567  18.061  0.00  0.00    +0.000 NA
ATOM     31  C   UNL     1       3.117   7.791  17.497  0.00  0.00    +0.000 A 
ATOM     32  N   UNL     1       2.548   8.915  17.960  0.00  0.00    +0.000 NA
ATOM     33  C   UNL     1       1.987   8.703  19.162  0.00  0.00    +0.000 A 
ENDBRANCH  18  19
ENDBRANCH   2  18
TORSDOF 4
ENDMDL
MODEL 2
REMARK VINA RESULT:      -8.4      4.303      9.493
REMARK  Name = 
REMARK  4 active torsions:
REMARK  status: ('A' for Active; 'I' for Inactive)
REMARK    1  A    between atoms: C_5  and  C_6
REMARK    2  A    between atoms: C_6  and  N_7
REMARK    3  A    between atoms: C_8  and  C_9
REMARK    4  A    between atoms: C_9  and  N_10
REMARK                            x       y       z     vdW  Elec       q    Type
REMARK                         _______ _______ _______ _____ _____    ______ ____
ROOT
ATOM      1  N   UNL     1       3.634   5.450  19.230  0.00  0.00    +0.000 N 
ATOM      2  C   UNL     1       2.525   6.287  19.222  0.00  0.00    +0.000 A 
ATOM      3  N   UNL     1       1.416   5.578  19.321  0.00  0.00    +0.000 NA
ATOM      4  C   UNL     1       1.793   4.266  19.306  0.00  0.00    +0.000 A 
ATOM      5  C   UNL     1       0.991   3.116  19.316  0.00  0.00    +0.000 A 
ATOM      6  C   UNL     1       1.608   1.862  19.256  0.00  0.00    +0.000 A 
ATOM      7  C   UNL     1       2.998   1.756  19.196  0.00  0.00    +0.000 A 
ATOM      8  C   UNL     1       3.811   2.895  19.189  0.00  0.00    +0.000 A 
ATOM      9  C   UNL     1       3.176   4.145  19.245  0.00  0.00    +0.000 A 
ENDROOT
BRANCH   1  10
ATOM     10  C   UNL     1       5.033   5.828  19.051  0.00  0.00    +0.000 C 
BRANCH  10  15
ATOM     11 CL   UNL     1       7.000   4.576  13.472  0.00  0.00    +0.000 Cl
ATOM     12  C   UNL     1       6.463   4.954  15.062  0.00  0.00    +0.000 A 
ATOM     13  C   UNL     1       7.102   4.392  16.163  0.00  0.00    +0.000 A 
ATOM     14  C   UNL     1       6.652   4.688  17.454  0.00  0.00    +0.000 A 
ATOM     15  C   UNL     1       5.563   5.552  17.663  0.00  0.00    +0.000 A 
ATOM     16  C   UNL     1       4.935   6.110  16.538  0.00  0.00    +0.000 A 
ATOM     17  C   UNL     1       5.384   5.813  15.246  0.00  0.00    +0.000 A 
ENDBRANCH  10  15
ENDBRANCH   1  10
BRANCH   2  18
ATOM     18  C   UNL     1       2.586   7.779  19.087  0.00  0.00    +0.000 C 
BRANCH  18  19
ATOM     19  N   UNL     1       1.566   8.479  19.863  0.00  0.00    +0.000 N 
ATOM     20  C   UNL     1       1.440   8.477  21.227  0.00  0.00    +0.000 A 
ATOM     21  N   UNL     1       0.585   9.387  21.646  0.00  0.00    +0.000 NA
ATOM     22  C   UNL     1       0.097   9.991  20.498  0.00  0.00    +0.000 A 
ATOM     23  C   UNL     1      -0.825  11.056  20.277  0.00  0.00    +0.000 A 
ATOM     24  N   UNL     1      -1.428  11.861  21.257  0.00  0.00    +0.000 N 
ATOM     25  C   UNL     1      -2.738  12.417  20.864  0.00  0.00    +0.000 C 
ATOM     26  C   UNL     1      -3.193  13.481  21.872  0.00  0.00    +0.000 C 
ATOM     27  O   UNL     1      -3.213  12.970  23.212  0.00  0.00    +0.000 OA
ATOM     28  C   UNL     1      -1.895  12.536  23.584  0.00  0.00    +0.000 C 
ATOM     29  C   UNL     1      -1.371  11.419  22.660  0.00  0.00    +0.000 C 
ATOM     30  N   UNL     1      -1.077  11.362  18.964  0.00  0.00    +0.000 NA
ATOM     31  C   UNL     1      -0.445  10.694  17.979  0.00  0.00    +0.000 A 
ATOM     32  N   UNL     1       0.470   9.718  18.088  0.00  0.00    +0.000 NA
ATOM     33  C   UNL     1       0.682   9.408  19.377  0.00  0.00    +0.000 A 
ENDBRANCH  18  19
ENDBRANCH   2  18
TORSDOF 4
ENDMDL
MODEL 3
REMARK VINA RESULT:      -8.2      2.485      3.178
REMARK  Name = 
REMARK  4 active torsions:
REMARK  status: ('A' for Active; 'I' for Inactive)
REMARK    1  A    between atoms: C_5  and  C_6
REMARK    2  A    between atoms: C_6  and  N_7
REMARK    3  A    between atoms: C_8  and  C_9
REMARK    4  A    between atoms: C_9  and  N_10
REMARK                            x       y       z     vdW  Elec       q    Type
REMARK                         _______ _______ _______ _____ _____    ______ ____
ROOT
ATOM      1  N   UNL     1      -0.890  11.865  19.291  0.00  0.00    +0.000 N 
ATOM      2  C   UNL     1      -0.225  10.886  18.562  0.00  0.00    +0.000 A 
ATOM      3  N   UNL     1      -1.082  10.201  17.829  0.00  0.00    +0.000 NA
ATOM      4  C   UNL     1      -2.325  10.674  18.142  0.00  0.00    +0.000 A 
ATOM      5  C   UNL     1      -3.578  10.234  17.692  0.00  0.00    +0.000 A 
ATOM      6  C   UNL     1      -4.729  10.854  18.188  0.00  0.00    +0.000 A 
ATOM      7  C   UNL     1      -4.634  11.899  19.107  0.00  0.00    +0.000 A 
ATOM      8  C   UNL     1      -3.390  12.351  19.563  0.00  0.00    +0.000 A 
ATOM      9  C   UNL     1      -2.245  11.715  19.060  0.00  0.00    +0.000 A 
ENDROOT
BRANCH   1  10
ATOM     10  C   UNL     1      -0.322  12.772  20.284  0.00  0.00    +0.000 C 
BRANCH  10  15
ATOM     11 CL   UNL     1       1.407  18.004  17.794  0.00  0.00    +0.000 Cl
ATOM     12  C   UNL     1       0.924  16.527  18.531  0.00  0.00    +0.000 A 
ATOM     13  C   UNL     1       1.871  15.544  18.802  0.00  0.00    +0.000 A 
ATOM     14  C   UNL     1       1.472  14.337  19.387  0.00  0.00    +0.000 A 
ATOM     15  C   UNL     1       0.125  14.097  19.710  0.00  0.00    +0.000 A 
ATOM     16  C   UNL     1      -0.813  15.103  19.430  0.00  0.00    +0.000 A 
ATOM     17  C   UNL     1      -0.415  16.310  18.844  0.00  0.00    +0.000 A 
ENDBRANCH  10  15
ENDBRANCH   1  10
BRANCH   2  18
ATOM     18  C   UNL     1       1.250  10.630  18.630  0.00  0.00    +0.000 C 
BRANCH  18  19
ATOM     19  N   UNL     1       1.595   9.359  19.264  0.00  0.00    +0.000 N 
ATOM     20  C   UNL     1       1.086   8.875  20.440  0.00  0.00    +0.000 A 
ATOM     21  N   UNL     1       1.399   7.609  20.628  0.00  0.00    +0.000 NA
ATOM     22  C   UNL     1       2.183   7.256  19.541  0.00  0.00    +0.000 A 
ATOM     23  C   UNL     1       2.802   6.035  19.146  0.00  0.00    +0.000 A 
ATOM     24  N   UNL     1       2.672   4.785  19.773  0.00  0.00    +0.000 N 
ATOM     25  C   UNL     1       3.829   3.888  19.587  0.00  0.00    +0.000 C 
ATOM     26  C   UNL     1       3.494   2.472  20.074  0.00  0.00    +0.000 C 
ATOM     27  O   UNL     1       3.034   2.472  21.433  0.00  0.00    +0.000 OA
ATOM     28  C   UNL     1       1.849   3.275  21.543  0.00  0.00    +0.000 C 
ATOM     29  C   UNL     1       2.101   4.738  21.129  0.00  0.00    +0.000 C 
ATOM     30  N   UNL     1       3.533   6.087  17.987  0.00  0.00    +0.000 NA
ATOM     31  C   UNL     1       3.607   7.233  17.282  0.00  0.00    +0.000 A 
ATOM     32  N   UNL     1       3.021   8.411  17.545  0.00  0.00    +0.000 NA
ATOM     33  C   UNL     1       2.336   8.354  18.698  0.00  0.00    +0.000 A 
ENDBRANCH  18  19
ENDBRANCH   2  18
TORSDOF 4
ENDMDL
MODEL 4
REMARK VINA RESULT:      -8.2      2.840      4.854
REMARK  Name = 
REMARK  4 active torsions:
REMARK  status: ('A' for Active; 'I' for Inactive)
REMARK    1  A    between atoms: C_5  and  C_6
REMARK    2  A    between atoms: C_6  and  N_7
REMARK    3  A    between atoms: C_8  and  C_9
REMARK    4  A    between atoms: C_9  and  N_10
REMARK                            x       y       z     vdW  Elec       q    Type
REMARK                         _______ _______ _______ _____ _____    ______ ____
ROOT
ATOM      1  N   UNL     1      -0.457  11.962  19.941  0.00  0.00    +0.000 N 
ATOM      2  C   UNL     1       0.710  11.241  20.164  0.00  0.00    +0.000 A 
ATOM      3  N   UNL     1       1.765  12.016  19.997  0.00  0.00    +0.000 NA
ATOM      4  C   UNL     1       1.294  13.227  19.578  0.00  0.00    +0.000 A 
ATOM      5  C   UNL     1       2.010  14.371  19.196  0.00  0.00    +0.000 A 
ATOM      6  C   UNL     1       1.303  15.496  18.760  0.00  0.00    +0.000 A 
ATOM      7  C   UNL     1      -0.091  15.486  18.715  0.00  0.00    +0.000 A 
ATOM      8  C   UNL     1      -0.820  14.353  19.096  0.00  0.00    +0.000 A 
ATOM      9  C   UNL     1      -0.095  13.231  19.526  0.00  0.00    +0.000 A 
ENDROOT
BRANCH   1  10
ATOM     10  C   UNL     1      -1.826  11.456  19.937  0.00  0.00    +0.000 C 
BRANCH  10  15
ATOM     11 CL   UNL     1      -3.709  10.110  14.351  0.00  0.00    +0.000 Cl
ATOM     12  C   UNL     1      -3.193  10.472  15.952  0.00  0.00    +0.000 A 
ATOM     13  C   UNL     1      -3.927  11.359  16.734  0.00  0.00    +0.000 A 
ATOM     14  C   UNL     1      -3.496  11.663  18.030  0.00  0.00    +0.000 A 
ATOM     15  C   UNL     1      -2.331  11.084  18.562  0.00  0.00    +0.000 A 
ATOM     16  C   UNL     1      -1.608  10.190  17.757  0.00  0.00    +0.000 A 
ATOM     17  C   UNL     1      -2.038   9.886  16.460  0.00  0.00    +0.000 A 
ENDBRANCH  10  15
ENDBRANCH   1  10
BRANCH   2  18
ATOM     18  C   UNL     1       0.757   9.784  20.512  0.00  0.00    +0.000 C 
BRANCH  18  19
ATOM     19  N   UNL     1       1.441   8.965  19.515  0.00  0.00    +0.000 N 
ATOM     20  C   UNL     1       1.969   9.404  18.329  0.00  0.00    +0.000 A 
ATOM     21  N   UNL     1       2.731   8.492  17.761  0.00  0.00    +0.000 NA
ATOM     22  C   UNL     1       2.669   7.386  18.595  0.00  0.00    +0.000 A 
ATOM     23  C   UNL     1       3.286   6.102  18.554  0.00  0.00    +0.000 A 
ATOM     24  N   UNL     1       4.248   5.661  17.631  0.00  0.00    +0.000 N 
ATOM     25  C   UNL     1       4.253   4.202  17.407  0.00  0.00    +0.000 C 
ATOM     26  C   UNL     1       5.490   3.788  16.600  0.00  0.00    +0.000 C 
ATOM     27  O   UNL     1       5.589   4.514  15.367  0.00  0.00    +0.000 OA
ATOM     28  C   UNL     1       5.684   5.921  15.641  0.00  0.00    +0.000 C 
ATOM     29  C   UNL     1       4.452   6.447  16.403  0.00  0.00    +0.000 C 
ATOM     30  N   UNL     1       2.952   5.249  19.575  0.00  0.00    +0.000 NA
ATOM     31  C   UNL     1       2.115   5.653  20.551  0.00  0.00    +0.000 A 
ATOM     32  N   UNL     1       1.528   6.851  20.701  0.00  0.00    +0.000 NA
ATOM     33  C   UNL     1       1.839   7.664  19.678  0.00  0.00    +0.000 A 
ENDBRANCH  18  19
ENDBRANCH   2  18
TORSDOF 4
ENDMDL
MODEL 5
REMARK VINA RESULT:      -8.0      1.977      2.554
REMARK  Name = 
REMARK  4 active torsions:
REMARK  status: ('A' for Active; 'I' for Inactive)
REMARK    1  A    between atoms: C_5  and  C_6
REMARK    2  A    between atoms: C_6  and  N_7
REMARK    3  A    between atoms: C_8  and  C_9
REMARK    4  A    between atoms: C_9  and  N_10
REMARK                            x       y       z     vdW  Elec       q    Type
REMARK                         _______ _______ _______ _____ _____    ______ ____
ROOT
ATOM      1  N   UNL     1      -1.473  11.656  19.215  0.00  0.00    +0.000 N 
ATOM      2  C   UNL     1      -0.373  10.867  18.903  0.00  0.00    +0.000 A 
ATOM      3  N   UNL     1      -0.620  10.144  17.827  0.00  0.00    +0.000 NA
ATOM      4  C   UNL     1      -1.917  10.393  17.481  0.00  0.00    +0.000 A 
ATOM      5  C   UNL     1      -2.684   9.823  16.455  0.00  0.00    +0.000 A 
ATOM      6  C   UNL     1      -4.021  10.212  16.315  0.00  0.00    +0.000 A 
ATOM      7  C   UNL     1      -4.579  11.158  17.176  0.00  0.00    +0.000 A 
ATOM      8  C   UNL     1      -3.825  11.738  18.203  0.00  0.00    +0.000 A 
ATOM      9  C   UNL     1      -2.488  11.333  18.332  0.00  0.00    +0.000 A 
ENDROOT
BRANCH   1  10
ATOM     10  C   UNL     1      -1.641  12.527  20.374  0.00  0.00    +0.000 C 
BRANCH  10  15
ATOM     11 CL   UNL     1      -0.626  18.386  19.277  0.00  0.00    +0.000 Cl
ATOM     12  C   UNL     1      -0.939  16.721  19.570  0.00  0.00    +0.000 A 
ATOM     13  C   UNL     1      -1.897  16.349  20.508  0.00  0.00    +0.000 A 
ATOM     14  C   UNL     1      -2.138  14.993  20.756  0.00  0.00    +0.000 A 
ATOM     15  C   UNL     1      -1.430  13.992  20.067  0.00  0.00    +0.000 A 
ATOM     16  C   UNL     1      -0.470  14.390  19.123  0.00  0.00    +0.000 A 
ATOM     17  C   UNL     1      -0.228  15.746  18.876  0.00  0.00    +0.000 A 
ENDBRANCH  10  15
ENDBRANCH   1  10
BRANCH   2  18
ATOM     18  C   UNL     1       0.897  10.824  19.699  0.00  0.00    +0.000 C 
BRANCH  18  19
ATOM     19  N   UNL     1       1.300   9.474  20.084  0.00  0.00    +0.000 N 
ATOM     20  C   UNL     1       0.909   8.801  21.212  0.00  0.00    +0.000 A 
ATOM     21  N   UNL     1       1.237   7.526  21.164  0.00  0.00    +0.000 NA
ATOM     22  C   UNL     1       1.910   7.362  19.964  0.00  0.00    +0.000 A 
ATOM     23  C   UNL     1       2.487   6.228  19.320  0.00  0.00    +0.000 A 
ATOM     24  N   UNL     1       2.417   4.893  19.749  0.00  0.00    +0.000 N 
ATOM     25  C   UNL     1       3.550   4.054  19.311  0.00  0.00    +0.000 C 
ATOM     26  C   UNL     1       3.262   2.574  19.595  0.00  0.00    +0.000 C 
ATOM     27  O   UNL     1       2.938   2.350  20.974  0.00  0.00    +0.000 OA
ATOM     28  C   UNL     1       1.770   3.109  21.326  0.00  0.00    +0.000 C 
ATOM     29  C   UNL     1       1.981   4.623  21.129  0.00  0.00    +0.000 C 
ATOM     30  N   UNL     1       3.101   6.475  18.119  0.00  0.00    +0.000 NA
ATOM     31  C   UNL     1       3.106   7.720  17.602  0.00  0.00    +0.000 A 
ATOM     32  N   UNL     1       2.551   8.833  18.106  0.00  0.00    +0.000 NA
ATOM     33  C   UNL     1       1.981   8.582  19.296  0.00  0.00    +0.000 A 
ENDBRANCH  18  19
ENDBRANCH   2  18
TORSDOF 4
ENDMDL
MODEL 6
REMARK VINA RESULT:      -8.0      2.733      3.710
REMARK  Name = 
REMARK  4 active torsions:
REMARK  status: ('A' for Active; 'I' for Inactive)
REMARK    1  A    between atoms: C_5  and  C_6
REMARK    2  A    between atoms: C_6  and  N_7
REMARK    3  A    between atoms: C_8  and  C_9
REMARK    4  A    between atoms: C_9  and  N_10
REMARK                            x       y       z     vdW  Elec       q    Type
REMARK                         _______ _______ _______ _____ _____    ______ ____
ROOT
ATOM      1  N   UNL     1      -0.133  11.360  18.924  0.00  0.00    +0.000 N 
ATOM      2  C   UNL     1       0.324  10.350  18.086  0.00  0.00    +0.000 A 
ATOM      3  N   UNL     1      -0.677   9.846  17.389  0.00  0.00    +0.000 NA
ATOM      4  C   UNL     1      -1.810  10.467  17.833  0.00  0.00    +0.000 A 
ATOM      5  C   UNL     1      -3.144  10.242  17.466  0.00  0.00    +0.000 A 
ATOM      6  C   UNL     1      -4.151  10.983  18.092  0.00  0.00    +0.000 A 
ATOM      7  C   UNL     1      -3.834  11.938  19.060  0.00  0.00    +0.000 A 
ATOM      8  C   UNL     1      -2.507  12.176  19.435  0.00  0.00    +0.000 A 
ATOM      9  C   UNL     1      -1.509  11.420  18.800  0.00  0.00    +0.000 A 
ENDROOT
BRANCH   1  10
ATOM     10  C   UNL     1       0.636  12.105  19.916  0.00  0.00    +0.000 C 
BRANCH  10  15
ATOM     11 CL   UNL     1       3.301  17.153  17.920  0.00  0.00    +0.000 Cl
ATOM     12  C   UNL     1       2.531  15.712  18.459  0.00  0.00    +0.000 A 
ATOM     13  C   UNL     1       1.190  15.739  18.832  0.00  0.00    +0.000 A 
ATOM     14  C   UNL     1       0.571  14.569  19.286  0.00  0.00    +0.000 A 
ATOM     15  C   UNL     1       1.281  13.358  19.369  0.00  0.00    +0.000 A 
ATOM     16  C   UNL     1       2.631  13.353  18.985  0.00  0.00    +0.000 A 
ATOM     17  C   UNL     1       3.251  14.523  18.532  0.00  0.00    +0.000 A 
ENDBRANCH  10  15
ENDBRANCH   1  10
BRANCH   2  18
ATOM     18  C   UNL     1       1.746   9.882  18.014  0.00  0.00    +0.000 C 
BRANCH  18  19
ATOM     19  N   UNL     1       2.013   8.693  18.820  0.00  0.00    +0.000 N 
ATOM     20  C   UNL     1       1.394   8.352  19.993  0.00  0.00    +0.000 A 
ATOM     21  N   UNL     1       1.668   7.116  20.355  0.00  0.00    +0.000 NA
ATOM     22  C   UNL     1       2.540   6.633  19.392  0.00  0.00    +0.000 A 
ATOM     23  C   UNL     1       3.173   5.371  19.199  0.00  0.00    +0.000 A 
ATOM     24  N   UNL     1       2.968   4.204  19.953  0.00  0.00    +0.000 N 
ATOM     25  C   UNL     1       4.123   3.286  19.978  0.00  0.00    +0.000 C 
ATOM     26  C   UNL     1       3.723   1.938  20.594  0.00  0.00    +0.000 C 
ATOM     27  O   UNL     1       3.145   2.100  21.897  0.00  0.00    +0.000 OA
ATOM     28  C   UNL     1       1.967   2.917  21.805  0.00  0.00    +0.000 C 
ATOM     29  C   UNL     1       2.278   4.320  21.248  0.00  0.00    +0.000 C 
ATOM     30  N   UNL     1       4.006   5.283  18.113  0.00  0.00    +0.000 NA
ATOM     31  C   UNL     1       4.160   6.338  17.289  0.00  0.00    +0.000 A 
ATOM     32  N   UNL     1       3.572   7.543  17.359  0.00  0.00    +0.000 NA
ATOM     33  C   UNL     1       2.786   7.624  18.444  0.00  0.00    +0.000 A 
ENDBRANCH  18  19
ENDBRANCH   2  18
TORSDOF 4
ENDMDL
MODEL 7
REMARK VINA RESULT:      -7.9      4.341      9.567
REMARK  Name = 
REMARK  4 active torsions:
REMARK  status: ('A' for Active; 'I' for Inactive)
REMARK    1  A    between atoms: C_5  and  C_6
REMARK    2  A    between atoms: C_6  and  N_7
REMARK    3  A    between atoms: C_8  and  C_9
REMARK    4  A    between atoms: C_9  and  N_10
REMARK                            x       y       z     vdW  Elec       q    Type
REMARK                         _______ _______ _______ _____ _____    ______ ____
ROOT
ATOM      1  N   UNL     1       3.919   5.348  19.324  0.00  0.00    +0.000 N 
ATOM      2  C   UNL     1       2.893   6.265  19.517  0.00  0.00    +0.000 A 
ATOM      3  N   UNL     1       1.733   5.643  19.600  0.00  0.00    +0.000 NA
ATOM      4  C   UNL     1       1.986   4.320  19.374  0.00  0.00    +0.000 A 
ATOM      5  C   UNL     1       1.085   3.250  19.284  0.00  0.00    +0.000 A 
ATOM      6  C   UNL     1       1.579   1.972  19.003  0.00  0.00    +0.000 A 
ATOM      7  C   UNL     1       2.947   1.763  18.824  0.00  0.00    +0.000 A 
ATOM      8  C   UNL     1       3.859   2.821  18.914  0.00  0.00    +0.000 A 
ATOM      9  C   UNL     1       3.346   4.097  19.191  0.00  0.00    +0.000 A 
ENDROOT
BRANCH   1  10
ATOM     10  C   UNL     1       5.333   5.633  19.095  0.00  0.00    +0.000 C 
BRANCH  10  15
ATOM     11 CL   UNL     1       6.908   4.705  13.331  0.00  0.00    +0.000 Cl
ATOM     12  C   UNL     1       6.483   4.991  14.973  0.00  0.00    +0.000 A 
ATOM     13  C   UNL     1       7.189   4.359  15.992  0.00  0.00    +0.000 A 
ATOM     14  C   UNL     1       6.830   4.581  17.327  0.00  0.00    +0.000 A 
ATOM     15  C   UNL     1       5.766   5.438  17.659  0.00  0.00    +0.000 A 
ATOM     16  C   UNL     1       5.069   6.066  16.615  0.00  0.00    +0.000 A 
ATOM     17  C   UNL     1       5.427   5.844  15.280  0.00  0.00    +0.000 A 
ENDBRANCH  10  15
ENDBRANCH   1  10
BRANCH   2  18
ATOM     18  C   UNL     1       3.082   7.751  19.587  0.00  0.00    +0.000 C 
BRANCH  18  19
ATOM     19  N   UNL     1       2.002   8.508  18.958  0.00  0.00    +0.000 N 
ATOM     20  C   UNL     1       1.658   8.483  17.633  0.00  0.00    +0.000 A 
ATOM     21  N   UNL     1       0.502   9.074  17.412  0.00  0.00    +0.000 NA
ATOM     22  C   UNL     1       0.085   9.544  18.647  0.00  0.00    +0.000 A 
ATOM     23  C   UNL     1      -1.083  10.237  19.079  0.00  0.00    +0.000 A 
ATOM     24  N   UNL     1      -2.213  10.545  18.303  0.00  0.00    +0.000 N 
ATOM     25  C   UNL     1      -2.951  11.741  18.753  0.00  0.00    +0.000 C 
ATOM     26  C   UNL     1      -4.296  11.847  18.022  0.00  0.00    +0.000 C 
ATOM     27  O   UNL     1      -4.130  11.830  16.597  0.00  0.00    +0.000 OA
ATOM     28  C   UNL     1      -3.500  10.603  16.198  0.00  0.00    +0.000 C 
ATOM     29  C   UNL     1      -2.108  10.432  16.839  0.00  0.00    +0.000 C 
ATOM     30  N   UNL     1      -1.125  10.559  20.412  0.00  0.00    +0.000 NA
ATOM     31  C   UNL     1      -0.119  10.194  21.230  0.00  0.00    +0.000 A 
ATOM     32  N   UNL     1       0.990   9.501  20.928  0.00  0.00    +0.000 NA
ATOM     33  C   UNL     1       1.033   9.221  19.615  0.00  0.00    +0.000 A 
ENDBRANCH  18  19
ENDBRANCH   2  18
TORSDOF 4
ENDMDL
MODEL 8
REMARK VINA RESULT:      -7.9      4.259      9.410
REMARK  Name = 
REMARK  4 active torsions:
REMARK  status: ('A' for Active; 'I' for Inactive)
REMARK    1  A    between atoms: C_5  and  C_6
REMARK    2  A    between atoms: C_6  and  N_7
REMARK    3  A    between atoms: C_8  and  C_9
REMARK    4  A    between atoms: C_9  and  N_10
REMARK                            x       y       z     vdW  Elec       q    Type
REMARK                         _______ _______ _______ _____ _____    ______ ____
ROOT
ATOM      1  N   UNL     1       3.554   5.700  19.288  0.00  0.00    +0.000 N 
ATOM      2  C   UNL     1       2.459   6.494  18.970  0.00  0.00    +0.000 A 
ATOM      3  N   UNL     1       1.353   5.964  19.456  0.00  0.00    +0.000 NA
ATOM      4  C   UNL     1       1.710   4.772  20.019  0.00  0.00    +0.000 A 
ATOM      5  C   UNL     1       0.896   3.793  20.608  0.00  0.00    +0.000 A 
ATOM      6  C   UNL     1       1.490   2.622  21.089  0.00  0.00    +0.000 A 
ATOM      7  C   UNL     1       2.869   2.433  20.993  0.00  0.00    +0.000 A 
ATOM      8  C   UNL     1       3.694   3.402  20.411  0.00  0.00    +0.000 A 
ATOM      9  C   UNL     1       3.082   4.569  19.930  0.00  0.00    +0.000 A 
ENDROOT
BRANCH   1  10
ATOM     10  C   UNL     1       4.939   5.886  18.864  0.00  0.00    +0.000 C 
BRANCH  10  15
ATOM     11 CL   UNL     1       5.859   3.827  13.254  0.00  0.00    +0.000 Cl
ATOM     12  C   UNL     1       5.629   4.412  14.855  0.00  0.00    +0.000 A 
ATOM     13  C   UNL     1       5.589   3.518  15.921  0.00  0.00    +0.000 A 
ATOM     14  C   UNL     1       5.384   3.996  17.221  0.00  0.00    +0.000 A 
ATOM     15  C   UNL     1       5.222   5.370  17.472  0.00  0.00    +0.000 A 
ATOM     16  C   UNL     1       5.268   6.253  16.382  0.00  0.00    +0.000 A 
ATOM     17  C   UNL     1       5.471   5.776  15.082  0.00  0.00    +0.000 A 
ENDBRANCH  10  15
ENDBRANCH   1  10
BRANCH   2  18
ATOM     18  C   UNL     1       2.529   7.755  18.162  0.00  0.00    +0.000 C 
BRANCH  18  19
ATOM     19  N   UNL     1       1.698   8.835  18.690  0.00  0.00    +0.000 N 
ATOM     20  C   UNL     1       0.906   9.681  17.959  0.00  0.00    +0.000 A 
ATOM     21  N   UNL     1       0.097  10.383  18.725  0.00  0.00    +0.000 NA
ATOM     22  C   UNL     1       0.398  10.008  20.025  0.00  0.00    +0.000 A 
ATOM     23  C   UNL     1      -0.137  10.379  21.292  0.00  0.00    +0.000 A 
ATOM     24  N   UNL     1      -1.246  11.210  21.526  0.00  0.00    +0.000 N 
ATOM     25  C   UNL     1      -1.212  11.919  22.819  0.00  0.00    +0.000 C 
ATOM     26  C   UNL     1      -2.566  12.584  23.101  0.00  0.00    +0.000 C 
ATOM     27  O   UNL     1      -2.965  13.451  22.031  0.00  0.00    +0.000 OA
ATOM     28  C   UNL     1      -3.082  12.697  20.814  0.00  0.00    +0.000 C 
ATOM     29  C   UNL     1      -1.750  12.033  20.414  0.00  0.00    +0.000 C 
ATOM     30  N   UNL     1       0.454   9.793  22.382  0.00  0.00    +0.000 NA
ATOM     31  C   UNL     1       1.453   8.904  22.216  0.00  0.00    +0.000 A 
ATOM     32  N   UNL     1       1.987   8.457  21.069  0.00  0.00    +0.000 NA
ATOM     33  C   UNL     1       1.421   9.062  20.013  0.00  0.00    +0.000 A 
ENDBRANCH  18  19
ENDBRANCH   2  18
TORSDOF 4
ENDMDL
MODEL 9
REMARK VINA RESULT:      -7.9      3.029      4.708
REMARK  Name = 
REMARK  4 active torsions:
REMARK  status: ('A' for Active; 'I' for Inactive)
REMARK    1  A    between atoms: C_5  and  C_6
REMARK    2  A    between atoms: C_6  and  N_7
REMARK    3  A    between atoms: C_8  and  C_9
REMARK    4  A    between atoms: C_9  and  N_10
REMARK                            x       y       z     vdW  Elec       q    Type
REMARK                         _______ _______ _______ _____ _____    ______ ____
ROOT
ATOM      1  N   UNL     1       0.543  12.484  20.856  0.00  0.00    +0.000 N 
ATOM      2  C   UNL     1       0.004  11.398  20.177  0.00  0.00    +0.000 A 
ATOM      3  N   UNL     1      -1.240  11.188  20.563  0.00  0.00    +0.000 NA
ATOM      4  C   UNL     1      -1.493  12.085  21.561  0.00  0.00    +0.000 A 
ATOM      5  C   UNL     1      -2.642  12.230  22.351  0.00  0.00    +0.000 A 
ATOM      6  C   UNL     1      -2.656  13.207  23.351  0.00  0.00    +0.000 A 
ATOM      7  C   UNL     1      -1.549  14.031  23.555  0.00  0.00    +0.000 A 
ATOM      8  C   UNL     1      -0.395  13.900  22.773  0.00  0.00    +0.000 A 
ATOM      9  C   UNL     1      -0.396  12.912  21.777  0.00  0.00    +0.000 A 
ENDROOT
BRANCH   1  10
ATOM     10  C   UNL     1       1.912  12.985  20.786  0.00  0.00    +0.000 C 
BRANCH  10  15
ATOM     11 CL   UNL     1       2.899  17.342  16.710  0.00  0.00    +0.000 Cl
ATOM     12  C   UNL     1       2.590  16.097  17.856  0.00  0.00    +0.000 A 
ATOM     13  C   UNL     1       1.847  16.376  19.000  0.00  0.00    +0.000 A 
ATOM     14  C   UNL     1       1.612  15.366  19.939  0.00  0.00    +0.000 A 
ATOM     15  C   UNL     1       2.110  14.065  19.746  0.00  0.00    +0.000 A 
ATOM     16  C   UNL     1       2.854  13.806  18.584  0.00  0.00    +0.000 A 
ATOM     17  C   UNL     1       3.091  14.816  17.645  0.00  0.00    +0.000 A 
ENDBRANCH  10  15
ENDBRANCH   1  10
BRANCH   2  18
ATOM     18  C   UNL     1       0.749  10.567  19.176  0.00  0.00    +0.000 C 
BRANCH  18  19
ATOM     19  N   UNL     1       1.234   9.298  19.713  0.00  0.00    +0.000 N 
ATOM     20  C   UNL     1       0.824   8.698  20.874  0.00  0.00    +0.000 A 
ATOM     21  N   UNL     1       1.258   7.458  20.969  0.00  0.00    +0.000 NA
ATOM     22  C   UNL     1       2.022   7.246  19.832  0.00  0.00    +0.000 A 
ATOM     23  C   UNL     1       2.732   6.114  19.336  0.00  0.00    +0.000 A 
ATOM     24  N   UNL     1       2.743   4.822  19.887  0.00  0.00    +0.000 N 
ATOM     25  C   UNL     1       3.968   4.050  19.600  0.00  0.00    +0.000 C 
ATOM     26  C   UNL     1       3.784   2.582  20.007  0.00  0.00    +0.000 C 
ATOM     27  O   UNL     1       3.386   2.456  21.379  0.00  0.00    +0.000 OA
ATOM     28  C   UNL     1       2.139   3.138  21.586  0.00  0.00    +0.000 C 
ATOM     29  C   UNL     1       2.238   4.640  21.257  0.00  0.00    +0.000 C 
ATOM     30  N   UNL     1       3.404   6.304  18.156  0.00  0.00    +0.000 NA
ATOM     31  C   UNL     1       3.343   7.492  17.523  0.00  0.00    +0.000 A 
ATOM     32  N   UNL     1       2.664   8.593  17.884  0.00  0.00    +0.000 NA
ATOM     33  C   UNL     1       2.038   8.402  19.056  0.00  0.00    +0.000 A 
ENDBRANCH  18  19
ENDBRANCH   2  18
TORSDOF 4
ENDMDL
