MODEL 1
REMARK VINA RESULT:      -7.3      0.000      0.000
REMARK  Name = 
REMARK  9 active torsions:
REMARK  status: ('A' for Active; 'I' for Inactive)
REMARK    1  A    between atoms: C_1  and  O_2
REMARK    2  A    between atoms: O_2  and  C_3
REMARK    3  A    between atoms: C_12  and  C_13
REMARK    4  A    between atoms: C_15  and  O_16
REMARK    5  A    between atoms: O_16  and  C_17
REMARK    6  A    between atoms: C_18  and  O_19
REMARK    7  A    between atoms: O_19  and  C_20
REMARK    8  A    between atoms: C_21  and  O_22
REMARK    9  A    between atoms: O_22  and  C_23
REMARK                            x       y       z     vdW  Elec       q    Type
REMARK                         _______ _______ _______ _____ _____    ______ ____
ROOT
ATOM      1  C   UNL     1      -0.095  12.211  20.961  0.00  0.00    +0.000 A 
ATOM      2  C   UNL     1       0.343  12.882  19.819  0.00  0.00    +0.000 A 
ATOM      3  C   UNL     1       1.041  12.209  18.818  0.00  0.00    +0.000 A 
ATOM      4  C   UNL     1       1.287  10.836  18.933  0.00  0.00    +0.000 A 
ATOM      5  C   UNL     1       0.830  10.156  20.076  0.00  0.00    +0.000 A 
ATOM      6  C   UNL     1       0.140  10.841  21.084  0.00  0.00    +0.000 A 
ATOM      7  C   UNL     1       1.099   8.703  20.263  0.00  0.00    +0.000 C 
ATOM      8  O   UNL     1       0.761   8.118  21.288  0.00  0.00    +0.000 OA
ATOM      9  C   UNL     1       1.824   8.018  19.152  0.00  0.00    +0.000 C 
ATOM     10  C   UNL     1       2.561   6.946  19.488  0.00  0.00    +0.000 C 
ATOM     11  C   UNL     1       1.685   8.645  17.798  0.00  0.00    +0.000 C 
ATOM     12  C   UNL     1       2.072  10.118  17.865  0.00  0.00    +0.000 C 
ENDROOT
BRANCH  10  13
ATOM     13  C   UNL     1       3.434   6.231  18.560  0.00  0.00    +0.000 A 
ATOM     14  C   UNL     1       3.174   4.890  18.281  0.00  0.00    +0.000 A 
ATOM     15  C   UNL     1       3.969   4.190  17.370  0.00  0.00    +0.000 A 
ATOM     16  C   UNL     1       5.057   4.843  16.748  0.00  0.00    +0.000 A 
ATOM     17  C   UNL     1       5.347   6.189  17.066  0.00  0.00    +0.000 A 
ATOM     18  C   UNL     1       4.520   6.871  17.966  0.00  0.00    +0.000 A 
BRANCH  15  19
ATOM     19  O   UNL     1       3.756   2.871  17.047  0.00  0.00    +0.000 OA
ATOM     20  C   UNL     1       3.410   2.004  18.123  0.00  0.00    +0.000 C 
ENDBRANCH  15  19
BRANCH  16  21
ATOM     21  O   UNL     1       5.809   4.059  15.898  0.00  0.00    +0.000 OA
ATOM     22  C   UNL     1       5.599   4.265  14.505  0.00  0.00    +0.000 C 
ENDBRANCH  16  21
BRANCH  17  23
ATOM     23  O   UNL     1       6.454   6.759  16.492  0.00  0.00    +0.000 OA
ATOM     24  C   UNL     1       7.430   7.332  17.351  0.00  0.00    +0.000 C 
ENDBRANCH  17  23
ENDBRANCH  10  13
BRANCH   1  26
ATOM     25  C   UNL     1      -1.277  12.268  23.002  0.00  0.00    +0.000 C 
ATOM     26  O   UNL     1      -0.763  12.976  21.877  0.00  0.00    +0.000 OA
ENDBRANCH   1  26
TORSDOF 5
ENDMDL
MODEL 2
REMARK VINA RESULT:      -7.3      1.896      2.750
REMARK  Name = 
REMARK  9 active torsions:
REMARK  status: ('A' for Active; 'I' for Inactive)
REMARK    1  A    between atoms: C_1  and  O_2
REMARK    2  A    between atoms: O_2  and  C_3
REMARK    3  A    between atoms: C_12  and  C_13
REMARK    4  A    between atoms: C_15  and  O_16
REMARK    5  A    between atoms: O_16  and  C_17
REMARK    6  A    between atoms: C_18  and  O_19
REMARK    7  A    between atoms: O_19  and  C_20
REMARK    8  A    between atoms: C_21  and  O_22
REMARK    9  A    between atoms: O_22  and  C_23
REMARK                            x       y       z     vdW  Elec       q    Type
REMARK                         _______ _______ _______ _____ _____    ______ ____
ROOT
ATOM      1  C   UNL     1      -0.928  11.921  20.687  0.00  0.00    +0.000 A 
ATOM      2  C   UNL     1      -1.177  11.193  21.851  0.00  0.00    +0.000 A 
ATOM      3  C   UNL     1      -0.602   9.939  22.048  0.00  0.00    +0.000 A 
ATOM      4  C   UNL     1       0.261   9.403  21.085  0.00  0.00    +0.000 A 
ATOM      5  C   UNL     1       0.526  10.142  19.920  0.00  0.00    +0.000 A 
ATOM      6  C   UNL     1      -0.064  11.398  19.723  0.00  0.00    +0.000 A 
ATOM      7  C   UNL     1       1.408   9.599  18.849  0.00  0.00    +0.000 C 
ATOM      8  O   UNL     1       1.591  10.211  17.801  0.00  0.00    +0.000 OA
ATOM      9  C   UNL     1       2.023   8.266  19.116  0.00  0.00    +0.000 C 
ATOM     10  C   UNL     1       2.319   7.516  18.040  0.00  0.00    +0.000 C 
ATOM     11  C   UNL     1       2.188   7.900  20.560  0.00  0.00    +0.000 C 
ATOM     12  C   UNL     1       0.853   8.030  21.285  0.00  0.00    +0.000 C 
ENDROOT
BRANCH  10  13
ATOM     13  C   UNL     1       2.807   6.140  18.112  0.00  0.00    +0.000 A 
ATOM     14  C   UNL     1       1.902   5.092  17.953  0.00  0.00    +0.000 A 
ATOM     15  C   UNL     1       2.344   3.767  17.981  0.00  0.00    +0.000 A 
ATOM     16  C   UNL     1       3.713   3.492  18.196  0.00  0.00    +0.000 A 
ATOM     17  C   UNL     1       4.622   4.555  18.403  0.00  0.00    +0.000 A 
ATOM     18  C   UNL     1       4.154   5.873  18.348  0.00  0.00    +0.000 A 
BRANCH  15  19
ATOM     19  O   UNL     1       1.502   2.692  17.820  0.00  0.00    +0.000 OA
ATOM     20  C   UNL     1       0.634   2.399  18.910  0.00  0.00    +0.000 C 
ENDBRANCH  15  19
BRANCH  16  21
ATOM     21  O   UNL     1       4.047   2.155  18.250  0.00  0.00    +0.000 OA
ATOM     22  C   UNL     1       4.251   1.613  19.551  0.00  0.00    +0.000 C 
ENDBRANCH  16  21
BRANCH  17  23
ATOM     23  O   UNL     1       5.926   4.238  18.679  0.00  0.00    +0.000 OA
ATOM     24  C   UNL     1       6.933   4.739  17.810  0.00  0.00    +0.000 C 
ENDBRANCH  17  23
ENDBRANCH  10  13
BRANCH   1  26
ATOM     25  C   UNL     1      -2.961  13.083  20.414  0.00  0.00    +0.000 C 
ATOM     26  O   UNL     1      -1.551  13.135  20.603  0.00  0.00    +0.000 OA
ENDBRANCH   1  26
TORSDOF 5
ENDMDL
MODEL 3
REMARK VINA RESULT:      -7.2      1.673      3.490
REMARK  Name = 
REMARK  9 active torsions:
REMARK  status: ('A' for Active; 'I' for Inactive)
REMARK    1  A    between atoms: C_1  and  O_2
REMARK    2  A    between atoms: O_2  and  C_3
REMARK    3  A    between atoms: C_12  and  C_13
REMARK    4  A    between atoms: C_15  and  O_16
REMARK    5  A    between atoms: O_16  and  C_17
REMARK    6  A    between atoms: C_18  and  O_19
REMARK    7  A    between atoms: O_19  and  C_20
REMARK    8  A    between atoms: C_21  and  O_22
REMARK    9  A    between atoms: O_22  and  C_23
REMARK                            x       y       z     vdW  Elec       q    Type
REMARK                         _______ _______ _______ _____ _____    ______ ____
ROOT
ATOM      1  C   UNL     1      -0.721  11.716  21.448  0.00  0.00    +0.000 A 
ATOM      2  C   UNL     1      -0.972  10.840  22.504  0.00  0.00    +0.000 A 
ATOM      3  C   UNL     1      -0.468   9.540  22.492  0.00  0.00    +0.000 A 
ATOM      4  C   UNL     1       0.326   9.105  21.424  0.00  0.00    +0.000 A 
ATOM      5  C   UNL     1       0.593   9.992  20.368  0.00  0.00    +0.000 A 
ATOM      6  C   UNL     1       0.074  11.293  20.381  0.00  0.00    +0.000 A 
ATOM      7  C   UNL     1       1.402   9.565  19.192  0.00  0.00    +0.000 C 
ATOM      8  O   UNL     1       1.583  10.313  18.236  0.00  0.00    +0.000 OA
ATOM      9  C   UNL     1       1.944   8.175  19.235  0.00  0.00    +0.000 C 
ATOM     10  C   UNL     1       2.155   7.577  18.050  0.00  0.00    +0.000 C 
ATOM     11  C   UNL     1       2.138   7.593  20.603  0.00  0.00    +0.000 C 
ATOM     12  C   UNL     1       0.840   7.688  21.397  0.00  0.00    +0.000 C 
ENDROOT
BRANCH  10  13
ATOM     13  C   UNL     1       2.560   6.180  17.901  0.00  0.00    +0.000 A 
ATOM     14  C   UNL     1       3.881   5.891  17.563  0.00  0.00    +0.000 A 
ATOM     15  C   UNL     1       4.306   4.565  17.448  0.00  0.00    +0.000 A 
ATOM     16  C   UNL     1       3.383   3.515  17.655  0.00  0.00    +0.000 A 
ATOM     17  C   UNL     1       2.034   3.811  17.953  0.00  0.00    +0.000 A 
ATOM     18  C   UNL     1       1.641   5.149  18.082  0.00  0.00    +0.000 A 
BRANCH  15  19
ATOM     19  O   UNL     1       5.597   4.217  17.128  0.00  0.00    +0.000 OA
ATOM     20  C   UNL     1       6.614   4.665  18.019  0.00  0.00    +0.000 C 
ENDBRANCH  15  19
BRANCH  16  21
ATOM     21  O   UNL     1       3.885   2.242  17.477  0.00  0.00    +0.000 OA
ATOM     22  C   UNL     1       3.871   1.398  18.623  0.00  0.00    +0.000 C 
ENDBRANCH  16  21
BRANCH  17  23
ATOM     23  O   UNL     1       1.159   2.763  18.073  0.00  0.00    +0.000 OA
ATOM     24  C   UNL     1       0.535   2.555  19.334  0.00  0.00    +0.000 C 
ENDBRANCH  17  23
ENDBRANCH  10  13
BRANCH   1  26
ATOM     25  C   UNL     1      -1.910  13.227  22.814  0.00  0.00    +0.000 C 
ATOM     26  O   UNL     1      -1.272  12.961  21.568  0.00  0.00    +0.000 OA
ENDBRANCH   1  26
TORSDOF 5
ENDMDL
MODEL 4
REMARK VINA RESULT:      -7.2      1.689      2.782
REMARK  Name = 
REMARK  9 active torsions:
REMARK  status: ('A' for Active; 'I' for Inactive)
REMARK    1  A    between atoms: C_1  and  O_2
REMARK    2  A    between atoms: O_2  and  C_3
REMARK    3  A    between atoms: C_12  and  C_13
REMARK    4  A    between atoms: C_15  and  O_16
REMARK    5  A    between atoms: O_16  and  C_17
REMARK    6  A    between atoms: C_18  and  O_19
REMARK    7  A    between atoms: O_19  and  C_20
REMARK    8  A    between atoms: C_21  and  O_22
REMARK    9  A    between atoms: O_22  and  C_23
REMARK                            x       y       z     vdW  Elec       q    Type
REMARK                         _______ _______ _______ _____ _____    ______ ____
ROOT
ATOM      1  C   UNL     1      -0.646  11.417  21.412  0.00  0.00    +0.000 A 
ATOM      2  C   UNL     1      -0.803  10.554  22.496  0.00  0.00    +0.000 A 
ATOM      3  C   UNL     1      -0.249   9.275  22.481  0.00  0.00    +0.000 A 
ATOM      4  C   UNL     1       0.502   8.849  21.379  0.00  0.00    +0.000 A 
ATOM      5  C   UNL     1       0.675   9.723  20.293  0.00  0.00    +0.000 A 
ATOM      6  C   UNL     1       0.106  11.003  20.311  0.00  0.00    +0.000 A 
ATOM      7  C   UNL     1       1.435   9.303  19.082  0.00  0.00    +0.000 C 
ATOM      8  O   UNL     1       1.534  10.038  18.104  0.00  0.00    +0.000 OA
ATOM      9  C   UNL     1       2.033   7.936  19.121  0.00  0.00    +0.000 C 
ATOM     10  C   UNL     1       2.203   7.322  17.938  0.00  0.00    +0.000 C 
ATOM     11  C   UNL     1       2.325   7.391  20.486  0.00  0.00    +0.000 C 
ATOM     12  C   UNL     1       1.070   7.452  21.350  0.00  0.00    +0.000 C 
ENDROOT
BRANCH  10  13
ATOM     13  C   UNL     1       2.654   5.939  17.793  0.00  0.00    +0.000 A 
ATOM     14  C   UNL     1       1.742   4.904  17.991  0.00  0.00    +0.000 A 
ATOM     15  C   UNL     1       2.136   3.574  17.824  0.00  0.00    +0.000 A 
ATOM     16  C   UNL     1       3.473   3.280  17.474  0.00  0.00    +0.000 A 
ATOM     17  C   UNL     1       4.408   4.329  17.318  0.00  0.00    +0.000 A 
ATOM     18  C   UNL     1       3.980   5.653  17.471  0.00  0.00    +0.000 A 
BRANCH  15  19
ATOM     19  O   UNL     1       1.280   2.512  17.996  0.00  0.00    +0.000 OA
ATOM     20  C   UNL     1       0.492   2.519  19.182  0.00  0.00    +0.000 C 
ENDBRANCH  15  19
BRANCH  16  21
ATOM     21  O   UNL     1       3.778   1.938  17.375  0.00  0.00    +0.000 OA
ATOM     22  C   UNL     1       4.031   1.261  18.601  0.00  0.00    +0.000 C 
ENDBRANCH  16  21
BRANCH  17  23
ATOM     23  O   UNL     1       5.709   3.993  17.050  0.00  0.00    +0.000 OA
ATOM     24  C   UNL     1       6.123   3.959  15.691  0.00  0.00    +0.000 C 
ENDBRANCH  17  23
ENDBRANCH  10  13
BRANCH   1  26
ATOM     25  C   UNL     1      -0.594  13.539  22.439  0.00  0.00    +0.000 C 
ATOM     26  O   UNL     1      -1.238  12.642  21.539  0.00  0.00    +0.000 OA
ENDBRANCH   1  26
TORSDOF 5
ENDMDL
MODEL 5
REMARK VINA RESULT:      -7.1      2.083      3.662
REMARK  Name = 
REMARK  9 active torsions:
REMARK  status: ('A' for Active; 'I' for Inactive)
REMARK    1  A    between atoms: C_1  and  O_2
REMARK    2  A    between atoms: O_2  and  C_3
REMARK    3  A    between atoms: C_12  and  C_13
REMARK    4  A    between atoms: C_15  and  O_16
REMARK    5  A    between atoms: O_16  and  C_17
REMARK    6  A    between atoms: C_18  and  O_19
REMARK    7  A    between atoms: O_19  and  C_20
REMARK    8  A    between atoms: C_21  and  O_22
REMARK    9  A    between atoms: O_22  and  C_23
REMARK                            x       y       z     vdW  Elec       q    Type
REMARK                         _______ _______ _______ _____ _____    ______ ____
ROOT
ATOM      1  C   UNL     1      -0.993  12.026  19.881  0.00  0.00    +0.000 A 
ATOM      2  C   UNL     1      -1.298  11.434  21.107  0.00  0.00    +0.000 A 
ATOM      3  C   UNL     1      -0.719  10.223  21.480  0.00  0.00    +0.000 A 
ATOM      4  C   UNL     1       0.206   9.596  20.636  0.00  0.00    +0.000 A 
ATOM      5  C   UNL     1       0.527  10.201  19.409  0.00  0.00    +0.000 A 
ATOM      6  C   UNL     1      -0.068  11.413  19.035  0.00  0.00    +0.000 A 
ATOM      7  C   UNL     1       1.476   9.556  18.460  0.00  0.00    +0.000 C 
ATOM      8  O   UNL     1       1.710  10.046  17.359  0.00  0.00    +0.000 OA
ATOM      9  C   UNL     1       2.094   8.276  18.913  0.00  0.00    +0.000 C 
ATOM     10  C   UNL     1       2.461   7.412  17.951  0.00  0.00    +0.000 C 
ATOM     11  C   UNL     1       2.181   8.083  20.397  0.00  0.00    +0.000 C 
ATOM     12  C   UNL     1       0.805   8.269  21.027  0.00  0.00    +0.000 C 
ENDROOT
BRANCH  10  13
ATOM     13  C   UNL     1       2.963   6.064  18.210  0.00  0.00    +0.000 A 
ATOM     14  C   UNL     1       4.326   5.881  18.437  0.00  0.00    +0.000 A 
ATOM     15  C   UNL     1       4.829   4.609  18.724  0.00  0.00    +0.000 A 
ATOM     16  C   UNL     1       3.951   3.502  18.758  0.00  0.00    +0.000 A 
ATOM     17  C   UNL     1       2.577   3.683  18.483  0.00  0.00    +0.000 A 
ATOM     18  C   UNL     1       2.097   4.972  18.220  0.00  0.00    +0.000 A 
BRANCH  15  19
ATOM     19  O   UNL     1       6.160   4.367  18.967  0.00  0.00    +0.000 OA
ATOM     20  C   UNL     1       6.959   5.498  19.302  0.00  0.00    +0.000 C 
ENDBRANCH  15  19
BRANCH  16  21
ATOM     21  O   UNL     1       4.546   2.282  19.006  0.00  0.00    +0.000 OA
ATOM     22  C   UNL     1       4.526   1.838  20.358  0.00  0.00    +0.000 C 
ENDBRANCH  16  21
BRANCH  17  23
ATOM     23  O   UNL     1       1.777   2.571  18.457  0.00  0.00    +0.000 OA
ATOM     24  C   UNL     1       0.516   2.640  19.110  0.00  0.00    +0.000 C 
ENDBRANCH  17  23
ENDBRANCH  10  13
BRANCH   1  26
ATOM     25  C   UNL     1      -1.014  14.365  20.186  0.00  0.00    +0.000 C 
ATOM     26  O   UNL     1      -1.627  13.210  19.622  0.00  0.00    +0.000 OA
ENDBRANCH   1  26
TORSDOF 5
ENDMDL
MODEL 6
REMARK VINA RESULT:      -7.0      0.291      2.482
REMARK  Name = 
REMARK  9 active torsions:
REMARK  status: ('A' for Active; 'I' for Inactive)
REMARK    1  A    between atoms: C_1  and  O_2
REMARK    2  A    between atoms: O_2  and  C_3
REMARK    3  A    between atoms: C_12  and  C_13
REMARK    4  A    between atoms: C_15  and  O_16
REMARK    5  A    between atoms: O_16  and  C_17
REMARK    6  A    between atoms: C_18  and  O_19
REMARK    7  A    between atoms: O_19  and  C_20
REMARK    8  A    between atoms: C_21  and  O_22
REMARK    9  A    between atoms: O_22  and  C_23
REMARK                            x       y       z     vdW  Elec       q    Type
REMARK                         _______ _______ _______ _____ _____    ______ ____
ROOT
ATOM      1  C   UNL     1       0.029  12.400  20.961  0.00  0.00    +0.000 A 
ATOM      2  C   UNL     1       0.460  13.032  19.795  0.00  0.00    +0.000 A 
ATOM      3  C   UNL     1       1.114  12.319  18.793  0.00  0.00    +0.000 A 
ATOM      4  C   UNL     1       1.322  10.941  18.933  0.00  0.00    +0.000 A 
ATOM      5  C   UNL     1       0.873  10.300  20.100  0.00  0.00    +0.000 A 
ATOM      6  C   UNL     1       0.227  11.026  21.108  0.00  0.00    +0.000 A 
ATOM      7  C   UNL     1       1.104   8.844  20.313  0.00  0.00    +0.000 C 
ATOM      8  O   UNL     1       0.773   8.291  21.358  0.00  0.00    +0.000 OA
ATOM      9  C   UNL     1       1.782   8.114  19.202  0.00  0.00    +0.000 C 
ATOM     10  C   UNL     1       2.495   7.028  19.545  0.00  0.00    +0.000 C 
ATOM     11  C   UNL     1       1.630   8.716  17.837  0.00  0.00    +0.000 C 
ATOM     12  C   UNL     1       2.061  10.178  17.863  0.00  0.00    +0.000 C 
ENDROOT
BRANCH  10  13
ATOM     13  C   UNL     1       3.325   6.267  18.612  0.00  0.00    +0.000 A 
ATOM     14  C   UNL     1       4.409   6.897  18.001  0.00  0.00    +0.000 A 
ATOM     15  C   UNL     1       5.241   6.186  17.134  0.00  0.00    +0.000 A 
ATOM     16  C   UNL     1       4.966   4.827  16.858  0.00  0.00    +0.000 A 
ATOM     17  C   UNL     1       3.841   4.203  17.443  0.00  0.00    +0.000 A 
ATOM     18  C   UNL     1       3.036   4.935  18.325  0.00  0.00    +0.000 A 
BRANCH  15  19
ATOM     19  O   UNL     1       6.329   6.748  16.509  0.00  0.00    +0.000 OA
ATOM     20  C   UNL     1       7.387   7.188  17.355  0.00  0.00    +0.000 C 
ENDBRANCH  15  19
BRANCH  16  21
ATOM     21  O   UNL     1       5.817   4.222  15.957  0.00  0.00    +0.000 OA
ATOM     22  C   UNL     1       5.480   4.370  14.581  0.00  0.00    +0.000 C 
ENDBRANCH  16  21
BRANCH  17  23
ATOM     23  O   UNL     1       3.572   2.906  17.091  0.00  0.00    +0.000 OA
ATOM     24  C   UNL     1       3.418   1.950  18.132  0.00  0.00    +0.000 C 
ENDBRANCH  17  23
ENDBRANCH  10  13
BRANCH   1  26
ATOM     25  C   UNL     1      -1.958  12.884  22.136  0.00  0.00    +0.000 C 
ATOM     26  O   UNL     1      -0.595  13.203  21.875  0.00  0.00    +0.000 OA
ENDBRANCH   1  26
TORSDOF 5
ENDMDL
MODEL 7
REMARK VINA RESULT:      -7.0      2.027      3.837
REMARK  Name = 
REMARK  9 active torsions:
REMARK  status: ('A' for Active; 'I' for Inactive)
REMARK    1  A    between atoms: C_1  and  O_2
REMARK    2  A    between atoms: O_2  and  C_3
REMARK    3  A    between atoms: C_12  and  C_13
REMARK    4  A    between atoms: C_15  and  O_16
REMARK    5  A    between atoms: O_16  and  C_17
REMARK    6  A    between atoms: C_18  and  O_19
REMARK    7  A    between atoms: O_19  and  C_20
REMARK    8  A    between atoms: C_21  and  O_22
REMARK    9  A    between atoms: O_22  and  C_23
REMARK                            x       y       z     vdW  Elec       q    Type
REMARK                         _______ _______ _______ _____ _____    ______ ____
ROOT
ATOM      1  C   UNL     1      -1.867  12.452  21.547  0.00  0.00    +0.000 A 
ATOM      2  C   UNL     1      -1.898  11.883  22.820  0.00  0.00    +0.000 A 
ATOM      3  C   UNL     1      -1.146  10.747  23.116  0.00  0.00    +0.000 A 
ATOM      4  C   UNL     1      -0.322  10.177  22.138  0.00  0.00    +0.000 A 
ATOM      5  C   UNL     1      -0.277  10.760  20.860  0.00  0.00    +0.000 A 
ATOM      6  C   UNL     1      -1.044  11.895  20.567  0.00  0.00    +0.000 A 
ATOM      7  C   UNL     1       0.556  10.169  19.776  0.00  0.00    +0.000 C 
ATOM      8  O   UNL     1       0.549  10.634  18.640  0.00  0.00    +0.000 OA
ATOM      9  C   UNL     1       1.366   8.971  20.145  0.00  0.00    +0.000 C 
ATOM     10  C   UNL     1       1.647   8.108  19.153  0.00  0.00    +0.000 C 
ATOM     11  C   UNL     1       1.723   8.846  21.595  0.00  0.00    +0.000 C 
ATOM     12  C   UNL     1       0.463   8.928  22.450  0.00  0.00    +0.000 C 
ENDROOT
BRANCH  10  13
ATOM     13  C   UNL     1       2.316   6.824  19.353  0.00  0.00    +0.000 A 
ATOM     14  C   UNL     1       3.356   6.462  18.498  0.00  0.00    +0.000 A 
ATOM     15  C   UNL     1       4.038   5.258  18.686  0.00  0.00    +0.000 A 
ATOM     16  C   UNL     1       3.653   4.393  19.736  0.00  0.00    +0.000 A 
ATOM     17  C   UNL     1       2.569   4.741  20.573  0.00  0.00    +0.000 A 
ATOM     18  C   UNL     1       1.917   5.964  20.374  0.00  0.00    +0.000 A 
BRANCH  15  19
ATOM     19  O   UNL     1       5.078   4.852  17.883  0.00  0.00    +0.000 OA
ATOM     20  C   UNL     1       4.799   4.749  16.490  0.00  0.00    +0.000 C 
ENDBRANCH  15  19
BRANCH  16  21
ATOM     21  O   UNL     1       4.356   3.209  19.815  0.00  0.00    +0.000 OA
ATOM     22  C   UNL     1       3.827   2.116  19.072  0.00  0.00    +0.000 C 
ENDBRANCH  16  21
BRANCH  17  23
ATOM     23  O   UNL     1       2.185   3.839  21.531  0.00  0.00    +0.000 OA
ATOM     24  C   UNL     1       1.148   2.922  21.208  0.00  0.00    +0.000 C 
ENDBRANCH  17  23
ENDBRANCH  10  13
BRANCH   1  26
ATOM     25  C   UNL     1      -4.048  13.348  21.540  0.00  0.00    +0.000 C 
ATOM     26  O   UNL     1      -2.649  13.560  21.375  0.00  0.00    +0.000 OA
ENDBRANCH   1  26
TORSDOF 5
ENDMDL
MODEL 8
REMARK VINA RESULT:      -6.9      1.862      2.984
REMARK  Name = 
REMARK  9 active torsions:
REMARK  status: ('A' for Active; 'I' for Inactive)
REMARK    1  A    between atoms: C_1  and  O_2
REMARK    2  A    between atoms: O_2  and  C_3
REMARK    3  A    between atoms: C_12  and  C_13
REMARK    4  A    between atoms: C_15  and  O_16
REMARK    5  A    between atoms: O_16  and  C_17
REMARK    6  A    between atoms: C_18  and  O_19
REMARK    7  A    between atoms: O_19  and  C_20
REMARK    8  A    between atoms: C_21  and  O_22
REMARK    9  A    between atoms: O_22  and  C_23
REMARK                            x       y       z     vdW  Elec       q    Type
REMARK                         _______ _______ _______ _____ _____    ______ ____
ROOT
ATOM      1  C   UNL     1      -0.839  12.249  19.929  0.00  0.00    +0.000 A 
ATOM      2  C   UNL     1      -1.222  11.632  21.120  0.00  0.00    +0.000 A 
ATOM      3  C   UNL     1      -0.736  10.372  21.463  0.00  0.00    +0.000 A 
ATOM      4  C   UNL     1       0.171   9.717  20.622  0.00  0.00    +0.000 A 
ATOM      5  C   UNL     1       0.571  10.344  19.429  0.00  0.00    +0.000 A 
ATOM      6  C   UNL     1       0.069  11.607  19.086  0.00  0.00    +0.000 A 
ATOM      7  C   UNL     1       1.505   9.673  18.484  0.00  0.00    +0.000 C 
ATOM      8  O   UNL     1       1.806  10.187  17.411  0.00  0.00    +0.000 OA
ATOM      9  C   UNL     1       2.022   8.337  18.905  0.00  0.00    +0.000 C 
ATOM     10  C   UNL     1       2.362   7.488  17.920  0.00  0.00    +0.000 C 
ATOM     11  C   UNL     1       2.048   8.084  20.382  0.00  0.00    +0.000 C 
ATOM     12  C   UNL     1       0.668   8.338  20.978  0.00  0.00    +0.000 C 
ENDROOT
BRANCH  10  13
ATOM     13  C   UNL     1       2.765   6.100  18.141  0.00  0.00    +0.000 A 
ATOM     14  C   UNL     1       1.887   5.236  18.793  0.00  0.00    +0.000 A 
ATOM     15  C   UNL     1       2.230   3.896  18.986  0.00  0.00    +0.000 A 
ATOM     16  C   UNL     1       3.484   3.423  18.536  0.00  0.00    +0.000 A 
ATOM     17  C   UNL     1       4.390   4.312  17.916  0.00  0.00    +0.000 A 
ATOM     18  C   UNL     1       4.012   5.645  17.717  0.00  0.00    +0.000 A 
BRANCH  15  19
ATOM     19  O   UNL     1       1.403   2.993  19.612  0.00  0.00    +0.000 OA
ATOM     20  C   UNL     1       1.246   3.150  21.019  0.00  0.00    +0.000 C 
ENDBRANCH  15  19
BRANCH  16  21
ATOM     21  O   UNL     1       3.750   2.098  18.810  0.00  0.00    +0.000 OA
ATOM     22  C   UNL     1       4.579   1.845  19.939  0.00  0.00    +0.000 C 
ENDBRANCH  16  21
BRANCH  17  23
ATOM     23  O   UNL     1       5.622   3.826  17.561  0.00  0.00    +0.000 OA
ATOM     24  C   UNL     1       6.058   4.025  16.223  0.00  0.00    +0.000 C 
ENDBRANCH  17  23
ENDBRANCH  10  13
BRANCH   1  26
ATOM     25  C   UNL     1      -0.447  14.536  19.510  0.00  0.00    +0.000 C 
ATOM     26  O   UNL     1      -1.385  13.481  19.698  0.00  0.00    +0.000 OA
ENDBRANCH   1  26
TORSDOF 5
ENDMDL
MODEL 9
REMARK VINA RESULT:      -6.9      1.939      3.157
REMARK  Name = 
REMARK  9 active torsions:
REMARK  status: ('A' for Active; 'I' for Inactive)
REMARK    1  A    between atoms: C_1  and  O_2
REMARK    2  A    between atoms: O_2  and  C_3
REMARK    3  A    between atoms: C_12  and  C_13
REMARK    4  A    between atoms: C_15  and  O_16
REMARK    5  A    between atoms: O_16  and  C_17
REMARK    6  A    between atoms: C_18  and  O_19
REMARK    7  A    between atoms: O_19  and  C_20
REMARK    8  A    between atoms: C_21  and  O_22
REMARK    9  A    between atoms: O_22  and  C_23
REMARK                            x       y       z     vdW  Elec       q    Type
REMARK                         _______ _______ _______ _____ _____    ______ ____
ROOT
ATOM      1  C   UNL     1      -2.356  12.578  21.857  0.00  0.00    +0.000 A 
ATOM      2  C   UNL     1      -2.231  11.879  23.057  0.00  0.00    +0.000 A 
ATOM      3  C   UNL     1      -1.343  10.811  23.175  0.00  0.00    +0.000 A 
ATOM      4  C   UNL     1      -0.540  10.442  22.090  0.00  0.00    +0.000 A 
ATOM      5  C   UNL     1      -0.653  11.157  20.885  0.00  0.00    +0.000 A 
ATOM      6  C   UNL     1      -1.555  12.222  20.770  0.00  0.00    +0.000 A 
ATOM      7  C   UNL     1       0.153  10.780  19.690  0.00  0.00    +0.000 C 
ATOM      8  O   UNL     1       0.011  11.358  18.616  0.00  0.00    +0.000 OA
ATOM      9  C   UNL     1       1.110   9.649  19.871  0.00  0.00    +0.000 C 
ATOM     10  C   UNL     1       1.405   8.932  18.773  0.00  0.00    +0.000 C 
ATOM     11  C   UNL     1       1.587   9.415  21.272  0.00  0.00    +0.000 C 
ATOM     12  C   UNL     1       0.394   9.264  22.209  0.00  0.00    +0.000 C 
ENDROOT
BRANCH  10  13
ATOM     13  C   UNL     1       2.219   7.718  18.784  0.00  0.00    +0.000 A 
ATOM     14  C   UNL     1       2.012   6.773  19.787  0.00  0.00    +0.000 A 
ATOM     15  C   UNL     1       2.750   5.587  19.803  0.00  0.00    +0.000 A 
ATOM     16  C   UNL     1       3.727   5.358  18.808  0.00  0.00    +0.000 A 
ATOM     17  C   UNL     1       3.967   6.338  17.818  0.00  0.00    +0.000 A 
ATOM     18  C   UNL     1       3.198   7.508  17.815  0.00  0.00    +0.000 A 
BRANCH  15  19
ATOM     19  O   UNL     1       2.584   4.613  20.760  0.00  0.00    +0.000 OA
ATOM     20  C   UNL     1       1.362   3.884  20.715  0.00  0.00    +0.000 C 
ENDBRANCH  15  19
BRANCH  16  21
ATOM     21  O   UNL     1       4.434   4.180  18.931  0.00  0.00    +0.000 OA
ATOM     22  C   UNL     1       4.043   3.121  18.064  0.00  0.00    +0.000 C 
ENDBRANCH  16  21
BRANCH  17  23
ATOM     23  O   UNL     1       4.973   6.105  16.917  0.00  0.00    +0.000 OA
ATOM     24  C   UNL     1       6.256   6.653  17.191  0.00  0.00    +0.000 C 
ENDBRANCH  17  23
ENDBRANCH  10  13
BRANCH   1  26
ATOM     25  C   UNL     1      -4.190  13.596  20.778  0.00  0.00    +0.000 C 
ATOM     26  O   UNL     1      -3.262  13.601  21.859  0.00  0.00    +0.000 OA
ENDBRANCH   1  26
TORSDOF 5
ENDMDL
