MODEL 1
REMARK VINA RESULT:      -7.3      0.000      0.000
REMARK  Name = 
REMARK  2 active torsions:
REMARK  status: ('A' for Active; 'I' for Inactive)
REMARK    1  A    between atoms: N_5  and  C_6
REMARK    2  A    between atoms: C_14  and  C_15
REMARK                            x       y       z     vdW  Elec       q    Type
REMARK                         _______ _______ _______ _____ _____    ______ ____
ROOT
ATOM      1  O   UNL     1       3.881   7.047  16.773  0.00  0.00    +0.000 OA
ATOM      2  C   UNL     1       3.540   6.691  17.890  0.00  0.00    +0.000 C 
ATOM      3  N   UNL     1       2.637   7.366  18.672  0.00  0.00    +0.000 NA
ATOM      4  C   UNL     1       2.353   6.766  19.779  0.00  0.00    +0.000 C 
ATOM      5  N   UNL     1       1.467   7.153  20.740  0.00  0.00    +0.000 N 
ATOM      6  S   UNL     1       3.199   5.257  20.062  0.00  0.00    +0.000 S 
ATOM      7  C   UNL     1       4.049   5.461  18.571  0.00  0.00    +0.000 C 
ATOM      8  C   UNL     1       4.998   4.617  18.142  0.00  0.00    +0.000 C 
ATOM      9  H   UNL     1       1.205   6.473  21.442  0.00  0.00    +0.000 HD
ENDROOT
BRANCH   5  10
ATOM     10  C   UNL     1       1.045   8.468  20.990  0.00  0.00    +0.000 A 
ATOM     11  C   UNL     1       0.538   8.799  22.254  0.00  0.00    +0.000 A 
ATOM     12  C   UNL     1       0.065  10.087  22.522  0.00  0.00    +0.000 A 
ATOM     13  C   UNL     1       0.105  11.066  21.531  0.00  0.00    +0.000 A 
ATOM     14  C   UNL     1       0.597  10.752  20.270  0.00  0.00    +0.000 A 
ATOM     15  C   UNL     1       1.046   9.458  19.999  0.00  0.00    +0.000 A 
ENDBRANCH   5  10
BRANCH   8  16
ATOM     16  C   UNL     1       5.704   4.719  16.863  0.00  0.00    +0.000 A 
ATOM     17  C   UNL     1       5.216   4.058  15.736  0.00  0.00    +0.000 A 
ATOM     18  C   UNL     1       5.909   4.148  14.531  0.00  0.00    +0.000 A 
ATOM     19  C   UNL     1       7.074   4.896  14.496  0.00  0.00    +0.000 A 
ATOM     20  N   UNL     1       7.580   5.549  15.566  0.00  0.00    +0.000 NA
ATOM     21  C   UNL     1       6.876   5.456  16.720  0.00  0.00    +0.000 A 
ENDBRANCH   8  16
TORSDOF 2
ENDMDL
MODEL 2
REMARK VINA RESULT:      -7.1      0.232      1.089
REMARK  Name = 
REMARK  2 active torsions:
REMARK  status: ('A' for Active; 'I' for Inactive)
REMARK    1  A    between atoms: N_5  and  C_6
REMARK    2  A    between atoms: C_14  and  C_15
REMARK                            x       y       z     vdW  Elec       q    Type
REMARK                         _______ _______ _______ _____ _____    ______ ____
ROOT
ATOM      1  O   UNL     1       3.945   6.992  16.649  0.00  0.00    +0.000 OA
ATOM      2  C   UNL     1       3.622   6.630  17.769  0.00  0.00    +0.000 C 
ATOM      3  N   UNL     1       2.722   7.293  18.565  0.00  0.00    +0.000 NA
ATOM      4  C   UNL     1       2.459   6.687  19.674  0.00  0.00    +0.000 C 
ATOM      5  N   UNL     1       1.581   7.062  20.646  0.00  0.00    +0.000 N 
ATOM      6  S   UNL     1       3.325   5.186  19.942  0.00  0.00    +0.000 S 
ATOM      7  C   UNL     1       4.153   5.403  18.441  0.00  0.00    +0.000 C 
ATOM      8  C   UNL     1       5.105   4.571  17.997  0.00  0.00    +0.000 C 
ATOM      9  H   UNL     1       1.335   6.378  21.350  0.00  0.00    +0.000 HD
ENDROOT
BRANCH   5  10
ATOM     10  C   UNL     1       1.148   8.373  20.905  0.00  0.00    +0.000 A 
ATOM     11  C   UNL     1       0.998   9.270  19.840  0.00  0.00    +0.000 A 
ATOM     12  C   UNL     1       0.614  10.595  20.067  0.00  0.00    +0.000 A 
ATOM     13  C   UNL     1       0.363  11.037  21.365  0.00  0.00    +0.000 A 
ATOM     14  C   UNL     1       0.514  10.161  22.434  0.00  0.00    +0.000 A 
ATOM     15  C   UNL     1       0.922   8.845  22.204  0.00  0.00    +0.000 A 
ENDBRANCH   5  10
BRANCH   8  16
ATOM     16  C   UNL     1       5.793   4.684  16.710  0.00  0.00    +0.000 A 
ATOM     17  C   UNL     1       5.349   3.952  15.608  0.00  0.00    +0.000 A 
ATOM     18  C   UNL     1       6.026   4.055  14.395  0.00  0.00    +0.000 A 
ATOM     19  C   UNL     1       7.133   4.885  14.327  0.00  0.00    +0.000 A 
ATOM     20  N   UNL     1       7.595   5.607  15.371  0.00  0.00    +0.000 NA
ATOM     21  C   UNL     1       6.907   5.500  16.534  0.00  0.00    +0.000 A 
ENDBRANCH   8  16
TORSDOF 2
ENDMDL
MODEL 3
REMARK VINA RESULT:      -7.1      2.828      3.604
REMARK  Name = 
REMARK  2 active torsions:
REMARK  status: ('A' for Active; 'I' for Inactive)
REMARK    1  A    between atoms: N_5  and  C_6
REMARK    2  A    between atoms: C_14  and  C_15
REMARK                            x       y       z     vdW  Elec       q    Type
REMARK                         _______ _______ _______ _____ _____    ______ ____
ROOT
ATOM      1  O   UNL     1       2.050   5.607  20.706  0.00  0.00    +0.000 OA
ATOM      2  C   UNL     1       1.947   6.660  20.096  0.00  0.00    +0.000 C 
ATOM      3  N   UNL     1       1.450   7.818  20.637  0.00  0.00    +0.000 NA
ATOM      4  C   UNL     1       1.515   8.835  19.845  0.00  0.00    +0.000 C 
ATOM      5  N   UNL     1       1.148  10.123  20.101  0.00  0.00    +0.000 N 
ATOM      6  S   UNL     1       2.179   8.515  18.254  0.00  0.00    +0.000 S 
ATOM      7  C   UNL     1       2.355   6.847  18.670  0.00  0.00    +0.000 C 
ATOM      8  C   UNL     1       2.797   5.917  17.812  0.00  0.00    +0.000 C 
ATOM      9  H   UNL     1       1.455  10.838  19.456  0.00  0.00    +0.000 HD
ENDROOT
BRANCH   5  10
ATOM     10  C   UNL     1       0.199  10.537  21.050  0.00  0.00    +0.000 A 
ATOM     11  C   UNL     1      -0.586  11.667  20.789  0.00  0.00    +0.000 A 
ATOM     12  C   UNL     1      -1.507  12.134  21.732  0.00  0.00    +0.000 A 
ATOM     13  C   UNL     1      -1.662  11.468  22.946  0.00  0.00    +0.000 A 
ATOM     14  C   UNL     1      -0.885  10.349  23.223  0.00  0.00    +0.000 A 
ATOM     15  C   UNL     1       0.051   9.900  22.289  0.00  0.00    +0.000 A 
ENDBRANCH   5  10
BRANCH   8  16
ATOM     16  C   UNL     1       3.014   4.505  18.136  0.00  0.00    +0.000 A 
ATOM     17  C   UNL     1       2.034   3.557  17.840  0.00  0.00    +0.000 A 
ATOM     18  C   UNL     1       2.247   2.221  18.172  0.00  0.00    +0.000 A 
ATOM     19  C   UNL     1       3.435   1.879  18.796  0.00  0.00    +0.000 A 
ATOM     20  N   UNL     1       4.407   2.767  19.101  0.00  0.00    +0.000 NA
ATOM     21  C   UNL     1       4.179   4.056  18.752  0.00  0.00    +0.000 A 
ENDBRANCH   8  16
TORSDOF 2
ENDMDL
MODEL 4
REMARK VINA RESULT:      -7.0      2.846      3.544
REMARK  Name = 
REMARK  2 active torsions:
REMARK  status: ('A' for Active; 'I' for Inactive)
REMARK    1  A    between atoms: N_5  and  C_6
REMARK    2  A    between atoms: C_14  and  C_15
REMARK                            x       y       z     vdW  Elec       q    Type
REMARK                         _______ _______ _______ _____ _____    ______ ____
ROOT
ATOM      1  O   UNL     1       2.005   5.691  20.734  0.00  0.00    +0.000 OA
ATOM      2  C   UNL     1       1.904   6.738  20.115  0.00  0.00    +0.000 C 
ATOM      3  N   UNL     1       1.422   7.906  20.649  0.00  0.00    +0.000 NA
ATOM      4  C   UNL     1       1.486   8.915  19.846  0.00  0.00    +0.000 C 
ATOM      5  N   UNL     1       1.132  10.207  20.093  0.00  0.00    +0.000 N 
ATOM      6  S   UNL     1       2.131   8.574  18.252  0.00  0.00    +0.000 S 
ATOM      7  C   UNL     1       2.298   6.909  18.682  0.00  0.00    +0.000 C 
ATOM      8  C   UNL     1       2.724   5.966  17.829  0.00  0.00    +0.000 C 
ATOM      9  H   UNL     1       1.438  10.914  19.437  0.00  0.00    +0.000 HD
ENDROOT
BRANCH   5  10
ATOM     10  C   UNL     1       0.197  10.638  21.047  0.00  0.00    +0.000 A 
ATOM     11  C   UNL     1       0.103   9.963  22.271  0.00  0.00    +0.000 A 
ATOM     12  C   UNL     1      -0.849  10.336  23.225  0.00  0.00    +0.000 A 
ATOM     13  C   UNL     1      -1.713  11.400  22.971  0.00  0.00    +0.000 A 
ATOM     14  C   UNL     1      -1.638  12.075  21.758  0.00  0.00    +0.000 A 
ATOM     15  C   UNL     1      -0.702  11.684  20.799  0.00  0.00    +0.000 A 
ENDBRANCH   5  10
BRANCH   8  16
ATOM     16  C   UNL     1       2.933   4.556  18.164  0.00  0.00    +0.000 A 
ATOM     17  C   UNL     1       1.932   3.617  17.914  0.00  0.00    +0.000 A 
ATOM     18  C   UNL     1       2.138   2.283  18.257  0.00  0.00    +0.000 A 
ATOM     19  C   UNL     1       3.342   1.934  18.846  0.00  0.00    +0.000 A 
ATOM     20  N   UNL     1       4.334   2.813  19.107  0.00  0.00    +0.000 NA
ATOM     21  C   UNL     1       4.112   4.100  18.748  0.00  0.00    +0.000 A 
ENDBRANCH   8  16
TORSDOF 2
ENDMDL
MODEL 5
REMARK VINA RESULT:      -6.9      2.956      3.985
REMARK  Name = 
REMARK  2 active torsions:
REMARK  status: ('A' for Active; 'I' for Inactive)
REMARK    1  A    between atoms: N_5  and  C_6
REMARK    2  A    between atoms: C_14  and  C_15
REMARK                            x       y       z     vdW  Elec       q    Type
REMARK                         _______ _______ _______ _____ _____    ______ ____
ROOT
ATOM      1  O   UNL     1       1.826   6.855  20.670  0.00  0.00    +0.000 OA
ATOM      2  C   UNL     1       1.637   7.887  20.046  0.00  0.00    +0.000 C 
ATOM      3  N   UNL     1       0.982   8.983  20.549  0.00  0.00    +0.000 NA
ATOM      4  C   UNL     1       0.974   9.998  19.753  0.00  0.00    +0.000 C 
ATOM      5  N   UNL     1       0.450  11.236  19.977  0.00  0.00    +0.000 N 
ATOM      6  S   UNL     1       1.757   9.752  18.203  0.00  0.00    +0.000 S 
ATOM      7  C   UNL     1       2.099   8.116  18.643  0.00  0.00    +0.000 C 
ATOM      8  C   UNL     1       2.690   7.240  17.818  0.00  0.00    +0.000 C 
ATOM      9  H   UNL     1       0.708  11.980  19.343  0.00  0.00    +0.000 HD
ENDROOT
BRANCH   5  10
ATOM     10  C   UNL     1      -0.590  11.541  20.869  0.00  0.00    +0.000 A 
ATOM     11  C   UNL     1      -1.712  12.241  20.404  0.00  0.00    +0.000 A 
ATOM     12  C   UNL     1      -2.744  12.602  21.276  0.00  0.00    +0.000 A 
ATOM     13  C   UNL     1      -2.672  12.257  22.624  0.00  0.00    +0.000 A 
ATOM     14  C   UNL     1      -1.562  11.570  23.103  0.00  0.00    +0.000 A 
ATOM     15  C   UNL     1      -0.523  11.232  22.234  0.00  0.00    +0.000 A 
ENDBRANCH   5  10
BRANCH   8  16
ATOM     16  C   UNL     1       3.049   5.863  18.165  0.00  0.00    +0.000 A 
ATOM     17  C   UNL     1       2.143   4.825  17.950  0.00  0.00    +0.000 A 
ATOM     18  C   UNL     1       2.490   3.523  18.303  0.00  0.00    +0.000 A 
ATOM     19  C   UNL     1       3.736   3.305  18.869  0.00  0.00    +0.000 A 
ATOM     20  N   UNL     1       4.639   4.283  19.096  0.00  0.00    +0.000 NA
ATOM     21  C   UNL     1       4.280   5.537  18.727  0.00  0.00    +0.000 A 
ENDBRANCH   8  16
TORSDOF 2
ENDMDL
MODEL 6
REMARK VINA RESULT:      -6.9      3.653      8.228
REMARK  Name = 
REMARK  2 active torsions:
REMARK  status: ('A' for Active; 'I' for Inactive)
REMARK    1  A    between atoms: N_5  and  C_6
REMARK    2  A    between atoms: C_14  and  C_15
REMARK                            x       y       z     vdW  Elec       q    Type
REMARK                         _______ _______ _______ _____ _____    ______ ____
ROOT
ATOM      1  O   UNL     1       3.094   4.241  17.214  0.00  0.00    +0.000 OA
ATOM      2  C   UNL     1       4.297   4.443  17.173  0.00  0.00    +0.000 C 
ATOM      3  N   UNL     1       5.001   4.672  16.017  0.00  0.00    +0.000 NA
ATOM      4  C   UNL     1       6.246   4.952  16.210  0.00  0.00    +0.000 C 
ATOM      5  N   UNL     1       7.188   5.271  15.278  0.00  0.00    +0.000 N 
ATOM      6  S   UNL     1       6.775   4.943  17.881  0.00  0.00    +0.000 S 
ATOM      7  C   UNL     1       5.185   4.481  18.375  0.00  0.00    +0.000 C 
ATOM      8  C   UNL     1       4.856   4.216  19.648  0.00  0.00    +0.000 C 
ATOM      9  H   UNL     1       8.059   5.668  15.604  0.00  0.00    +0.000 HD
ENDROOT
BRANCH   5  10
ATOM     10  C   UNL     1       7.165   4.901  13.923  0.00  0.00    +0.000 A 
ATOM     11  C   UNL     1       6.388   3.806  13.522  0.00  0.00    +0.000 A 
ATOM     12  C   UNL     1       6.380   3.383  12.190  0.00  0.00    +0.000 A 
ATOM     13  C   UNL     1       7.141   4.058  11.237  0.00  0.00    +0.000 A 
ATOM     14  C   UNL     1       7.924   5.141  11.621  0.00  0.00    +0.000 A 
ATOM     15  C   UNL     1       7.948   5.546  12.957  0.00  0.00    +0.000 A 
ENDBRANCH   5  10
BRANCH   8  16
ATOM     16  C   UNL     1       3.513   3.876  20.120  0.00  0.00    +0.000 A 
ATOM     17  C   UNL     1       2.572   4.880  20.348  0.00  0.00    +0.000 A 
ATOM     18  C   UNL     1       1.304   4.542  20.816  0.00  0.00    +0.000 A 
ATOM     19  C   UNL     1       1.022   3.206  21.046  0.00  0.00    +0.000 A 
ATOM     20  N   UNL     1       1.905   2.205  20.840  0.00  0.00    +0.000 NA
ATOM     21  C   UNL     1       3.125   2.562  20.369  0.00  0.00    +0.000 A 
ENDBRANCH   8  16
TORSDOF 2
ENDMDL
MODEL 7
REMARK VINA RESULT:      -6.8      1.158      1.570
REMARK  Name = 
REMARK  2 active torsions:
REMARK  status: ('A' for Active; 'I' for Inactive)
REMARK    1  A    between atoms: N_5  and  C_6
REMARK    2  A    between atoms: C_14  and  C_15
REMARK                            x       y       z     vdW  Elec       q    Type
REMARK                         _______ _______ _______ _____ _____    ______ ____
ROOT
ATOM      1  O   UNL     1       3.810   6.957  17.813  0.00  0.00    +0.000 OA
ATOM      2  C   UNL     1       3.178   6.627  18.804  0.00  0.00    +0.000 C 
ATOM      3  N   UNL     1       2.239   7.417  19.418  0.00  0.00    +0.000 NA
ATOM      4  C   UNL     1       1.627   6.838  20.395  0.00  0.00    +0.000 C 
ATOM      5  N   UNL     1       0.620   7.336  21.167  0.00  0.00    +0.000 N 
ATOM      6  S   UNL     1       2.145   5.201  20.750  0.00  0.00    +0.000 S 
ATOM      7  C   UNL     1       3.326   5.309  19.493  0.00  0.00    +0.000 C 
ATOM      8  C   UNL     1       4.205   4.333  19.222  0.00  0.00    +0.000 C 
ATOM      9  H   UNL     1       0.106   6.688  21.749  0.00  0.00    +0.000 HD
ENDROOT
BRANCH   5  10
ATOM     10  C   UNL     1       0.361   8.695  21.409  0.00  0.00    +0.000 A 
ATOM     11  C   UNL     1      -0.220   9.078  22.625  0.00  0.00    +0.000 A 
ATOM     12  C   UNL     1      -0.534  10.417  22.879  0.00  0.00    +0.000 A 
ATOM     13  C   UNL     1      -0.259  11.392  21.923  0.00  0.00    +0.000 A 
ATOM     14  C   UNL     1       0.310  11.027  20.708  0.00  0.00    +0.000 A 
ATOM     15  C   UNL     1       0.600   9.686  20.449  0.00  0.00    +0.000 A 
ENDBRANCH   5  10
BRANCH   8  16
ATOM     16  C   UNL     1       5.184   4.358  18.134  0.00  0.00    +0.000 A 
ATOM     17  C   UNL     1       6.476   4.834  18.361  0.00  0.00    +0.000 A 
ATOM     18  C   UNL     1       7.391   4.870  17.311  0.00  0.00    +0.000 A 
ATOM     19  C   UNL     1       6.978   4.431  16.064  0.00  0.00    +0.000 A 
ATOM     20  N   UNL     1       5.737   3.966  15.803  0.00  0.00    +0.000 NA
ATOM     21  C   UNL     1       4.874   3.927  16.847  0.00  0.00    +0.000 A 
ENDBRANCH   8  16
TORSDOF 2
ENDMDL
MODEL 8
REMARK VINA RESULT:      -6.8      3.018      3.812
REMARK  Name = 
REMARK  2 active torsions:
REMARK  status: ('A' for Active; 'I' for Inactive)
REMARK    1  A    between atoms: N_5  and  C_6
REMARK    2  A    between atoms: C_14  and  C_15
REMARK                            x       y       z     vdW  Elec       q    Type
REMARK                         _______ _______ _______ _____ _____    ______ ____
ROOT
ATOM      1  O   UNL     1       1.962   5.635  20.770  0.00  0.00    +0.000 OA
ATOM      2  C   UNL     1       1.863   6.680  20.148  0.00  0.00    +0.000 C 
ATOM      3  N   UNL     1       1.368   7.846  20.674  0.00  0.00    +0.000 NA
ATOM      4  C   UNL     1       1.438   8.854  19.870  0.00  0.00    +0.000 C 
ATOM      5  N   UNL     1       1.074  10.145  20.110  0.00  0.00    +0.000 N 
ATOM      6  S   UNL     1       2.105   8.514  18.285  0.00  0.00    +0.000 S 
ATOM      7  C   UNL     1       2.275   6.850  18.721  0.00  0.00    +0.000 C 
ATOM      8  C   UNL     1       2.717   5.908  17.875  0.00  0.00    +0.000 C 
ATOM      9  H   UNL     1       1.385  10.852  19.457  0.00  0.00    +0.000 HD
ENDROOT
BRANCH   5  10
ATOM     10  C   UNL     1       0.124  10.573  21.052  0.00  0.00    +0.000 A 
ATOM     11  C   UNL     1      -0.710  11.656  20.744  0.00  0.00    +0.000 A 
ATOM     12  C   UNL     1      -1.634  12.137  21.676  0.00  0.00    +0.000 A 
ATOM     13  C   UNL     1      -1.743  11.533  22.927  0.00  0.00    +0.000 A 
ATOM     14  C   UNL     1      -0.918  10.462  23.251  0.00  0.00    +0.000 A 
ATOM     15  C   UNL     1       0.020  10.000  22.326  0.00  0.00    +0.000 A 
ENDBRANCH   5  10
BRANCH   8  16
ATOM     16  C   UNL     1       2.929   4.500  18.215  0.00  0.00    +0.000 A 
ATOM     17  C   UNL     1       4.117   4.095  18.825  0.00  0.00    +0.000 A 
ATOM     18  C   UNL     1       4.313   2.749  19.125  0.00  0.00    +0.000 A 
ATOM     19  C   UNL     1       3.311   1.849  18.798  0.00  0.00    +0.000 A 
ATOM     20  N   UNL     1       2.149   2.201  18.205  0.00  0.00    +0.000 NA
ATOM     21  C   UNL     1       1.980   3.519  17.940  0.00  0.00    +0.000 A 
ENDBRANCH   8  16
TORSDOF 2
ENDMDL
MODEL 9
REMARK VINA RESULT:      -6.8      3.672      8.254
REMARK  Name = 
REMARK  2 active torsions:
REMARK  status: ('A' for Active; 'I' for Inactive)
REMARK    1  A    between atoms: N_5  and  C_6
REMARK    2  A    between atoms: C_14  and  C_15
REMARK                            x       y       z     vdW  Elec       q    Type
REMARK                         _______ _______ _______ _____ _____    ______ ____
ROOT
ATOM      1  O   UNL     1       3.051   4.022  17.254  0.00  0.00    +0.000 OA
ATOM      2  C   UNL     1       4.223   4.361  17.206  0.00  0.00    +0.000 C 
ATOM      3  N   UNL     1       4.917   4.573  16.042  0.00  0.00    +0.000 NA
ATOM      4  C   UNL     1       6.117   5.013  16.221  0.00  0.00    +0.000 C 
ATOM      5  N   UNL     1       7.034   5.360  15.274  0.00  0.00    +0.000 N 
ATOM      6  S   UNL     1       6.612   5.206  17.892  0.00  0.00    +0.000 S 
ATOM      7  C   UNL     1       5.077   4.603  18.410  0.00  0.00    +0.000 C 
ATOM      8  C   UNL     1       4.757   4.410  19.697  0.00  0.00    +0.000 C 
ATOM      9  H   UNL     1       7.846   5.883  15.573  0.00  0.00    +0.000 HD
ENDROOT
BRANCH   5  10
ATOM     10  C   UNL     1       7.080   4.878  13.956  0.00  0.00    +0.000 A 
ATOM     11  C   UNL     1       7.861   5.550  13.006  0.00  0.00    +0.000 A 
ATOM     12  C   UNL     1       7.893   5.124  11.674  0.00  0.00    +0.000 A 
ATOM     13  C   UNL     1       7.152   4.012  11.278  0.00  0.00    +0.000 A 
ATOM     14  C   UNL     1       6.366   3.340  12.207  0.00  0.00    +0.000 A 
ATOM     15  C   UNL     1       6.319   3.783  13.531  0.00  0.00    +0.000 A 
ENDBRANCH   5  10
BRANCH   8  16
ATOM     16  C   UNL     1       3.454   3.955  20.184  0.00  0.00    +0.000 A 
ATOM     17  C   UNL     1       2.391   4.852  20.293  0.00  0.00    +0.000 A 
ATOM     18  C   UNL     1       1.162   4.408  20.776  0.00  0.00    +0.000 A 
ATOM     19  C   UNL     1       1.040   3.078  21.142  0.00  0.00    +0.000 A 
ATOM     20  N   UNL     1       2.045   2.180  21.054  0.00  0.00    +0.000 NA
ATOM     21  C   UNL     1       3.224   2.636  20.565  0.00  0.00    +0.000 A 
ENDBRANCH   8  16
TORSDOF 2
ENDMDL
