MODEL 1
REMARK VINA RESULT:      -7.6      0.000      0.000
REMARK  Name = 
REMARK  8 active torsions:
REMARK  status: ('A' for Active; 'I' for Inactive)
REMARK    1  A    between atoms: C_1  and  C_2
REMARK    2  A    between atoms: C_2  and  C_3
REMARK    3  A    between atoms: C_2  and  C_4
REMARK    4  A    between atoms: C_2  and  C_5
REMARK    5  A    between atoms: C_8  and  N_9
REMARK    6  A    between atoms: C_10  and  C_12
REMARK    7  A    between atoms: C_12  and  C_13
REMARK    8  A    between atoms: C_18  and  C_20
REMARK                            x       y       z     vdW  Elec       q    Type
REMARK                         _______ _______ _______ _____ _____    ______ ____
ROOT
ATOM      1  N   UNL     1       2.306   6.613  20.639  0.00  0.00    +0.000 N 
ATOM      2  C   UNL     1       1.685   5.374  20.725  0.00  0.00    +0.000 C 
ATOM      3  O   UNL     1       0.511   5.128  20.450  0.00  0.00    +0.000 OA
ATOM      4  H   UNL     1       3.306   6.649  20.802  0.00  0.00    +0.000 HD
ENDROOT
BRANCH   1   8
ATOM      5  C   UNL     1       0.316  10.249  19.652  0.00  0.00    +0.000 A 
ATOM      6  C   UNL     1       1.167   9.614  18.735  0.00  0.00    +0.000 A 
ATOM      7  C   UNL     1       1.825   8.422  19.042  0.00  0.00    +0.000 A 
ATOM      8  C   UNL     1       1.678   7.827  20.292  0.00  0.00    +0.000 A 
ATOM      9  C   UNL     1       0.859   8.454  21.233  0.00  0.00    +0.000 A 
ATOM     10  C   UNL     1       0.205   9.659  20.923  0.00  0.00    +0.000 A 
BRANCH   5  12
ATOM     11  C   UNL     1      -1.481  11.230  18.134  0.00  0.00    +0.000 C 
ATOM     12  C   UNL     1      -0.448  11.524  19.250  0.00  0.00    +0.000 C 
ATOM     13  C   UNL     1       0.547  12.579  18.732  0.00  0.00    +0.000 C 
ATOM     14  C   UNL     1      -1.242  12.137  20.424  0.00  0.00    +0.000 C 
ENDBRANCH   5  12
ENDBRANCH   1   8
BRANCH   2  15
ATOM     15  C   UNL     1       2.588   4.263  21.208  0.00  0.00    +0.000 C 
BRANCH  15  16
ATOM     16  C   UNL     1       3.049   3.412  20.076  0.00  0.00    +0.000 A 
ATOM     17  C   UNL     1       2.662   2.119  19.767  0.00  0.00    +0.000 A 
ATOM     18  S   UNL     1       3.395   1.630  18.290  0.00  0.00    +0.000 S 
ATOM     19  C   UNL     1       4.202   3.128  18.220  0.00  0.00    +0.000 A 
ATOM     20  N   UNL     1       5.019   3.298  17.139  0.00  0.00    +0.000 N 
ATOM     21  C   UNL     1       5.830   4.398  17.027  0.00  0.00    +0.000 C 
ATOM     22  O   UNL     1       5.993   5.282  17.858  0.00  0.00    +0.000 OA
ATOM     23  N   UNL     1       3.954   3.967  19.189  0.00  0.00    +0.000 NA
ATOM     24  H   UNL     1       5.001   2.578  16.435  0.00  0.00    +0.000 HD
BRANCH  21  25
ATOM     25  C   UNL     1       6.600   4.512  15.755  0.00  0.00    +0.000 C 
ATOM     26  C   UNL     1       6.272   3.866  14.435  0.00  0.00    +0.000 C 
ATOM     27  C   UNL     1       6.011   5.330  14.629  0.00  0.00    +0.000 C 
ENDBRANCH  21  25
ENDBRANCH  15  16
ENDBRANCH   2  15
TORSDOF 5
ENDMDL
MODEL 2
REMARK VINA RESULT:      -7.6      3.895      8.278
REMARK  Name = 
REMARK  8 active torsions:
REMARK  status: ('A' for Active; 'I' for Inactive)
REMARK    1  A    between atoms: C_1  and  C_2
REMARK    2  A    between atoms: C_2  and  C_3
REMARK    3  A    between atoms: C_2  and  C_4
REMARK    4  A    between atoms: C_2  and  C_5
REMARK    5  A    between atoms: C_8  and  N_9
REMARK    6  A    between atoms: C_10  and  C_12
REMARK    7  A    between atoms: C_12  and  C_13
REMARK    8  A    between atoms: C_18  and  C_20
REMARK                            x       y       z     vdW  Elec       q    Type
REMARK                         _______ _______ _______ _____ _____    ______ ____
ROOT
ATOM      1  N   UNL     1       1.406   8.718  20.875  0.00  0.00    +0.000 N 
ATOM      2  C   UNL     1       0.209   8.863  21.564  0.00  0.00    +0.000 C 
ATOM      3  O   UNL     1      -0.652   7.998  21.718  0.00  0.00    +0.000 OA
ATOM      4  H   UNL     1       2.067   9.486  20.916  0.00  0.00    +0.000 HD
ENDROOT
BRANCH   1   8
ATOM      5  C   UNL     1       2.676   5.208  18.820  0.00  0.00    +0.000 A 
ATOM      6  C   UNL     1       2.708   6.466  18.199  0.00  0.00    +0.000 A 
ATOM      7  C   UNL     1       2.297   7.625  18.859  0.00  0.00    +0.000 A 
ATOM      8  C   UNL     1       1.812   7.571  20.163  0.00  0.00    +0.000 A 
ATOM      9  C   UNL     1       1.743   6.328  20.794  0.00  0.00    +0.000 A 
ATOM     10  C   UNL     1       2.151   5.161  20.123  0.00  0.00    +0.000 A 
BRANCH   5  12
ATOM     11  C   UNL     1       4.130   4.360  16.906  0.00  0.00    +0.000 C 
ATOM     12  C   UNL     1       3.205   3.964  18.085  0.00  0.00    +0.000 C 
ATOM     13  C   UNL     1       2.021   3.152  17.528  0.00  0.00    +0.000 C 
ATOM     14  C   UNL     1       4.042   3.042  18.999  0.00  0.00    +0.000 C 
ENDBRANCH   5  12
ENDBRANCH   1   8
BRANCH   2  15
ATOM     15  C   UNL     1       0.002  10.236  22.160  0.00  0.00    +0.000 C 
BRANCH  15  16
ATOM     16  C   UNL     1      -0.189  11.262  21.098  0.00  0.00    +0.000 A 
ATOM     17  C   UNL     1       0.225  12.584  21.103  0.00  0.00    +0.000 A 
ATOM     18  S   UNL     1      -0.134  13.312  19.588  0.00  0.00    +0.000 S 
ATOM     19  C   UNL     1      -0.856  11.855  19.083  0.00  0.00    +0.000 A 
ATOM     20  N   UNL     1      -1.375  11.870  17.820  0.00  0.00    +0.000 N 
ATOM     21  C   UNL     1      -2.102  10.812  17.338  0.00  0.00    +0.000 C 
ATOM     22  O   UNL     1      -2.440   9.808  17.952  0.00  0.00    +0.000 OA
ATOM     23  N   UNL     1      -0.831  10.868  19.939  0.00  0.00    +0.000 NA
ATOM     24  H   UNL     1      -1.204  12.692  17.266  0.00  0.00    +0.000 HD
BRANCH  21  25
ATOM     25  C   UNL     1      -2.531  10.912  15.914  0.00  0.00    +0.000 C 
ATOM     26  C   UNL     1      -3.113   9.815  15.062  0.00  0.00    +0.000 C 
ATOM     27  C   UNL     1      -4.011  10.887  15.605  0.00  0.00    +0.000 C 
ENDBRANCH  21  25
ENDBRANCH  15  16
ENDBRANCH   2  15
TORSDOF 5
ENDMDL
MODEL 3
REMARK VINA RESULT:      -7.6      5.841      7.449
REMARK  Name = 
REMARK  8 active torsions:
REMARK  status: ('A' for Active; 'I' for Inactive)
REMARK    1  A    between atoms: C_1  and  C_2
REMARK    2  A    between atoms: C_2  and  C_3
REMARK    3  A    between atoms: C_2  and  C_4
REMARK    4  A    between atoms: C_2  and  C_5
REMARK    5  A    between atoms: C_8  and  N_9
REMARK    6  A    between atoms: C_10  and  C_12
REMARK    7  A    between atoms: C_12  and  C_13
REMARK    8  A    between atoms: C_18  and  C_20
REMARK                            x       y       z     vdW  Elec       q    Type
REMARK                         _______ _______ _______ _____ _____    ______ ____
ROOT
ATOM      1  N   UNL     1       8.760   8.412  19.077  0.00  0.00    +0.000 N 
ATOM      2  C   UNL     1       8.052   7.610  18.192  0.00  0.00    +0.000 C 
ATOM      3  O   UNL     1       7.584   7.959  17.108  0.00  0.00    +0.000 OA
ATOM      4  H   UNL     1       9.174   7.965  19.888  0.00  0.00    +0.000 HD
ENDROOT
BRANCH   1   8
ATOM      5  C   UNL     1       9.490  12.595  18.726  0.00  0.00    +0.000 A 
ATOM      6  C   UNL     1       8.776  11.897  17.741  0.00  0.00    +0.000 A 
ATOM      7  C   UNL     1       8.528  10.527  17.841  0.00  0.00    +0.000 A 
ATOM      8  C   UNL     1       9.005   9.792  18.923  0.00  0.00    +0.000 A 
ATOM      9  C   UNL     1       9.743  10.458  19.903  0.00  0.00    +0.000 A 
ATOM     10  C   UNL     1       9.998  11.836  19.794  0.00  0.00    +0.000 A 
BRANCH   5  12
ATOM     11  C   UNL     1      10.727  14.474  17.528  0.00  0.00    +0.000 C 
ATOM     12  C   UNL     1       9.681  14.118  18.615  0.00  0.00    +0.000 C 
ATOM     13  C   UNL     1      10.168  14.676  19.965  0.00  0.00    +0.000 C 
ATOM     14  C   UNL     1       8.382  14.855  18.222  0.00  0.00    +0.000 C 
ENDBRANCH   5  12
ENDBRANCH   1   8
BRANCH   2  15
ATOM     15  C   UNL     1       7.870   6.185  18.659  0.00  0.00    +0.000 C 
BRANCH  15  16
ATOM     16  C   UNL     1       6.847   5.475  17.843  0.00  0.00    +0.000 A 
ATOM     17  C   UNL     1       6.999   4.906  16.589  0.00  0.00    +0.000 A 
ATOM     18  S   UNL     1       5.550   4.102  16.135  0.00  0.00    +0.000 S 
ATOM     19  C   UNL     1       4.832   4.623  17.589  0.00  0.00    +0.000 A 
ATOM     20  N   UNL     1       3.534   4.234  17.767  0.00  0.00    +0.000 N 
ATOM     21  C   UNL     1       2.794   4.695  18.827  0.00  0.00    +0.000 C 
ATOM     22  O   UNL     1       3.135   5.527  19.658  0.00  0.00    +0.000 OA
ATOM     23  N   UNL     1       5.587   5.324  18.391  0.00  0.00    +0.000 NA
ATOM     24  H   UNL     1       3.148   3.602  17.086  0.00  0.00    +0.000 HD
BRANCH  21  25
ATOM     25  C   UNL     1       1.425   4.122  18.962  0.00  0.00    +0.000 C 
ATOM     26  C   UNL     1       1.033   2.673  18.843  0.00  0.00    +0.000 C 
ATOM     27  C   UNL     1       1.102   3.313  20.198  0.00  0.00    +0.000 C 
ENDBRANCH  21  25
ENDBRANCH  15  16
ENDBRANCH   2  15
TORSDOF 5
ENDMDL
MODEL 4
REMARK VINA RESULT:      -7.5      2.039      2.656
REMARK  Name = 
REMARK  8 active torsions:
REMARK  status: ('A' for Active; 'I' for Inactive)
REMARK    1  A    between atoms: C_1  and  C_2
REMARK    2  A    between atoms: C_2  and  C_3
REMARK    3  A    between atoms: C_2  and  C_4
REMARK    4  A    between atoms: C_2  and  C_5
REMARK    5  A    between atoms: C_8  and  N_9
REMARK    6  A    between atoms: C_10  and  C_12
REMARK    7  A    between atoms: C_12  and  C_13
REMARK    8  A    between atoms: C_18  and  C_20
REMARK                            x       y       z     vdW  Elec       q    Type
REMARK                         _______ _______ _______ _____ _____    ______ ____
ROOT
ATOM      1  N   UNL     1       3.065   6.500  19.220  0.00  0.00    +0.000 N 
ATOM      2  C   UNL     1       2.751   5.276  18.645  0.00  0.00    +0.000 C 
ATOM      3  O   UNL     1       1.761   5.027  17.958  0.00  0.00    +0.000 OA
ATOM      4  H   UNL     1       3.966   6.588  19.677  0.00  0.00    +0.000 HD
ENDROOT
BRANCH   1   8
ATOM      5  C   UNL     1       0.564   9.950  19.181  0.00  0.00    +0.000 A 
ATOM      6  C   UNL     1       1.243   9.531  18.027  0.00  0.00    +0.000 A 
ATOM      7  C   UNL     1       2.065   8.403  18.022  0.00  0.00    +0.000 A 
ATOM      8  C   UNL     1       2.261   7.658  19.182  0.00  0.00    +0.000 A 
ATOM      9  C   UNL     1       1.620   8.070  20.352  0.00  0.00    +0.000 A 
ATOM     10  C   UNL     1       0.799   9.212  20.354  0.00  0.00    +0.000 A 
BRANCH   5  12
ATOM     11  C   UNL     1       0.344  12.430  18.636  0.00  0.00    +0.000 C 
ATOM     12  C   UNL     1      -0.389  11.157  19.127  0.00  0.00    +0.000 C 
ATOM     13  C   UNL     1      -0.956  11.429  20.533  0.00  0.00    +0.000 C 
ATOM     14  C   UNL     1      -1.573  10.939  18.159  0.00  0.00    +0.000 C 
ENDBRANCH   5  12
ENDBRANCH   1   8
BRANCH   2  15
ATOM     15  C   UNL     1       3.761   4.186  18.922  0.00  0.00    +0.000 C 
BRANCH  15  16
ATOM     16  C   UNL     1       5.115   4.568  18.435  0.00  0.00    +0.000 A 
ATOM     17  C   UNL     1       6.177   5.067  19.170  0.00  0.00    +0.000 A 
ATOM     18  S   UNL     1       7.558   5.231  18.160  0.00  0.00    +0.000 S 
ATOM     19  C   UNL     1       6.627   4.695  16.838  0.00  0.00    +0.000 A 
ATOM     20  N   UNL     1       7.292   4.634  15.646  0.00  0.00    +0.000 N 
ATOM     21  C   UNL     1       6.631   4.350  14.478  0.00  0.00    +0.000 C 
ATOM     22  O   UNL     1       5.424   4.205  14.330  0.00  0.00    +0.000 OA
ATOM     23  N   UNL     1       5.384   4.385  17.091  0.00  0.00    +0.000 NA
ATOM     24  H   UNL     1       8.282   4.811  15.665  0.00  0.00    +0.000 HD
BRANCH  21  25
ATOM     25  C   UNL     1       7.484   4.218  13.263  0.00  0.00    +0.000 C 
ATOM     26  C   UNL     1       7.018   4.045  11.842  0.00  0.00    +0.000 C 
ATOM     27  C   UNL     1       7.539   5.377  12.294  0.00  0.00    +0.000 C 
ENDBRANCH  21  25
ENDBRANCH  15  16
ENDBRANCH   2  15
TORSDOF 5
ENDMDL
MODEL 5
REMARK VINA RESULT:      -7.5      4.041      8.296
REMARK  Name = 
REMARK  8 active torsions:
REMARK  status: ('A' for Active; 'I' for Inactive)
REMARK    1  A    between atoms: C_1  and  C_2
REMARK    2  A    between atoms: C_2  and  C_3
REMARK    3  A    between atoms: C_2  and  C_4
REMARK    4  A    between atoms: C_2  and  C_5
REMARK    5  A    between atoms: C_8  and  N_9
REMARK    6  A    between atoms: C_10  and  C_12
REMARK    7  A    between atoms: C_12  and  C_13
REMARK    8  A    between atoms: C_18  and  C_20
REMARK                            x       y       z     vdW  Elec       q    Type
REMARK                         _______ _______ _______ _____ _____    ______ ____
ROOT
ATOM      1  N   UNL     1       1.050   9.127  20.887  0.00  0.00    +0.000 N 
ATOM      2  C   UNL     1      -0.115   9.097  21.641  0.00  0.00    +0.000 C 
ATOM      3  O   UNL     1      -0.780   8.098  21.915  0.00  0.00    +0.000 OA
ATOM      4  H   UNL     1       1.548  10.008  20.827  0.00  0.00    +0.000 HD
ENDROOT
BRANCH   1   8
ATOM      5  C   UNL     1       2.780   5.829  18.816  0.00  0.00    +0.000 A 
ATOM      6  C   UNL     1       2.311   5.696  20.132  0.00  0.00    +0.000 A 
ATOM      7  C   UNL     1       1.741   6.766  20.824  0.00  0.00    +0.000 A 
ATOM      8  C   UNL     1       1.637   8.024  20.235  0.00  0.00    +0.000 A 
ATOM      9  C   UNL     1       2.123   8.190  18.937  0.00  0.00    +0.000 A 
ATOM     10  C   UNL     1       2.704   7.112  18.246  0.00  0.00    +0.000 A 
BRANCH   5  12
ATOM     11  C   UNL     1       4.250   5.043  16.888  0.00  0.00    +0.000 C 
ATOM     12  C   UNL     1       3.337   4.609  18.062  0.00  0.00    +0.000 C 
ATOM     13  C   UNL     1       2.172   3.777  17.495  0.00  0.00    +0.000 C 
ATOM     14  C   UNL     1       4.197   3.694  18.962  0.00  0.00    +0.000 C 
ENDBRANCH   5  12
ENDBRANCH   1   8
BRANCH   2  15
ATOM     15  C   UNL     1      -0.558  10.450  22.148  0.00  0.00    +0.000 C 
BRANCH  15  16
ATOM     16  C   UNL     1      -0.690  11.427  21.033  0.00  0.00    +0.000 A 
ATOM     17  C   UNL     1      -0.338  12.766  21.025  0.00  0.00    +0.000 A 
ATOM     18  S   UNL     1      -0.578  13.423  19.454  0.00  0.00    +0.000 S 
ATOM     19  C   UNL     1      -1.180  11.915  18.941  0.00  0.00    +0.000 A 
ATOM     20  N   UNL     1      -1.572  11.861  17.633  0.00  0.00    +0.000 N 
ATOM     21  C   UNL     1      -2.199  10.752  17.125  0.00  0.00    +0.000 C 
ATOM     22  O   UNL     1      -2.550   9.755  17.743  0.00  0.00    +0.000 OA
ATOM     23  N   UNL     1      -1.195  10.961  19.833  0.00  0.00    +0.000 NA
ATOM     24  H   UNL     1      -1.384  12.670  17.066  0.00  0.00    +0.000 HD
BRANCH  21  25
ATOM     25  C   UNL     1      -2.489  10.781  15.663  0.00  0.00    +0.000 C 
ATOM     26  C   UNL     1      -3.221   9.736  14.863  0.00  0.00    +0.000 C 
ATOM     27  C   UNL     1      -3.914  11.019  15.217  0.00  0.00    +0.000 C 
ENDBRANCH  21  25
ENDBRANCH  15  16
ENDBRANCH   2  15
TORSDOF 5
ENDMDL
MODEL 6
REMARK VINA RESULT:      -7.4      6.154      7.713
REMARK  Name = 
REMARK  8 active torsions:
REMARK  status: ('A' for Active; 'I' for Inactive)
REMARK    1  A    between atoms: C_1  and  C_2
REMARK    2  A    between atoms: C_2  and  C_3
REMARK    3  A    between atoms: C_2  and  C_4
REMARK    4  A    between atoms: C_2  and  C_5
REMARK    5  A    between atoms: C_8  and  N_9
REMARK    6  A    between atoms: C_10  and  C_12
REMARK    7  A    between atoms: C_12  and  C_13
REMARK    8  A    between atoms: C_18  and  C_20
REMARK                            x       y       z     vdW  Elec       q    Type
REMARK                         _______ _______ _______ _____ _____    ______ ____
ROOT
ATOM      1  N   UNL     1       8.934   8.645  19.148  0.00  0.00    +0.000 N 
ATOM      2  C   UNL     1       8.087   7.999  18.258  0.00  0.00    +0.000 C 
ATOM      3  O   UNL     1       7.487   8.518  17.317  0.00  0.00    +0.000 OA
ATOM      4  H   UNL     1       9.441   8.073  19.814  0.00  0.00    +0.000 HD
ENDROOT
BRANCH   1   8
ATOM      5  C   UNL     1       9.799  12.818  19.140  0.00  0.00    +0.000 A 
ATOM      6  C   UNL     1       9.640  12.111  20.341  0.00  0.00    +0.000 A 
ATOM      7  C   UNL     1       9.358  10.743  20.361  0.00  0.00    +0.000 A 
ATOM      8  C   UNL     1       9.199  10.030  19.176  0.00  0.00    +0.000 A 
ATOM      9  C   UNL     1       9.323  10.716  17.967  0.00  0.00    +0.000 A 
ATOM     10  C   UNL     1       9.599  12.094  17.951  0.00  0.00    +0.000 A 
BRANCH   5  12
ATOM     11  C   UNL     1       9.584  15.056  17.940  0.00  0.00    +0.000 C 
ATOM     12  C   UNL     1      10.180  14.309  19.160  0.00  0.00    +0.000 C 
ATOM     13  C   UNL     1      11.713  14.449  19.121  0.00  0.00    +0.000 C 
ATOM     14  C   UNL     1       9.655  15.041  20.414  0.00  0.00    +0.000 C 
ENDBRANCH   5  12
ENDBRANCH   1   8
BRANCH   2  15
ATOM     15  C   UNL     1       7.926   6.520  18.521  0.00  0.00    +0.000 C 
BRANCH  15  16
ATOM     16  C   UNL     1       6.838   5.939  17.687  0.00  0.00    +0.000 A 
ATOM     17  C   UNL     1       6.885   5.583  16.350  0.00  0.00    +0.000 A 
ATOM     18  S   UNL     1       5.402   4.843  15.892  0.00  0.00    +0.000 S 
ATOM     19  C   UNL     1       4.808   5.112  17.465  0.00  0.00    +0.000 A 
ATOM     20  N   UNL     1       3.531   4.682  17.685  0.00  0.00    +0.000 N 
ATOM     21  C   UNL     1       2.882   4.955  18.863  0.00  0.00    +0.000 C 
ATOM     22  O   UNL     1       3.291   5.646  19.787  0.00  0.00    +0.000 OA
ATOM     23  N   UNL     1       5.628   5.684  18.306  0.00  0.00    +0.000 NA
ATOM     24  H   UNL     1       3.089   4.164  16.944  0.00  0.00    +0.000 HD
BRANCH  21  25
ATOM     25  C   UNL     1       1.529   4.349  19.016  0.00  0.00    +0.000 C 
ATOM     26  C   UNL     1       1.108   2.957  18.623  0.00  0.00    +0.000 C 
ATOM     27  C   UNL     1       1.332   3.285  20.071  0.00  0.00    +0.000 C 
ENDBRANCH  21  25
ENDBRANCH  15  16
ENDBRANCH   2  15
TORSDOF 5
ENDMDL
MODEL 7
REMARK VINA RESULT:      -7.4      4.120      8.383
REMARK  Name = 
REMARK  8 active torsions:
REMARK  status: ('A' for Active; 'I' for Inactive)
REMARK    1  A    between atoms: C_1  and  C_2
REMARK    2  A    between atoms: C_2  and  C_3
REMARK    3  A    between atoms: C_2  and  C_4
REMARK    4  A    between atoms: C_2  and  C_5
REMARK    5  A    between atoms: C_8  and  N_9
REMARK    6  A    between atoms: C_10  and  C_12
REMARK    7  A    between atoms: C_12  and  C_13
REMARK    8  A    between atoms: C_18  and  C_20
REMARK                            x       y       z     vdW  Elec       q    Type
REMARK                         _______ _______ _______ _____ _____    ______ ____
ROOT
ATOM      1  N   UNL     1       0.787   9.234  20.255  0.00  0.00    +0.000 N 
ATOM      2  C   UNL     1       0.913   9.708  21.553  0.00  0.00    +0.000 C 
ATOM      3  O   UNL     1       1.813   9.431  22.345  0.00  0.00    +0.000 OA
ATOM      4  H   UNL     1       0.049   9.626  19.681  0.00  0.00    +0.000 HD
ENDROOT
BRANCH   1   8
ATOM      5  C   UNL     1       3.376   6.342  18.496  0.00  0.00    +0.000 A 
ATOM      6  C   UNL     1       3.075   7.544  17.838  0.00  0.00    +0.000 A 
ATOM      7  C   UNL     1       2.230   8.502  18.401  0.00  0.00    +0.000 A 
ATOM      8  C   UNL     1       1.630   8.286  19.639  0.00  0.00    +0.000 A 
ATOM      9  C   UNL     1       1.890   7.085  20.301  0.00  0.00    +0.000 A 
ATOM     10  C   UNL     1       2.735   6.120  19.727  0.00  0.00    +0.000 A 
BRANCH   5  12
ATOM     11  C   UNL     1       5.398   4.851  18.923  0.00  0.00    +0.000 C 
ATOM     12  C   UNL     1       4.369   5.343  17.875  0.00  0.00    +0.000 C 
ATOM     13  C   UNL     1       5.129   6.022  16.721  0.00  0.00    +0.000 C 
ATOM     14  C   UNL     1       3.675   4.078  17.324  0.00  0.00    +0.000 C 
ENDBRANCH   5  12
ENDBRANCH   1   8
BRANCH   2  15
ATOM     15  C   UNL     1      -0.188  10.652  21.976  0.00  0.00    +0.000 C 
BRANCH  15  16
ATOM     16  C   UNL     1      -0.469  11.662  20.918  0.00  0.00    +0.000 A 
ATOM     17  C   UNL     1      -0.188  13.018  20.936  0.00  0.00    +0.000 A 
ATOM     18  S   UNL     1      -0.601  13.718  19.421  0.00  0.00    +0.000 S 
ATOM     19  C   UNL     1      -1.169  12.200  18.900  0.00  0.00    +0.000 A 
ATOM     20  N   UNL     1      -1.673  12.173  17.631  0.00  0.00    +0.000 N 
ATOM     21  C   UNL     1      -2.286  11.051  17.133  0.00  0.00    +0.000 C 
ATOM     22  O   UNL     1      -2.529  10.014  17.737  0.00  0.00    +0.000 OA
ATOM     23  N   UNL     1      -1.056  11.214  19.749  0.00  0.00    +0.000 NA
ATOM     24  H   UNL     1      -1.579  13.012  17.083  0.00  0.00    +0.000 HD
BRANCH  21  25
ATOM     25  C   UNL     1      -2.707  11.119  15.705  0.00  0.00    +0.000 C 
ATOM     26  C   UNL     1      -2.942   9.960  14.773  0.00  0.00    +0.000 C 
ATOM     27  C   UNL     1      -4.115  10.697  15.349  0.00  0.00    +0.000 C 
ENDBRANCH  21  25
ENDBRANCH  15  16
ENDBRANCH   2  15
TORSDOF 5
ENDMDL
MODEL 8
REMARK VINA RESULT:      -7.4      1.988      2.733
REMARK  Name = 
REMARK  8 active torsions:
REMARK  status: ('A' for Active; 'I' for Inactive)
REMARK    1  A    between atoms: C_1  and  C_2
REMARK    2  A    between atoms: C_2  and  C_3
REMARK    3  A    between atoms: C_2  and  C_4
REMARK    4  A    between atoms: C_2  and  C_5
REMARK    5  A    between atoms: C_8  and  N_9
REMARK    6  A    between atoms: C_10  and  C_12
REMARK    7  A    between atoms: C_12  and  C_13
REMARK    8  A    between atoms: C_18  and  C_20
REMARK                            x       y       z     vdW  Elec       q    Type
REMARK                         _______ _______ _______ _____ _____    ______ ____
ROOT
ATOM      1  N   UNL     1       2.965   6.660  19.665  0.00  0.00    +0.000 N 
ATOM      2  C   UNL     1       2.854   5.481  18.940  0.00  0.00    +0.000 C 
ATOM      3  O   UNL     1       2.023   5.240  18.064  0.00  0.00    +0.000 OA
ATOM      4  H   UNL     1       3.762   6.756  20.285  0.00  0.00    +0.000 HD
ENDROOT
BRANCH   1   8
ATOM      5  C   UNL     1       0.410  10.053  19.333  0.00  0.00    +0.000 A 
ATOM      6  C   UNL     1       0.498   9.323  20.528  0.00  0.00    +0.000 A 
ATOM      7  C   UNL     1       1.331   8.210  20.654  0.00  0.00    +0.000 A 
ATOM      8  C   UNL     1       2.095   7.765  19.578  0.00  0.00    +0.000 A 
ATOM      9  C   UNL     1       2.003   8.457  18.369  0.00  0.00    +0.000 A 
ATOM     10  C   UNL     1       1.157   9.572  18.244  0.00  0.00    +0.000 A 
BRANCH   5  12
ATOM     11  C   UNL     1       0.356  12.540  18.777  0.00  0.00    +0.000 C 
ATOM     12  C   UNL     1      -0.466  11.317  19.256  0.00  0.00    +0.000 C 
ATOM     13  C   UNL     1      -1.044  11.629  20.649  0.00  0.00    +0.000 C 
ATOM     14  C   UNL     1      -1.639  11.169  18.263  0.00  0.00    +0.000 C 
ENDBRANCH   5  12
ENDBRANCH   1   8
BRANCH   2  15
ATOM     15  C   UNL     1       3.878   4.432  19.305  0.00  0.00    +0.000 C 
BRANCH  15  16
ATOM     16  C   UNL     1       5.213   4.758  18.732  0.00  0.00    +0.000 A 
ATOM     17  C   UNL     1       6.319   5.275  19.385  0.00  0.00    +0.000 A 
ATOM     18  S   UNL     1       7.651   5.355  18.301  0.00  0.00    +0.000 S 
ATOM     19  C   UNL     1       6.646   4.767  17.059  0.00  0.00    +0.000 A 
ATOM     20  N   UNL     1       7.249   4.626  15.841  0.00  0.00    +0.000 N 
ATOM     21  C   UNL     1       6.525   4.292  14.724  0.00  0.00    +0.000 C 
ATOM     22  O   UNL     1       5.311   4.164  14.644  0.00  0.00    +0.000 OA
ATOM     23  N   UNL     1       5.412   4.496  17.389  0.00  0.00    +0.000 NA
ATOM     24  H   UNL     1       8.242   4.784  15.802  0.00  0.00    +0.000 HD
BRANCH  21  25
ATOM     25  C   UNL     1       7.315   4.077  13.478  0.00  0.00    +0.000 C 
ATOM     26  C   UNL     1       6.785   4.001  12.071  0.00  0.00    +0.000 C 
ATOM     27  C   UNL     1       7.495   5.241  12.530  0.00  0.00    +0.000 C 
ENDBRANCH  21  25
ENDBRANCH  15  16
ENDBRANCH   2  15
TORSDOF 5
ENDMDL
MODEL 9
REMARK VINA RESULT:      -7.3      2.036      2.542
REMARK  Name = 
REMARK  8 active torsions:
REMARK  status: ('A' for Active; 'I' for Inactive)
REMARK    1  A    between atoms: C_1  and  C_2
REMARK    2  A    between atoms: C_2  and  C_3
REMARK    3  A    between atoms: C_2  and  C_4
REMARK    4  A    between atoms: C_2  and  C_5
REMARK    5  A    between atoms: C_8  and  N_9
REMARK    6  A    between atoms: C_10  and  C_12
REMARK    7  A    between atoms: C_12  and  C_13
REMARK    8  A    between atoms: C_18  and  C_20
REMARK                            x       y       z     vdW  Elec       q    Type
REMARK                         _______ _______ _______ _____ _____    ______ ____
ROOT
ATOM      1  N   UNL     1       3.233   6.188  18.754  0.00  0.00    +0.000 N 
ATOM      2  C   UNL     1       2.829   4.921  19.151  0.00  0.00    +0.000 C 
ATOM      3  O   UNL     1       1.724   4.616  19.598  0.00  0.00    +0.000 OA
ATOM      4  H   UNL     1       4.141   6.274  18.310  0.00  0.00    +0.000 HD
ENDROOT
BRANCH   1   8
ATOM      5  C   UNL     1       0.856   9.701  19.160  0.00  0.00    +0.000 A 
ATOM      6  C   UNL     1       1.443   9.359  17.933  0.00  0.00    +0.000 A 
ATOM      7  C   UNL     1       2.224   8.211  17.782  0.00  0.00    +0.000 A 
ATOM      8  C   UNL     1       2.470   7.368  18.863  0.00  0.00    +0.000 A 
ATOM      9  C   UNL     1       1.920   7.702  20.103  0.00  0.00    +0.000 A 
ATOM     10  C   UNL     1       1.142   8.863  20.252  0.00  0.00    +0.000 A 
BRANCH   5  12
ATOM     11  C   UNL     1      -1.325  10.774  18.393  0.00  0.00    +0.000 C 
ATOM     12  C   UNL     1      -0.056  10.936  19.268  0.00  0.00    +0.000 C 
ATOM     13  C   UNL     1       0.710  12.186  18.796  0.00  0.00    +0.000 C 
ATOM     14  C   UNL     1      -0.554  11.185  20.709  0.00  0.00    +0.000 C 
ENDBRANCH   5  12
ENDBRANCH   1   8
BRANCH   2  15
ATOM     15  C   UNL     1       3.891   3.857  18.996  0.00  0.00    +0.000 C 
BRANCH  15  16
ATOM     16  C   UNL     1       5.171   4.439  18.506  0.00  0.00    +0.000 A 
ATOM     17  C   UNL     1       6.138   5.111  19.234  0.00  0.00    +0.000 A 
ATOM     18  S   UNL     1       7.481   5.474  18.223  0.00  0.00    +0.000 S 
ATOM     19  C   UNL     1       6.652   4.775  16.910  0.00  0.00    +0.000 A 
ATOM     20  N   UNL     1       7.324   4.799  15.721  0.00  0.00    +0.000 N 
ATOM     21  C   UNL     1       6.721   4.394  14.557  0.00  0.00    +0.000 C 
ATOM     22  O   UNL     1       5.554   4.058  14.408  0.00  0.00    +0.000 OA
ATOM     23  N   UNL     1       5.472   4.277  17.166  0.00  0.00    +0.000 NA
ATOM     24  H   UNL     1       8.274   5.130  15.739  0.00  0.00    +0.000 HD
BRANCH  21  25
ATOM     25  C   UNL     1       7.591   4.377  13.346  0.00  0.00    +0.000 C 
ATOM     26  C   UNL     1       7.193   4.736  11.938  0.00  0.00    +0.000 C 
ATOM     27  C   UNL     1       8.013   5.699  12.745  0.00  0.00    +0.000 C 
ENDBRANCH  21  25
ENDBRANCH  15  16
ENDBRANCH   2  15
TORSDOF 5
ENDMDL
