MODEL 1
REMARK VINA RESULT:      -8.3      0.000      0.000
REMARK  Name = 
REMARK  4 active torsions:
REMARK  status: ('A' for Active; 'I' for Inactive)
REMARK    1  A    between atoms: C_2  and  C_3
REMARK    2  A    between atoms: C_3  and  N_4
REMARK    3  A    between atoms: C_8  and  C_9
REMARK    4  A    between atoms: N_18  and  C_19
REMARK                            x       y       z     vdW  Elec       q    Type
REMARK                         _______ _______ _______ _____ _____    ______ ____
ROOT
ATOM      1  N   UNL     1       7.174   5.542  18.412  0.00  0.00    +0.000 NA
ATOM      2  C   UNL     1       8.434   6.268  18.656  0.00  0.00    +0.000 C 
ATOM      3  C   UNL     1       8.126   7.731  18.430  0.00  0.00    +0.000 C 
ATOM      4  C   UNL     1       7.167   7.705  17.260  0.00  0.00    +0.000 C 
ATOM      5  C   UNL     1       6.473   6.331  17.342  0.00  0.00    +0.000 C 
ENDROOT
BRANCH   5   6
ATOM      6  C   UNL     1       6.485   5.602  16.012  0.00  0.00    +0.000 A 
ATOM      7  N   UNL     1       7.391   5.751  15.066  0.00  0.00    +0.000 NA
ATOM      8  C   UNL     1       7.074   4.964  13.972  0.00  0.00    +0.000 A 
ATOM      9  C   UNL     1       7.808   4.887  12.771  0.00  0.00    +0.000 A 
ATOM     10  C   UNL     1       7.374   4.044  11.742  0.00  0.00    +0.000 A 
ATOM     11  C   UNL     1       6.223   3.279  11.897  0.00  0.00    +0.000 A 
ATOM     12  C   UNL     1       5.474   3.341  13.077  0.00  0.00    +0.000 A 
ATOM     13  C   UNL     1       5.918   4.194  14.102  0.00  0.00    +0.000 A 
ATOM     14  S   UNL     1       5.219   4.492  15.646  0.00  0.00    +0.000 S 
ENDBRANCH   5   6
BRANCH   1  15
ATOM     15  C   UNL     1       6.301   5.489  19.613  0.00  0.00    +0.000 C 
BRANCH  15  17
ATOM     16  O   UNL     1       5.438   3.286  19.307  0.00  0.00    +0.000 OA
ATOM     17  C   UNL     1       5.164   4.468  19.519  0.00  0.00    +0.000 C 
ATOM     18  N   UNL     1       3.895   4.986  19.693  0.00  0.00    +0.000 N 
ATOM     19  H   UNL     1       3.820   5.993  19.559  0.00  0.00    +0.000 HD
BRANCH  18  20
ATOM     20  C   UNL     1       2.682   4.246  19.715  0.00  0.00    +0.000 A 
ATOM     21  C   UNL     1       2.078   3.722  20.864  0.00  0.00    +0.000 A 
ATOM     22  F   UNL     1       2.514   4.023  22.094  0.00  0.00    +0.000 F 
ATOM     23  C   UNL     1       0.931   2.924  20.787  0.00  0.00    +0.000 A 
ATOM     24  C   UNL     1       0.331   2.672  19.557  0.00  0.00    +0.000 A 
ATOM     25  C   UNL     1       0.869   3.248  18.409  0.00  0.00    +0.000 A 
ATOM     26  C   UNL     1       2.028   4.027  18.498  0.00  0.00    +0.000 A 
ATOM     27  F   UNL     1       2.526   4.557  17.370  0.00  0.00    +0.000 F 
ENDBRANCH  18  20
ENDBRANCH  15  17
ENDBRANCH   1  15
TORSDOF 4
ENDMDL
MODEL 2
REMARK VINA RESULT:      -8.0      1.114      1.747
REMARK  Name = 
REMARK  4 active torsions:
REMARK  status: ('A' for Active; 'I' for Inactive)
REMARK    1  A    between atoms: C_2  and  C_3
REMARK    2  A    between atoms: C_3  and  N_4
REMARK    3  A    between atoms: C_8  and  C_9
REMARK    4  A    between atoms: N_18  and  C_19
REMARK                            x       y       z     vdW  Elec       q    Type
REMARK                         _______ _______ _______ _____ _____    ______ ____
ROOT
ATOM      1  N   UNL     1       6.934   5.461  18.516  0.00  0.00    +0.000 NA
ATOM      2  C   UNL     1       8.302   5.907  18.839  0.00  0.00    +0.000 C 
ATOM      3  C   UNL     1       8.332   7.395  18.576  0.00  0.00    +0.000 C 
ATOM      4  C   UNL     1       7.469   7.544  17.342  0.00  0.00    +0.000 C 
ATOM      5  C   UNL     1       6.492   6.353  17.391  0.00  0.00    +0.000 C 
ENDROOT
BRANCH   5   6
ATOM      6  C   UNL     1       6.434   5.603  16.073  0.00  0.00    +0.000 A 
ATOM      7  N   UNL     1       7.337   5.669  15.117  0.00  0.00    +0.000 NA
ATOM      8  C   UNL     1       6.950   4.890  14.039  0.00  0.00    +0.000 A 
ATOM      9  C   UNL     1       7.662   4.738  12.832  0.00  0.00    +0.000 A 
ATOM     10  C   UNL     1       7.155   3.914  11.822  0.00  0.00    +0.000 A 
ATOM     11  C   UNL     1       5.952   3.240  12.001  0.00  0.00    +0.000 A 
ATOM     12  C   UNL     1       5.223   3.378  13.188  0.00  0.00    +0.000 A 
ATOM     13  C   UNL     1       5.741   4.211  14.194  0.00  0.00    +0.000 A 
ATOM     14  S   UNL     1       5.084   4.586  15.739  0.00  0.00    +0.000 S 
ENDBRANCH   5   6
BRANCH   1  15
ATOM     15  C   UNL     1       5.994   5.627  19.654  0.00  0.00    +0.000 C 
BRANCH  15  17
ATOM     16  O   UNL     1       3.796   6.032  18.819  0.00  0.00    +0.000 OA
ATOM     17  C   UNL     1       4.552   5.214  19.344  0.00  0.00    +0.000 C 
ATOM     18  N   UNL     1       4.226   3.916  19.689  0.00  0.00    +0.000 N 
ATOM     19  H   UNL     1       4.850   3.483  20.369  0.00  0.00    +0.000 HD
BRANCH  18  20
ATOM     20  C   UNL     1       2.983   3.272  19.453  0.00  0.00    +0.000 A 
ATOM     21  C   UNL     1       2.742   2.325  18.449  0.00  0.00    +0.000 A 
ATOM     22  F   UNL     1       3.734   1.807  17.712  0.00  0.00    +0.000 F 
ATOM     23  C   UNL     1       1.462   1.807  18.225  0.00  0.00    +0.000 A 
ATOM     24  C   UNL     1       0.397   2.189  19.035  0.00  0.00    +0.000 A 
ATOM     25  C   UNL     1       0.628   3.069  20.089  0.00  0.00    +0.000 A 
ATOM     26  C   UNL     1       1.909   3.595  20.290  0.00  0.00    +0.000 A 
ATOM     27  F   UNL     1       2.093   4.450  21.308  0.00  0.00    +0.000 F 
ENDBRANCH  18  20
ENDBRANCH  15  17
ENDBRANCH   1  15
TORSDOF 4
ENDMDL
MODEL 3
REMARK VINA RESULT:      -7.9      1.085      1.090
REMARK  Name = 
REMARK  4 active torsions:
REMARK  status: ('A' for Active; 'I' for Inactive)
REMARK    1  A    between atoms: C_2  and  C_3
REMARK    2  A    between atoms: C_3  and  N_4
REMARK    3  A    between atoms: C_8  and  C_9
REMARK    4  A    between atoms: N_18  and  C_19
REMARK                            x       y       z     vdW  Elec       q    Type
REMARK                         _______ _______ _______ _____ _____    ______ ____
ROOT
ATOM      1  N   UNL     1       7.154   5.506  18.421  0.00  0.00    +0.000 NA
ATOM      2  C   UNL     1       8.435   6.204  18.634  0.00  0.00    +0.000 C 
ATOM      3  C   UNL     1       8.156   7.673  18.409  0.00  0.00    +0.000 C 
ATOM      4  C   UNL     1       7.171   7.664  17.260  0.00  0.00    +0.000 C 
ATOM      5  C   UNL     1       6.448   6.307  17.363  0.00  0.00    +0.000 C 
ENDROOT
BRANCH   5   6
ATOM      6  C   UNL     1       6.414   5.573  16.036  0.00  0.00    +0.000 A 
ATOM      7  N   UNL     1       7.327   5.660  15.090  0.00  0.00    +0.000 NA
ATOM      8  C   UNL     1       6.962   4.889  13.999  0.00  0.00    +0.000 A 
ATOM      9  C   UNL     1       7.689   4.761  12.799  0.00  0.00    +0.000 A 
ATOM     10  C   UNL     1       7.204   3.943  11.773  0.00  0.00    +0.000 A 
ATOM     11  C   UNL     1       6.008   3.252  11.931  0.00  0.00    +0.000 A 
ATOM     12  C   UNL     1       5.263   3.367  13.111  0.00  0.00    +0.000 A 
ATOM     13  C   UNL     1       5.760   4.195  14.133  0.00  0.00    +0.000 A 
ATOM     14  S   UNL     1       5.081   4.543  15.675  0.00  0.00    +0.000 S 
ENDBRANCH   5   6
BRANCH   1  15
ATOM     15  C   UNL     1       6.307   5.477  19.641  0.00  0.00    +0.000 C 
BRANCH  15  17
ATOM     16  O   UNL     1       4.127   6.130  18.923  0.00  0.00    +0.000 OA
ATOM     17  C   UNL     1       4.823   5.217  19.370  0.00  0.00    +0.000 C 
ATOM     18  N   UNL     1       4.390   3.936  19.658  0.00  0.00    +0.000 N 
ATOM     19  H   UNL     1       4.995   3.410  20.286  0.00  0.00    +0.000 HD
BRANCH  18  20
ATOM     20  C   UNL     1       3.083   3.423  19.440  0.00  0.00    +0.000 A 
ATOM     21  C   UNL     1       1.942   3.788  20.165  0.00  0.00    +0.000 A 
ATOM     22  F   UNL     1       1.952   4.802  21.039  0.00  0.00    +0.000 F 
ATOM     23  C   UNL     1       0.708   3.165  19.947  0.00  0.00    +0.000 A 
ATOM     24  C   UNL     1       0.575   2.193  18.960  0.00  0.00    +0.000 A 
ATOM     25  C   UNL     1       1.678   1.870  18.173  0.00  0.00    +0.000 A 
ATOM     26  C   UNL     1       2.911   2.486  18.415  0.00  0.00    +0.000 A 
ATOM     27  F   UNL     1       3.956   2.143  17.645  0.00  0.00    +0.000 F 
ENDBRANCH  18  20
ENDBRANCH  15  17
ENDBRANCH   1  15
TORSDOF 4
ENDMDL
MODEL 4
REMARK VINA RESULT:      -7.6      3.609      4.620
REMARK  Name = 
REMARK  4 active torsions:
REMARK  status: ('A' for Active; 'I' for Inactive)
REMARK    1  A    between atoms: C_2  and  C_3
REMARK    2  A    between atoms: C_3  and  N_4
REMARK    3  A    between atoms: C_8  and  C_9
REMARK    4  A    between atoms: N_18  and  C_19
REMARK                            x       y       z     vdW  Elec       q    Type
REMARK                         _______ _______ _______ _____ _____    ______ ____
ROOT
ATOM      1  N   UNL     1       3.396   5.011  17.993  0.00  0.00    +0.000 NA
ATOM      2  C   UNL     1       2.116   4.312  17.772  0.00  0.00    +0.000 C 
ATOM      3  C   UNL     1       2.330   2.888  18.233  0.00  0.00    +0.000 C 
ATOM      4  C   UNL     1       3.748   2.594  17.795  0.00  0.00    +0.000 C 
ATOM      5  C   UNL     1       4.452   3.965  17.769  0.00  0.00    +0.000 C 
ENDROOT
BRANCH   5   6
ATOM      6  C   UNL     1       5.203   4.199  16.472  0.00  0.00    +0.000 A 
ATOM      7  N   UNL     1       4.949   3.606  15.323  0.00  0.00    +0.000 NA
ATOM      8  C   UNL     1       5.852   4.023  14.359  0.00  0.00    +0.000 A 
ATOM      9  C   UNL     1       5.893   3.582  13.022  0.00  0.00    +0.000 A 
ATOM     10  C   UNL     1       6.861   4.091  12.149  0.00  0.00    +0.000 A 
ATOM     11  C   UNL     1       7.783   5.032  12.593  0.00  0.00    +0.000 A 
ATOM     12  C   UNL     1       7.767   5.483  13.918  0.00  0.00    +0.000 A 
ATOM     13  C   UNL     1       6.792   4.961  14.786  0.00  0.00    +0.000 A 
ATOM     14  S   UNL     1       6.524   5.306  16.450  0.00  0.00    +0.000 S 
ENDBRANCH   5   6
BRANCH   1  15
ATOM     15  C   UNL     1       3.531   5.535  19.376  0.00  0.00    +0.000 C 
BRANCH  15  17
ATOM     16  O   UNL     1       1.498   5.872  20.578  0.00  0.00    +0.000 OA
ATOM     17  C   UNL     1       2.346   6.383  19.846  0.00  0.00    +0.000 C 
ATOM     18  N   UNL     1       2.344   7.689  19.392  0.00  0.00    +0.000 N 
ATOM     19  H   UNL     1       2.930   7.861  18.577  0.00  0.00    +0.000 HD
BRANCH  18  20
ATOM     20  C   UNL     1       1.397   8.692  19.731  0.00  0.00    +0.000 A 
ATOM     21  C   UNL     1       0.976   8.999  21.031  0.00  0.00    +0.000 A 
ATOM     22  F   UNL     1       1.568   8.472  22.110  0.00  0.00    +0.000 F 
ATOM     23  C   UNL     1      -0.031   9.941  21.269  0.00  0.00    +0.000 A 
ATOM     24  C   UNL     1      -0.609  10.636  20.212  0.00  0.00    +0.000 A 
ATOM     25  C   UNL     1      -0.151  10.405  18.917  0.00  0.00    +0.000 A 
ATOM     26  C   UNL     1       0.843   9.447  18.690  0.00  0.00    +0.000 A 
ATOM     27  F   UNL     1       1.252   9.241  17.429  0.00  0.00    +0.000 F 
ENDBRANCH  18  20
ENDBRANCH  15  17
ENDBRANCH   1  15
TORSDOF 4
ENDMDL
MODEL 5
REMARK VINA RESULT:      -7.5      4.455      6.168
REMARK  Name = 
REMARK  4 active torsions:
REMARK  status: ('A' for Active; 'I' for Inactive)
REMARK    1  A    between atoms: C_2  and  C_3
REMARK    2  A    between atoms: C_3  and  N_4
REMARK    3  A    between atoms: C_8  and  C_9
REMARK    4  A    between atoms: N_18  and  C_19
REMARK                            x       y       z     vdW  Elec       q    Type
REMARK                         _______ _______ _______ _____ _____    ______ ____
ROOT
ATOM      1  N   UNL     1       1.886   5.017  19.874  0.00  0.00    +0.000 NA
ATOM      2  C   UNL     1       0.940   3.894  19.733  0.00  0.00    +0.000 C 
ATOM      3  C   UNL     1       1.450   2.799  20.642  0.00  0.00    +0.000 C 
ATOM      4  C   UNL     1       2.952   2.900  20.494  0.00  0.00    +0.000 C 
ATOM      5  C   UNL     1       3.220   4.370  20.120  0.00  0.00    +0.000 C 
ENDROOT
BRANCH   5   6
ATOM      6  C   UNL     1       4.134   4.499  18.917  0.00  0.00    +0.000 A 
ATOM      7  N   UNL     1       3.827   4.153  17.683  0.00  0.00    +0.000 NA
ATOM      8  C   UNL     1       4.906   4.369  16.843  0.00  0.00    +0.000 A 
ATOM      9  C   UNL     1       4.944   4.093  15.461  0.00  0.00    +0.000 A 
ATOM     10  C   UNL     1       6.105   4.363  14.728  0.00  0.00    +0.000 A 
ATOM     11  C   UNL     1       7.222   4.903  15.353  0.00  0.00    +0.000 A 
ATOM     12  C   UNL     1       7.213   5.181  16.725  0.00  0.00    +0.000 A 
ATOM     13  C   UNL     1       6.042   4.902  17.451  0.00  0.00    +0.000 A 
ATOM     14  S   UNL     1       5.727   5.122  19.129  0.00  0.00    +0.000 S 
ENDBRANCH   5   6
BRANCH   1  15
ATOM     15  C   UNL     1       1.563   5.897  21.026  0.00  0.00    +0.000 C 
BRANCH  15  17
ATOM     16  O   UNL     1       2.211   7.865  19.844  0.00  0.00    +0.000 OA
ATOM     17  C   UNL     1       1.435   7.380  20.668  0.00  0.00    +0.000 C 
ATOM     18  N   UNL     1       0.423   8.056  21.322  0.00  0.00    +0.000 N 
ATOM     19  H   UNL     1       0.082   7.603  22.169  0.00  0.00    +0.000 HD
BRANCH  18  20
ATOM     20  C   UNL     1       0.057   9.415  21.124  0.00  0.00    +0.000 A 
ATOM     21  C   UNL     1      -0.132  10.026  19.878  0.00  0.00    +0.000 A 
ATOM     22  F   UNL     1      -0.146   9.322  18.739  0.00  0.00    +0.000 F 
ATOM     23  C   UNL     1      -0.402  11.395  19.769  0.00  0.00    +0.000 A 
ATOM     24  C   UNL     1      -0.538  12.177  20.911  0.00  0.00    +0.000 A 
ATOM     25  C   UNL     1      -0.433  11.576  22.163  0.00  0.00    +0.000 A 
ATOM     26  C   UNL     1      -0.144  10.210  22.258  0.00  0.00    +0.000 A 
ATOM     27  F   UNL     1      -0.037   9.665  23.480  0.00  0.00    +0.000 F 
ENDBRANCH  18  20
ENDBRANCH  15  17
ENDBRANCH   1  15
TORSDOF 4
ENDMDL
MODEL 6
REMARK VINA RESULT:      -7.4      4.346      6.093
REMARK  Name = 
REMARK  4 active torsions:
REMARK  status: ('A' for Active; 'I' for Inactive)
REMARK    1  A    between atoms: C_2  and  C_3
REMARK    2  A    between atoms: C_3  and  N_4
REMARK    3  A    between atoms: C_8  and  C_9
REMARK    4  A    between atoms: N_18  and  C_19
REMARK                            x       y       z     vdW  Elec       q    Type
REMARK                         _______ _______ _______ _____ _____    ______ ____
ROOT
ATOM      1  N   UNL     1       1.819   4.881  19.919  0.00  0.00    +0.000 NA
ATOM      2  C   UNL     1       0.914   3.718  19.963  0.00  0.00    +0.000 C 
ATOM      3  C   UNL     1       1.495   2.773  20.991  0.00  0.00    +0.000 C 
ATOM      4  C   UNL     1       2.987   2.904  20.776  0.00  0.00    +0.000 C 
ATOM      5  C   UNL     1       3.185   4.320  20.200  0.00  0.00    +0.000 C 
ENDROOT
BRANCH   5   6
ATOM      6  C   UNL     1       4.055   4.317  18.957  0.00  0.00    +0.000 A 
ATOM      7  N   UNL     1       5.346   4.574  18.927  0.00  0.00    +0.000 NA
ATOM      8  C   UNL     1       5.815   4.523  17.625  0.00  0.00    +0.000 A 
ATOM      9  C   UNL     1       7.141   4.766  17.215  0.00  0.00    +0.000 A 
ATOM     10  C   UNL     1       7.479   4.678  15.860  0.00  0.00    +0.000 A 
ATOM     11  C   UNL     1       6.515   4.350  14.914  0.00  0.00    +0.000 A 
ATOM     12  C   UNL     1       5.189   4.110  15.294  0.00  0.00    +0.000 A 
ATOM     13  C   UNL     1       4.861   4.205  16.658  0.00  0.00    +0.000 A 
ATOM     14  S   UNL     1       3.339   3.979  17.426  0.00  0.00    +0.000 S 
ENDBRANCH   5   6
BRANCH   1  15
ATOM     15  C   UNL     1       1.499   5.896  20.955  0.00  0.00    +0.000 C 
BRANCH  15  17
ATOM     16  O   UNL     1       2.475   7.659  19.677  0.00  0.00    +0.000 OA
ATOM     17  C   UNL     1       1.580   7.344  20.463  0.00  0.00    +0.000 C 
ATOM     18  N   UNL     1       0.606   8.188  20.960  0.00  0.00    +0.000 N 
ATOM     19  H   UNL     1       0.143   7.858  21.806  0.00  0.00    +0.000 HD
BRANCH  18  20
ATOM     20  C   UNL     1       0.423   9.554  20.615  0.00  0.00    +0.000 A 
ATOM     21  C   UNL     1       0.349  10.053  19.308  0.00  0.00    +0.000 A 
ATOM     22  F   UNL     1       0.275   9.244  18.244  0.00  0.00    +0.000 F 
ATOM     23  C   UNL     1       0.261  11.427  19.055  0.00  0.00    +0.000 A 
ATOM     24  C   UNL     1       0.195  12.334  20.108  0.00  0.00    +0.000 A 
ATOM     25  C   UNL     1       0.188  11.855  21.416  0.00  0.00    +0.000 A 
ATOM     26  C   UNL     1       0.296  10.481  21.656  0.00  0.00    +0.000 A 
ATOM     27  F   UNL     1       0.298  10.055  22.929  0.00  0.00    +0.000 F 
ENDBRANCH  18  20
ENDBRANCH  15  17
ENDBRANCH   1  15
TORSDOF 4
ENDMDL
MODEL 7
REMARK VINA RESULT:      -7.4      3.181      7.216
REMARK  Name = 
REMARK  4 active torsions:
REMARK  status: ('A' for Active; 'I' for Inactive)
REMARK    1  A    between atoms: C_2  and  C_3
REMARK    2  A    between atoms: C_3  and  N_4
REMARK    3  A    between atoms: C_8  and  C_9
REMARK    4  A    between atoms: N_18  and  C_19
REMARK                            x       y       z     vdW  Elec       q    Type
REMARK                         _______ _______ _______ _____ _____    ______ ____
ROOT
ATOM      1  N   UNL     1       2.957   3.788  20.925  0.00  0.00    +0.000 NA
ATOM      2  C   UNL     1       1.892   3.036  21.614  0.00  0.00    +0.000 C 
ATOM      3  C   UNL     1       1.053   2.403  20.527  0.00  0.00    +0.000 C 
ATOM      4  C   UNL     1       1.026   3.465  19.450  0.00  0.00    +0.000 C 
ATOM      5  C   UNL     1       2.326   4.269  19.648  0.00  0.00    +0.000 C 
ENDROOT
BRANCH   5   6
ATOM      6  C   UNL     1       2.077   5.765  19.678  0.00  0.00    +0.000 A 
ATOM      7  N   UNL     1       1.595   6.439  20.702  0.00  0.00    +0.000 NA
ATOM      8  C   UNL     1       1.459   7.778  20.372  0.00  0.00    +0.000 A 
ATOM      9  C   UNL     1       0.954   8.788  21.215  0.00  0.00    +0.000 A 
ATOM     10  C   UNL     1       0.873  10.106  20.752  0.00  0.00    +0.000 A 
ATOM     11  C   UNL     1       1.290  10.427  19.465  0.00  0.00    +0.000 A 
ATOM     12  C   UNL     1       1.789   9.441  18.606  0.00  0.00    +0.000 A 
ATOM     13  C   UNL     1       1.862   8.120  19.081  0.00  0.00    +0.000 A 
ATOM     14  S   UNL     1       2.414   6.705  18.273  0.00  0.00    +0.000 S 
ENDBRANCH   5   6
BRANCH   1  15
ATOM     15  C   UNL     1       4.129   2.941  20.587  0.00  0.00    +0.000 C 
BRANCH  15  17
ATOM     16  O   UNL     1       4.099   1.973  18.406  0.00  0.00    +0.000 OA
ATOM     17  C   UNL     1       4.481   2.919  19.097  0.00  0.00    +0.000 C 
ATOM     18  N   UNL     1       5.215   4.001  18.652  0.00  0.00    +0.000 N 
ATOM     19  H   UNL     1       5.696   4.524  19.383  0.00  0.00    +0.000 HD
BRANCH  18  20
ATOM     20  C   UNL     1       5.614   4.251  17.311  0.00  0.00    +0.000 A 
ATOM     21  C   UNL     1       4.766   4.214  16.197  0.00  0.00    +0.000 A 
ATOM     22  F   UNL     1       3.437   4.103  16.322  0.00  0.00    +0.000 F 
ATOM     23  C   UNL     1       5.259   4.381  14.898  0.00  0.00    +0.000 A 
ATOM     24  C   UNL     1       6.610   4.637  14.686  0.00  0.00    +0.000 A 
ATOM     25  C   UNL     1       7.458   4.756  15.784  0.00  0.00    +0.000 A 
ATOM     26  C   UNL     1       6.956   4.568  17.076  0.00  0.00    +0.000 A 
ATOM     27  F   UNL     1       7.805   4.678  18.111  0.00  0.00    +0.000 F 
ENDBRANCH  18  20
ENDBRANCH  15  17
ENDBRANCH   1  15
TORSDOF 4
ENDMDL
MODEL 8
REMARK VINA RESULT:      -7.3      3.304      7.121
REMARK  Name = 
REMARK  4 active torsions:
REMARK  status: ('A' for Active; 'I' for Inactive)
REMARK    1  A    between atoms: C_2  and  C_3
REMARK    2  A    between atoms: C_3  and  N_4
REMARK    3  A    between atoms: C_8  and  C_9
REMARK    4  A    between atoms: N_18  and  C_19
REMARK                            x       y       z     vdW  Elec       q    Type
REMARK                         _______ _______ _______ _____ _____    ______ ____
ROOT
ATOM      1  N   UNL     1       2.741   4.080  20.780  0.00  0.00    +0.000 NA
ATOM      2  C   UNL     1       1.562   3.288  21.176  0.00  0.00    +0.000 C 
ATOM      3  C   UNL     1       0.994   2.712  19.899  0.00  0.00    +0.000 C 
ATOM      4  C   UNL     1       1.190   3.832  18.899  0.00  0.00    +0.000 C 
ATOM      5  C   UNL     1       2.402   4.628  19.422  0.00  0.00    +0.000 C 
ENDROOT
BRANCH   5   6
ATOM      6  C   UNL     1       2.129   6.119  19.474  0.00  0.00    +0.000 A 
ATOM      7  N   UNL     1       1.687   6.780  20.524  0.00  0.00    +0.000 NA
ATOM      8  C   UNL     1       1.513   8.117  20.210  0.00  0.00    +0.000 A 
ATOM      9  C   UNL     1       1.034   9.114  21.084  0.00  0.00    +0.000 A 
ATOM     10  C   UNL     1       0.909  10.433  20.634  0.00  0.00    +0.000 A 
ATOM     11  C   UNL     1       1.255  10.768  19.330  0.00  0.00    +0.000 A 
ATOM     12  C   UNL     1       1.728   9.796  18.441  0.00  0.00    +0.000 A 
ATOM     13  C   UNL     1       1.846   8.474  18.903  0.00  0.00    +0.000 A 
ATOM     14  S   UNL     1       2.380   7.073  18.060  0.00  0.00    +0.000 S 
ENDBRANCH   5   6
BRANCH   1  15
ATOM     15  C   UNL     1       3.972   3.257  20.667  0.00  0.00    +0.000 C 
BRANCH  15  17
ATOM     16  O   UNL     1       4.295   2.064  18.626  0.00  0.00    +0.000 OA
ATOM     17  C   UNL     1       4.503   3.112  19.239  0.00  0.00    +0.000 C 
ATOM     18  N   UNL     1       5.186   4.211  18.752  0.00  0.00    +0.000 N 
ATOM     19  H   UNL     1       5.525   4.855  19.465  0.00  0.00    +0.000 HD
BRANCH  18  20
ATOM     20  C   UNL     1       5.721   4.355  17.444  0.00  0.00    +0.000 A 
ATOM     21  C   UNL     1       7.080   4.503  17.140  0.00  0.00    +0.000 A 
ATOM     22  F   UNL     1       8.034   4.350  18.068  0.00  0.00    +0.000 F 
ATOM     23  C   UNL     1       7.515   4.733  15.830  0.00  0.00    +0.000 A 
ATOM     24  C   UNL     1       6.600   4.771  14.782  0.00  0.00    +0.000 A 
ATOM     25  C   UNL     1       5.252   4.549  15.050  0.00  0.00    +0.000 A 
ATOM     26  C   UNL     1       4.828   4.339  16.367  0.00  0.00    +0.000 A 
ATOM     27  F   UNL     1       3.520   4.140  16.590  0.00  0.00    +0.000 F 
ENDBRANCH  18  20
ENDBRANCH  15  17
ENDBRANCH   1  15
TORSDOF 4
ENDMDL
MODEL 9
REMARK VINA RESULT:      -7.2      3.239      6.807
REMARK  Name = 
REMARK  4 active torsions:
REMARK  status: ('A' for Active; 'I' for Inactive)
REMARK    1  A    between atoms: C_2  and  C_3
REMARK    2  A    between atoms: C_3  and  N_4
REMARK    3  A    between atoms: C_8  and  C_9
REMARK    4  A    between atoms: N_18  and  C_19
REMARK                            x       y       z     vdW  Elec       q    Type
REMARK                         _______ _______ _______ _____ _____    ______ ____
ROOT
ATOM      1  N   UNL     1       3.102   3.824  20.884  0.00  0.00    +0.000 NA
ATOM      2  C   UNL     1       2.122   3.236  21.816  0.00  0.00    +0.000 C 
ATOM      3  C   UNL     1       1.130   2.480  20.963  0.00  0.00    +0.000 C 
ATOM      4  C   UNL     1       0.983   3.362  19.742  0.00  0.00    +0.000 C 
ATOM      5  C   UNL     1       2.316   4.129  19.639  0.00  0.00    +0.000 C 
ENDROOT
BRANCH   5   6
ATOM      6  C   UNL     1       2.108   5.621  19.461  0.00  0.00    +0.000 A 
ATOM      7  N   UNL     1       2.422   6.313  18.386  0.00  0.00    +0.000 NA
ATOM      8  C   UNL     1       2.133   7.654  18.578  0.00  0.00    +0.000 A 
ATOM      9  C   UNL     1       2.358   8.688  17.648  0.00  0.00    +0.000 A 
ATOM     10  C   UNL     1       2.016  10.005  17.974  0.00  0.00    +0.000 A 
ATOM     11  C   UNL     1       1.453  10.301  19.210  0.00  0.00    +0.000 A 
ATOM     12  C   UNL     1       1.224   9.293  20.154  0.00  0.00    +0.000 A 
ATOM     13  C   UNL     1       1.576   7.975  19.816  0.00  0.00    +0.000 A 
ATOM     14  S   UNL     1       1.429   6.538  20.753  0.00  0.00    +0.000 S 
ENDBRANCH   5   6
BRANCH   1  15
ATOM     15  C   UNL     1       4.198   2.884  20.537  0.00  0.00    +0.000 C 
BRANCH  15  17
ATOM     16  O   UNL     1       4.214   1.970  18.333  0.00  0.00    +0.000 OA
ATOM     17  C   UNL     1       4.590   2.893  19.057  0.00  0.00    +0.000 C 
ATOM     18  N   UNL     1       5.350   3.976  18.658  0.00  0.00    +0.000 N 
ATOM     19  H   UNL     1       5.818   4.474  19.414  0.00  0.00    +0.000 HD
BRANCH  18  20
ATOM     20  C   UNL     1       5.788   4.253  17.335  0.00  0.00    +0.000 A 
ATOM     21  C   UNL     1       7.120   4.453  16.952  0.00  0.00    +0.000 A 
ATOM     22  F   UNL     1       8.140   4.230  17.791  0.00  0.00    +0.000 F 
ATOM     23  C   UNL     1       7.457   4.812  15.642  0.00  0.00    +0.000 A 
ATOM     24  C   UNL     1       6.470   4.933  14.670  0.00  0.00    +0.000 A 
ATOM     25  C   UNL     1       5.146   4.662  15.009  0.00  0.00    +0.000 A 
ATOM     26  C   UNL     1       4.821   4.322  16.326  0.00  0.00    +0.000 A 
ATOM     27  F   UNL     1       3.534   4.080  16.621  0.00  0.00    +0.000 F 
ENDBRANCH  18  20
ENDBRANCH  15  17
ENDBRANCH   1  15
TORSDOF 4
ENDMDL
