MODEL 1
REMARK VINA RESULT:      -7.8      0.000      0.000
REMARK  Name = 
REMARK  4 active torsions:
REMARK  status: ('A' for Active; 'I' for Inactive)
REMARK    1  A    between atoms: N_2  and  C_4
REMARK    2  A    between atoms: C_7  and  O_8
REMARK    3  A    between atoms: C_9  and  N_10
REMARK    4  A    between atoms: N_10  and  C_11
REMARK                            x       y       z     vdW  Elec       q    Type
REMARK                         _______ _______ _______ _____ _____    ______ ____
ROOT
ATOM      1  N   UNL     1       2.604   7.131  20.173  0.00  0.00    +0.000 N 
ATOM      2  H   UNL     1       3.327   7.168  20.890  0.00  0.00    +0.000 HD
ENDROOT
BRANCH   1   3
ATOM      3  C   UNL     1       2.232   5.793  19.892  0.00  0.00    +0.000 A 
ATOM      4  N   UNL     1       1.272   5.224  20.645  0.00  0.00    +0.000 NA
ATOM      5  C   UNL     1       0.941   3.965  20.352  0.00  0.00    +0.000 A 
ATOM      6  N   UNL     1       1.472   3.215  19.381  0.00  0.00    +0.000 NA
ATOM      7  C   UNL     1       2.411   3.792  18.629  0.00  0.00    +0.000 A 
ATOM      8  C   UNL     1       2.956   3.062  17.580  0.00  0.00    +0.000 A 
ATOM      9  C   UNL     1       3.919   3.605  16.723  0.00  0.00    +0.000 A 
ATOM     10  C   UNL     1       4.351   4.908  16.923  0.00  0.00    +0.000 A 
ATOM     11 BR   UNL     1       5.627   5.667  15.756  0.00  0.00    +0.000 Br
ATOM     12  C   UNL     1       3.833   5.662  17.973  0.00  0.00    +0.000 A 
ATOM     13  C   UNL     1       2.855   5.107  18.836  0.00  0.00    +0.000 A 
ENDBRANCH   1   3
BRANCH   1  18
ATOM     14  C   UNL     1       0.279   9.610  21.700  0.00  0.00    +0.000 A 
ATOM     15  C   UNL     1      -0.149  10.320  20.569  0.00  0.00    +0.000 A 
ATOM     16  C   UNL     1       0.341   9.969  19.308  0.00  0.00    +0.000 A 
ATOM     17  C   UNL     1       1.256   8.920  19.193  0.00  0.00    +0.000 A 
ATOM     18  C   UNL     1       1.707   8.216  20.322  0.00  0.00    +0.000 A 
ATOM     19  C   UNL     1       1.194   8.561  21.577  0.00  0.00    +0.000 A 
BRANCH  14  21
ATOM     20  O   UNL     1      -1.305  10.597  23.075  0.00  0.00    +0.000 OA
ATOM     21  N   UNL     1      -0.244   9.960  23.026  0.00  0.00    +0.000 N 
ATOM     22  O   UNL     1       0.401   9.595  24.020  0.00  0.00    +0.000 OA
ENDBRANCH  14  21
BRANCH  17  23
ATOM     23  O   UNL     1       1.756   8.562  17.969  0.00  0.00    +0.000 OA
ATOM     24  H   UNL     1       1.383   9.158  17.296  0.00  0.00    +0.000 HD
ENDBRANCH  17  23
ENDBRANCH   1  18
TORSDOF 4
ENDMDL
MODEL 2
REMARK VINA RESULT:      -7.7      3.324      5.439
REMARK  Name = 
REMARK  4 active torsions:
REMARK  status: ('A' for Active; 'I' for Inactive)
REMARK    1  A    between atoms: N_2  and  C_4
REMARK    2  A    between atoms: C_7  and  O_8
REMARK    3  A    between atoms: C_9  and  N_10
REMARK    4  A    between atoms: N_10  and  C_11
REMARK                            x       y       z     vdW  Elec       q    Type
REMARK                         _______ _______ _______ _____ _____    ______ ____
ROOT
ATOM      1  N   UNL     1       4.245   3.205  17.624  0.00  0.00    +0.000 N 
ATOM      2  H   UNL     1       3.873   2.836  16.750  0.00  0.00    +0.000 HD
ENDROOT
BRANCH   1   3
ATOM      3  C   UNL     1       5.440   3.933  17.404  0.00  0.00    +0.000 A 
ATOM      4  N   UNL     1       6.135   4.362  18.474  0.00  0.00    +0.000 NA
ATOM      5  C   UNL     1       7.258   5.041  18.234  0.00  0.00    +0.000 A 
ATOM      6  N   UNL     1       7.759   5.335  17.030  0.00  0.00    +0.000 NA
ATOM      7  C   UNL     1       7.074   4.891  15.974  0.00  0.00    +0.000 A 
ATOM      8  C   UNL     1       7.585   5.137  14.706  0.00  0.00    +0.000 A 
ATOM      9  C   UNL     1       6.948   4.676  13.551  0.00  0.00    +0.000 A 
ATOM     10  C   UNL     1       5.766   3.956  13.665  0.00  0.00    +0.000 A 
ATOM     11 BR   UNL     1       4.909   3.300  12.116  0.00  0.00    +0.000 Br
ATOM     12  C   UNL     1       5.222   3.705  14.921  0.00  0.00    +0.000 A 
ATOM     13  C   UNL     1       5.874   4.172  16.090  0.00  0.00    +0.000 A 
ENDBRANCH   1   3
BRANCH   1  18
ATOM     14  C   UNL     1       2.018   5.308  19.744  0.00  0.00    +0.000 A 
ATOM     15  C   UNL     1       1.136   4.347  20.257  0.00  0.00    +0.000 A 
ATOM     16  C   UNL     1       1.288   3.006  19.891  0.00  0.00    +0.000 A 
ATOM     17  C   UNL     1       2.313   2.645  19.015  0.00  0.00    +0.000 A 
ATOM     18  C   UNL     1       3.190   3.603  18.480  0.00  0.00    +0.000 A 
ATOM     19  C   UNL     1       3.042   4.940  18.869  0.00  0.00    +0.000 A 
BRANCH  14  21
ATOM     20  O   UNL     1       2.383   7.572  19.398  0.00  0.00    +0.000 OA
ATOM     21  N   UNL     1       1.876   6.716  20.136  0.00  0.00    +0.000 N 
ATOM     22  O   UNL     1       1.256   6.969  21.179  0.00  0.00    +0.000 OA
ENDBRANCH  14  21
BRANCH  17  23
ATOM     23  O   UNL     1       2.479   1.338  18.637  0.00  0.00    +0.000 OA
ATOM     24  H   UNL     1       1.602   0.920  18.577  0.00  0.00    +0.000 HD
ENDBRANCH  17  23
ENDBRANCH   1  18
TORSDOF 4
ENDMDL
MODEL 3
REMARK VINA RESULT:      -7.6      3.976      7.307
REMARK  Name = 
REMARK  4 active torsions:
REMARK  status: ('A' for Active; 'I' for Inactive)
REMARK    1  A    between atoms: N_2  and  C_4
REMARK    2  A    between atoms: C_7  and  O_8
REMARK    3  A    between atoms: C_9  and  N_10
REMARK    4  A    between atoms: N_10  and  C_11
REMARK                            x       y       z     vdW  Elec       q    Type
REMARK                         _______ _______ _______ _____ _____    ______ ____
ROOT
ATOM      1  N   UNL     1       3.659   3.699  17.530  0.00  0.00    +0.000 N 
ATOM      2  H   UNL     1       3.436   2.777  17.158  0.00  0.00    +0.000 HD
ENDROOT
BRANCH   1   3
ATOM      3  C   UNL     1       3.109   3.873  18.824  0.00  0.00    +0.000 A 
ATOM      4  N   UNL     1       3.098   2.819  19.662  0.00  0.00    +0.000 NA
ATOM      5  C   UNL     1       2.578   3.017  20.875  0.00  0.00    +0.000 A 
ATOM      6  N   UNL     1       2.069   4.163  21.338  0.00  0.00    +0.000 NA
ATOM      7  C   UNL     1       2.100   5.207  20.508  0.00  0.00    +0.000 A 
ATOM      8  C   UNL     1       1.623   6.428  20.966  0.00  0.00    +0.000 A 
ATOM      9  C   UNL     1       1.653   7.579  20.173  0.00  0.00    +0.000 A 
ATOM     10  C   UNL     1       2.168   7.506  18.887  0.00  0.00    +0.000 A 
ATOM     11 BR   UNL     1       2.244   9.058  17.813  0.00  0.00    +0.000 Br
ATOM     12  C   UNL     1       2.643   6.294  18.393  0.00  0.00    +0.000 A 
ATOM     13  C   UNL     1       2.613   5.132  19.203  0.00  0.00    +0.000 A 
ENDBRANCH   1   3
BRANCH   1  18
ATOM     14  C   UNL     1       6.595   4.567  15.408  0.00  0.00    +0.000 A 
ATOM     15  C   UNL     1       7.585   4.776  16.379  0.00  0.00    +0.000 A 
ATOM     16  C   UNL     1       7.267   4.628  17.732  0.00  0.00    +0.000 A 
ATOM     17  C   UNL     1       5.965   4.281  18.098  0.00  0.00    +0.000 A 
ATOM     18  C   UNL     1       4.961   4.089  17.134  0.00  0.00    +0.000 A 
ATOM     19  C   UNL     1       5.295   4.219  15.781  0.00  0.00    +0.000 A 
BRANCH  14  21
ATOM     20  O   UNL     1       7.789   5.535  13.672  0.00  0.00    +0.000 OA
ATOM     21  N   UNL     1       6.925   4.703  13.984  0.00  0.00    +0.000 N 
ATOM     22  O   UNL     1       6.326   3.979  13.177  0.00  0.00    +0.000 OA
ENDBRANCH  14  21
BRANCH  17  23
ATOM     23  O   UNL     1       5.627   4.136  19.418  0.00  0.00    +0.000 OA
ATOM     24  H   UNL     1       4.767   3.684  19.469  0.00  0.00    +0.000 HD
ENDBRANCH  17  23
ENDBRANCH   1  18
TORSDOF 4
ENDMDL
MODEL 4
REMARK VINA RESULT:      -7.6      4.768      6.604
REMARK  Name = 
REMARK  4 active torsions:
REMARK  status: ('A' for Active; 'I' for Inactive)
REMARK    1  A    between atoms: N_2  and  C_4
REMARK    2  A    between atoms: C_7  and  O_8
REMARK    3  A    between atoms: C_9  and  N_10
REMARK    4  A    between atoms: N_10  and  C_11
REMARK                            x       y       z     vdW  Elec       q    Type
REMARK                         _______ _______ _______ _____ _____    ______ ____
ROOT
ATOM      1  N   UNL     1       5.669   3.950  19.672  0.00  0.00    +0.000 N 
ATOM      2  H   UNL     1       5.745   4.255  20.640  0.00  0.00    +0.000 HD
ENDROOT
BRANCH   1   3
ATOM      3  C   UNL     1       4.461   3.240  19.455  0.00  0.00    +0.000 A 
ATOM      4  N   UNL     1       4.536   1.960  19.045  0.00  0.00    +0.000 NA
ATOM      5  C   UNL     1       3.382   1.318  18.854  0.00  0.00    +0.000 A 
ATOM      6  N   UNL     1       2.158   1.825  19.033  0.00  0.00    +0.000 NA
ATOM      7  C   UNL     1       2.093   3.088  19.457  0.00  0.00    +0.000 A 
ATOM      8  C   UNL     1       0.841   3.638  19.699  0.00  0.00    +0.000 A 
ATOM      9  C   UNL     1       0.686   4.942  20.178  0.00  0.00    +0.000 A 
ATOM     10  C   UNL     1       1.812   5.718  20.416  0.00  0.00    +0.000 A 
ATOM     11 BR   UNL     1       1.622   7.472  21.092  0.00  0.00    +0.000 Br
ATOM     12  C   UNL     1       3.080   5.201  20.171  0.00  0.00    +0.000 A 
ATOM     13  C   UNL     1       3.231   3.876  19.688  0.00  0.00    +0.000 A 
ENDBRANCH   1   3
BRANCH   1  18
ATOM     14  C   UNL     1       6.306   6.016  16.638  0.00  0.00    +0.000 A 
ATOM     15  C   UNL     1       7.375   6.814  17.067  0.00  0.00    +0.000 A 
ATOM     16  C   UNL     1       7.874   6.660  18.364  0.00  0.00    +0.000 A 
ATOM     17  C   UNL     1       7.296   5.717  19.216  0.00  0.00    +0.000 A 
ATOM     18  C   UNL     1       6.211   4.926  18.802  0.00  0.00    +0.000 A 
ATOM     19  C   UNL     1       5.733   5.073  17.495  0.00  0.00    +0.000 A 
BRANCH  14  21
ATOM     20  O   UNL     1       4.943   7.042  15.068  0.00  0.00    +0.000 OA
ATOM     21  N   UNL     1       5.787   6.159  15.272  0.00  0.00    +0.000 N 
ATOM     22  O   UNL     1       6.224   5.393  14.401  0.00  0.00    +0.000 OA
ENDBRANCH  14  21
BRANCH  17  23
ATOM     23  O   UNL     1       7.763   5.552  20.493  0.00  0.00    +0.000 OA
ATOM     24  H   UNL     1       8.237   4.703  20.541  0.00  0.00    +0.000 HD
ENDBRANCH  17  23
ENDBRANCH   1  18
TORSDOF 4
ENDMDL
MODEL 5
REMARK VINA RESULT:      -7.4      3.546      5.704
REMARK  Name = 
REMARK  4 active torsions:
REMARK  status: ('A' for Active; 'I' for Inactive)
REMARK    1  A    between atoms: N_2  and  C_4
REMARK    2  A    between atoms: C_7  and  O_8
REMARK    3  A    between atoms: C_9  and  N_10
REMARK    4  A    between atoms: N_10  and  C_11
REMARK                            x       y       z     vdW  Elec       q    Type
REMARK                         _______ _______ _______ _____ _____    ______ ____
ROOT
ATOM      1  N   UNL     1       4.139   3.620  16.815  0.00  0.00    +0.000 N 
ATOM      2  H   UNL     1       3.618   3.391  15.970  0.00  0.00    +0.000 HD
ENDROOT
BRANCH   1   3
ATOM      3  C   UNL     1       5.313   4.350  16.508  0.00  0.00    +0.000 A 
ATOM      4  N   UNL     1       5.930   5.018  17.501  0.00  0.00    +0.000 NA
ATOM      5  C   UNL     1       7.036   5.693  17.180  0.00  0.00    +0.000 A 
ATOM      6  N   UNL     1       7.590   5.767  15.966  0.00  0.00    +0.000 NA
ATOM      7  C   UNL     1       6.983   5.087  14.991  0.00  0.00    +0.000 A 
ATOM      8  C   UNL     1       7.553   5.101  13.724  0.00  0.00    +0.000 A 
ATOM      9  C   UNL     1       7.000   4.388  12.657  0.00  0.00    +0.000 A 
ATOM     10  C   UNL     1       5.845   3.646  12.860  0.00  0.00    +0.000 A 
ATOM     11 BR   UNL     1       5.102   2.651  11.436  0.00  0.00    +0.000 Br
ATOM     12  C   UNL     1       5.242   3.622  14.114  0.00  0.00    +0.000 A 
ATOM     13  C   UNL     1       5.810   4.345  15.194  0.00  0.00    +0.000 A 
ENDBRANCH   1   3
BRANCH   1  18
ATOM     14  C   UNL     1       2.204   5.484  19.396  0.00  0.00    +0.000 A 
ATOM     15  C   UNL     1       1.551   4.437  20.061  0.00  0.00    +0.000 A 
ATOM     16  C   UNL     1       1.757   3.119  19.644  0.00  0.00    +0.000 A 
ATOM     17  C   UNL     1       2.607   2.864  18.565  0.00  0.00    +0.000 A 
ATOM     18  C   UNL     1       3.252   3.907  17.880  0.00  0.00    +0.000 A 
ATOM     19  C   UNL     1       3.054   5.222  18.319  0.00  0.00    +0.000 A 
BRANCH  14  21
ATOM     20  O   UNL     1       1.462   7.049  20.937  0.00  0.00    +0.000 OA
ATOM     21  N   UNL     1       2.006   6.869  19.839  0.00  0.00    +0.000 N 
ATOM     22  O   UNL     1       2.397   7.779  19.093  0.00  0.00    +0.000 OA
ENDBRANCH  14  21
BRANCH  17  23
ATOM     23  O   UNL     1       2.821   1.582  18.134  0.00  0.00    +0.000 OA
ATOM     24  H   UNL     1       3.555   1.201  18.647  0.00  0.00    +0.000 HD
ENDBRANCH  17  23
ENDBRANCH   1  18
TORSDOF 4
ENDMDL
MODEL 6
REMARK VINA RESULT:      -7.4      4.781      5.915
REMARK  Name = 
REMARK  4 active torsions:
REMARK  status: ('A' for Active; 'I' for Inactive)
REMARK    1  A    between atoms: N_2  and  C_4
REMARK    2  A    between atoms: C_7  and  O_8
REMARK    3  A    between atoms: C_9  and  N_10
REMARK    4  A    between atoms: N_10  and  C_11
REMARK                            x       y       z     vdW  Elec       q    Type
REMARK                         _______ _______ _______ _____ _____    ______ ____
ROOT
ATOM      1  N   UNL     1       4.638   2.860  17.832  0.00  0.00    +0.000 N 
ATOM      2  H   UNL     1       4.536   2.317  16.976  0.00  0.00    +0.000 HD
ENDROOT
BRANCH   1   3
ATOM      3  C   UNL     1       5.615   3.875  17.678  0.00  0.00    +0.000 A 
ATOM      4  N   UNL     1       6.112   4.458  18.785  0.00  0.00    +0.000 NA
ATOM      5  C   UNL     1       7.033   5.407  18.607  0.00  0.00    +0.000 A 
ATOM      6  N   UNL     1       7.510   5.833  17.432  0.00  0.00    +0.000 NA
ATOM      7  C   UNL     1       7.024   5.239  16.341  0.00  0.00    +0.000 A 
ATOM      8  C   UNL     1       7.526   5.621  15.104  0.00  0.00    +0.000 A 
ATOM      9  C   UNL     1       7.097   5.023  13.915  0.00  0.00    +0.000 A 
ATOM     10  C   UNL     1       6.138   4.022  13.964  0.00  0.00    +0.000 A 
ATOM     11 BR   UNL     1       5.570   3.182  12.370  0.00  0.00    +0.000 Br
ATOM     12  C   UNL     1       5.606   3.625  15.188  0.00  0.00    +0.000 A 
ATOM     13  C   UNL     1       6.047   4.232  16.390  0.00  0.00    +0.000 A 
ENDBRANCH   1   3
BRANCH   1  18
ATOM     14  C   UNL     1       2.008   3.048  20.463  0.00  0.00    +0.000 A 
ATOM     15  C   UNL     1       0.857   3.254  19.689  0.00  0.00    +0.000 A 
ATOM     16  C   UNL     1       0.966   3.331  18.298  0.00  0.00    +0.000 A 
ATOM     17  C   UNL     1       2.221   3.208  17.698  0.00  0.00    +0.000 A 
ATOM     18  C   UNL     1       3.384   3.021  18.466  0.00  0.00    +0.000 A 
ATOM     19  C   UNL     1       3.261   2.925  19.857  0.00  0.00    +0.000 A 
BRANCH  14  21
ATOM     20  O   UNL     1       2.591   3.720  22.604  0.00  0.00    +0.000 OA
ATOM     21  N   UNL     1       1.900   2.948  21.924  0.00  0.00    +0.000 N 
ATOM     22  O   UNL     1       1.124   2.104  22.393  0.00  0.00    +0.000 OA
ENDBRANCH  14  21
BRANCH  17  23
ATOM     23  O   UNL     1       2.355   3.286  16.337  0.00  0.00    +0.000 OA
ATOM     24  H   UNL     1       1.889   2.532  15.937  0.00  0.00    +0.000 HD
ENDBRANCH  17  23
ENDBRANCH   1  18
TORSDOF 4
ENDMDL
MODEL 7
REMARK VINA RESULT:      -7.4      3.760      5.648
REMARK  Name = 
REMARK  4 active torsions:
REMARK  status: ('A' for Active; 'I' for Inactive)
REMARK    1  A    between atoms: N_2  and  C_4
REMARK    2  A    between atoms: C_7  and  O_8
REMARK    3  A    between atoms: C_9  and  N_10
REMARK    4  A    between atoms: N_10  and  C_11
REMARK                            x       y       z     vdW  Elec       q    Type
REMARK                         _______ _______ _______ _____ _____    ______ ____
ROOT
ATOM      1  N   UNL     1       3.809   4.779  17.196  0.00  0.00    +0.000 N 
ATOM      2  H   UNL     1       3.155   5.067  16.470  0.00  0.00    +0.000 HD
ENDROOT
BRANCH   1   3
ATOM      3  C   UNL     1       5.128   5.196  16.888  0.00  0.00    +0.000 A 
ATOM      4  N   UNL     1       5.847   5.806  17.849  0.00  0.00    +0.000 NA
ATOM      5  C   UNL     1       7.086   6.183  17.530  0.00  0.00    +0.000 A 
ATOM      6  N   UNL     1       7.683   6.010  16.346  0.00  0.00    +0.000 NA
ATOM      7  C   UNL     1       6.970   5.388  15.404  0.00  0.00    +0.000 A 
ATOM      8  C   UNL     1       7.569   5.149  14.174  0.00  0.00    +0.000 A 
ATOM      9  C   UNL     1       6.904   4.473  13.147  0.00  0.00    +0.000 A 
ATOM     10  C   UNL     1       5.605   4.031  13.353  0.00  0.00    +0.000 A 
ATOM     11 BR   UNL     1       4.703   3.089  11.986  0.00  0.00    +0.000 Br
ATOM     12  C   UNL     1       4.972   4.266  14.570  0.00  0.00    +0.000 A 
ATOM     13  C   UNL     1       5.653   4.949  15.609  0.00  0.00    +0.000 A 
ENDBRANCH   1   3
BRANCH   1  18
ATOM     14  C   UNL     1       2.570   3.864  20.588  0.00  0.00    +0.000 A 
ATOM     15  C   UNL     1       1.900   5.037  20.963  0.00  0.00    +0.000 A 
ATOM     16  C   UNL     1       1.867   6.123  20.084  0.00  0.00    +0.000 A 
ATOM     17  C   UNL     1       2.509   6.028  18.848  0.00  0.00    +0.000 A 
ATOM     18  C   UNL     1       3.200   4.865  18.471  0.00  0.00    +0.000 A 
ATOM     19  C   UNL     1       3.209   3.775  19.349  0.00  0.00    +0.000 A 
BRANCH  14  21
ATOM     20  O   UNL     1       3.647   2.061  21.571  0.00  0.00    +0.000 OA
ATOM     21  N   UNL     1       2.595   2.712  21.497  0.00  0.00    +0.000 N 
ATOM     22  O   UNL     1       1.568   2.457  22.141  0.00  0.00    +0.000 OA
ENDBRANCH  14  21
BRANCH  17  23
ATOM     23  O   UNL     1       2.496   7.082  17.972  0.00  0.00    +0.000 OA
ATOM     24  H   UNL     1       2.475   6.730  17.066  0.00  0.00    +0.000 HD
ENDBRANCH  17  23
ENDBRANCH   1  18
TORSDOF 4
ENDMDL
MODEL 8
REMARK VINA RESULT:      -7.3      5.291      8.729
REMARK  Name = 
REMARK  4 active torsions:
REMARK  status: ('A' for Active; 'I' for Inactive)
REMARK    1  A    between atoms: N_2  and  C_4
REMARK    2  A    between atoms: C_7  and  O_8
REMARK    3  A    between atoms: C_9  and  N_10
REMARK    4  A    between atoms: N_10  and  C_11
REMARK                            x       y       z     vdW  Elec       q    Type
REMARK                         _______ _______ _______ _____ _____    ______ ____
ROOT
ATOM      1  N   UNL     1       5.653   4.311  16.062  0.00  0.00    +0.000 N 
ATOM      2  H   UNL     1       6.414   4.013  16.671  0.00  0.00    +0.000 HD
ENDROOT
BRANCH   1   3
ATOM      3  C   UNL     1       4.898   5.349  16.662  0.00  0.00    +0.000 A 
ATOM      4  N   UNL     1       5.203   6.623  16.353  0.00  0.00    +0.000 NA
ATOM      5  C   UNL     1       4.471   7.577  16.930  0.00  0.00    +0.000 A 
ATOM      6  N   UNL     1       3.460   7.387  17.785  0.00  0.00    +0.000 NA
ATOM      7  C   UNL     1       3.152   6.121  18.072  0.00  0.00    +0.000 A 
ATOM      8  C   UNL     1       2.080   5.880  18.921  0.00  0.00    +0.000 A 
ATOM      9  C   UNL     1       1.670   4.583  19.245  0.00  0.00    +0.000 A 
ATOM     10  C   UNL     1       2.353   3.500  18.710  0.00  0.00    +0.000 A 
ATOM     11 BR   UNL     1       1.793   1.741  19.112  0.00  0.00    +0.000 Br
ATOM     12  C   UNL     1       3.440   3.708  17.866  0.00  0.00    +0.000 A 
ATOM     13  C   UNL     1       3.849   5.026  17.539  0.00  0.00    +0.000 A 
ENDBRANCH   1   3
BRANCH   1  18
ATOM     14  C   UNL     1       5.861   3.388  12.459  0.00  0.00    +0.000 A 
ATOM     15  C   UNL     1       6.959   4.153  12.041  0.00  0.00    +0.000 A 
ATOM     16  C   UNL     1       7.620   4.972  12.961  0.00  0.00    +0.000 A 
ATOM     17  C   UNL     1       7.173   5.021  14.283  0.00  0.00    +0.000 A 
ATOM     18  C   UNL     1       6.062   4.273  14.708  0.00  0.00    +0.000 A 
ATOM     19  C   UNL     1       5.420   3.441  13.784  0.00  0.00    +0.000 A 
BRANCH  14  21
ATOM     20  O   UNL     1       4.086   2.900  11.049  0.00  0.00    +0.000 OA
ATOM     21  N   UNL     1       5.172   2.512  11.504  0.00  0.00    +0.000 N 
ATOM     22  O   UNL     1       5.715   1.440  11.203  0.00  0.00    +0.000 OA
ENDBRANCH  14  21
BRANCH  17  23
ATOM     23  O   UNL     1       7.800   5.820  15.202  0.00  0.00    +0.000 OA
ATOM     24  H   UNL     1       8.761   5.756  15.063  0.00  0.00    +0.000 HD
ENDBRANCH  17  23
ENDBRANCH   1  18
TORSDOF 4
ENDMDL
MODEL 9
REMARK VINA RESULT:      -7.3      1.036      1.269
REMARK  Name = 
REMARK  4 active torsions:
REMARK  status: ('A' for Active; 'I' for Inactive)
REMARK    1  A    between atoms: N_2  and  C_4
REMARK    2  A    between atoms: C_7  and  O_8
REMARK    3  A    between atoms: C_9  and  N_10
REMARK    4  A    between atoms: N_10  and  C_11
REMARK                            x       y       z     vdW  Elec       q    Type
REMARK                         _______ _______ _______ _____ _____    ______ ____
ROOT
ATOM      1  N   UNL     1       2.864   6.467  20.032  0.00  0.00    +0.000 N 
ATOM      2  H   UNL     1       3.478   6.565  20.840  0.00  0.00    +0.000 HD
ENDROOT
BRANCH   1   3
ATOM      3  C   UNL     1       2.367   5.145  19.928  0.00  0.00    +0.000 A 
ATOM      4  N   UNL     1       1.356   4.776  20.737  0.00  0.00    +0.000 NA
ATOM      5  C   UNL     1       0.906   3.526  20.611  0.00  0.00    +0.000 A 
ATOM      6  N   UNL     1       1.364   2.605  19.756  0.00  0.00    +0.000 NA
ATOM      7  C   UNL     1       2.354   2.984  18.946  0.00  0.00    +0.000 A 
ATOM      8  C   UNL     1       2.827   2.072  18.012  0.00  0.00    +0.000 A 
ATOM      9  C   UNL     1       3.837   2.401  17.103  0.00  0.00    +0.000 A 
ATOM     10  C   UNL     1       4.391   3.672  17.132  0.00  0.00    +0.000 A 
ATOM     11 BR   UNL     1       5.735   4.143  15.890  0.00  0.00    +0.000 Br
ATOM     12  C   UNL     1       3.948   4.606  18.064  0.00  0.00    +0.000 A 
ATOM     13  C   UNL     1       2.921   4.268  18.981  0.00  0.00    +0.000 A 
ENDBRANCH   1   3
BRANCH   1  18
ATOM     14  C   UNL     1       0.515   9.291  20.654  0.00  0.00    +0.000 A 
ATOM     15  C   UNL     1       0.527   9.939  19.412  0.00  0.00    +0.000 A 
ATOM     16  C   UNL     1       1.319   9.433  18.377  0.00  0.00    +0.000 A 
ATOM     17  C   UNL     1       2.092   8.291  18.598  0.00  0.00    +0.000 A 
ATOM     18  C   UNL     1       2.103   7.645  19.846  0.00  0.00    +0.000 A 
ATOM     19  C   UNL     1       1.290   8.148  20.869  0.00  0.00    +0.000 A 
BRANCH  14  21
ATOM     20  O   UNL     1      -0.454   9.101  22.753  0.00  0.00    +0.000 OA
ATOM     21  N   UNL     1      -0.327   9.805  21.741  0.00  0.00    +0.000 N 
ATOM     22  O   UNL     1      -0.860  10.914  21.589  0.00  0.00    +0.000 OA
ENDBRANCH  14  21
BRANCH  17  23
ATOM     23  O   UNL     1       2.881   7.780  17.602  0.00  0.00    +0.000 OA
ATOM     24  H   UNL     1       3.782   7.661  17.951  0.00  0.00    +0.000 HD
ENDBRANCH  17  23
ENDBRANCH   1  18
TORSDOF 4
ENDMDL
