MODEL 1
REMARK VINA RESULT:      -5.4      0.000      0.000
REMARK  Name = 
REMARK  29 active torsions:
REMARK  status: ('A' for Active; 'I' for Inactive)
REMARK    1  A    between atoms: C_1  and  C_2
REMARK    2  A    between atoms: C_2  and  C_3
REMARK    3  A    between atoms: C_3  and  C_4
REMARK    4  A    between atoms: C_4  and  C_5
REMARK    5  A    between atoms: C_5  and  C_6
REMARK    6  A    between atoms: C_6  and  C_7
REMARK    7  A    between atoms: C_7  and  C_8
REMARK    8  A    between atoms: C_8  and  C_9
REMARK    9  A    between atoms: C_9  and  C_10
REMARK   10  A    between atoms: C_10  and  C_11
REMARK   11  A    between atoms: C_11  and  C_12
REMARK   12  A    between atoms: C_12  and  C_13
REMARK   13  A    between atoms: C_13  and  C_14
REMARK   14  A    between atoms: C_14  and  C_15
REMARK   15  A    between atoms: C_15  and  C_16
REMARK   16  A    between atoms: C_16  and  O_17
REMARK   17  A    between atoms: O_17  and  C_18
REMARK   18  A    between atoms: C_18  and  C_19
REMARK   19  A    between atoms: C_19  and  O_20
REMARK   20  A    between atoms: C_19  and  C_21
REMARK   21  A    between atoms: C_21  and  O_22
REMARK   22  A    between atoms: O_22  and  P_23
REMARK   23  A    between atoms: P_23  and  O_26
REMARK   24  A    between atoms: O_26  and  C_27
REMARK   25  A    between atoms: C_27  and  C_28
REMARK   26  A    between atoms: C_28  and  N_29
REMARK   27  A    between atoms: N_29  and  C_30
REMARK   28  A    between atoms: N_29  and  C_31
REMARK   29  A    between atoms: N_29  and  C_32
REMARK                            x       y       z     vdW  Elec       q    Type
REMARK                         _______ _______ _______ _____ _____    ______ ____
ROOT
ATOM      1  O   UNL     1       1.336   6.180  20.576  0.00  0.00    +0.000 OA
ENDROOT
BRANCH   1   2
ATOM      2  C   UNL     1       1.813   7.517  20.602  0.00  0.00    +0.000 C 
BRANCH   2   3
ATOM      3  C   UNL     1       0.699   8.379  21.146  0.00  0.00    +0.000 C 
BRANCH   3   4
ATOM      4  O   UNL     1      -0.397   7.535  21.547  0.00  0.00    +0.000 OA
ATOM      5  H   UNL     1      -0.206   7.135  22.414  0.00  0.00    +0.000 HD
ENDBRANCH   3   4
BRANCH   3   6
ATOM      6  C   UNL     1       1.254   9.201  22.288  0.00  0.00    +0.000 C 
BRANCH   6   7
ATOM      7  O   UNL     1       1.327  10.621  21.937  0.00  0.00    +0.000 OA
BRANCH   7   8
ATOM      8  P   UNL     1      -0.232  11.361  21.810  0.00  0.00    +0.000 P 
ATOM      9  O   UNL     1      -0.538  10.816  23.212  0.00  0.00    +0.000 OA
ATOM     10  O   UNL     1       0.415  12.709  21.462  0.00  0.00    +0.000 OA
BRANCH   8  11
ATOM     11  O   UNL     1      -1.791  12.101  21.685  0.00  0.00    +0.000 OA
BRANCH  11  12
ATOM     12  C   UNL     1      -2.370  12.389  22.942  0.00  0.00    +0.000 C 
BRANCH  12  13
ATOM     13  C   UNL     1      -2.576  13.860  23.202  0.00  0.00    +0.000 C 
BRANCH  13  14
ATOM     14  N   UNL     1      -3.679  14.050  24.255  0.00  0.00    +0.000 N 
ATOM     15  C   UNL     1      -4.857  14.881  23.709  0.00  0.00    +0.000 C 
ATOM     16  C   UNL     1      -4.211  12.705  24.770  0.00  0.00    +0.000 C 
ATOM     17  C   UNL     1      -3.068  14.814  25.437  0.00  0.00    +0.000 C 
ENDBRANCH  13  14
ENDBRANCH  12  13
ENDBRANCH  11  12
ENDBRANCH   8  11
ENDBRANCH   7   8
ENDBRANCH   6   7
ENDBRANCH   3   6
ENDBRANCH   2   3
ENDBRANCH   1   2
BRANCH   1  18
ATOM     18  C   UNL     1       2.388   5.298  20.916  0.00  0.00    +0.000 C 
BRANCH  18  19
ATOM     19  C   UNL     1       1.803   3.915  21.082  0.00  0.00    +0.000 C 
BRANCH  19  20
ATOM     20  C   UNL     1       0.591   3.774  20.182  0.00  0.00    +0.000 C 
BRANCH  20  21
ATOM     21  C   UNL     1       0.874   2.787  19.067  0.00  0.00    +0.000 C 
BRANCH  21  22
ATOM     22  C   UNL     1       2.090   1.950  19.417  0.00  0.00    +0.000 C 
BRANCH  22  23
ATOM     23  C   UNL     1       3.020   1.873  18.222  0.00  0.00    +0.000 C 
BRANCH  23  24
ATOM     24  C   UNL     1       3.898   3.116  18.167  0.00  0.00    +0.000 C 
BRANCH  24  25
ATOM     25  C   UNL     1       3.309   4.124  17.199  0.00  0.00    +0.000 C 
BRANCH  25  26
ATOM     26  C   UNL     1       3.652   5.533  17.646  0.00  0.00    +0.000 C 
BRANCH  26  27
ATOM     27  C   UNL     1       5.131   5.799  17.434  0.00  0.00    +0.000 C 
BRANCH  27  28
ATOM     28  C   UNL     1       5.423   5.963  15.953  0.00  0.00    +0.000 C 
BRANCH  28  29
ATOM     29  C   UNL     1       6.628   5.124  15.563  0.00  0.00    +0.000 C 
BRANCH  29  30
ATOM     30  C   UNL     1       6.175   3.816  14.932  0.00  0.00    +0.000 C 
BRANCH  30  31
ATOM     31  C   UNL     1       5.489   4.083  13.601  0.00  0.00    +0.000 C 
BRANCH  31  33
ATOM     32  C   UNL     1       7.274   4.381  11.875  0.00  0.00    +0.000 C 
ATOM     33  C   UNL     1       6.252   3.423  12.461  0.00  0.00    +0.000 C 
ENDBRANCH  31  33
ENDBRANCH  30  31
ENDBRANCH  29  30
ENDBRANCH  28  29
ENDBRANCH  27  28
ENDBRANCH  26  27
ENDBRANCH  25  26
ENDBRANCH  24  25
ENDBRANCH  23  24
ENDBRANCH  22  23
ENDBRANCH  21  22
ENDBRANCH  20  21
ENDBRANCH  19  20
ENDBRANCH  18  19
ENDBRANCH   1  18
TORSDOF 25
ENDMDL
MODEL 2
REMARK VINA RESULT:      -5.4      4.909     10.638
REMARK  Name = 
REMARK  29 active torsions:
REMARK  status: ('A' for Active; 'I' for Inactive)
REMARK    1  A    between atoms: C_1  and  C_2
REMARK    2  A    between atoms: C_2  and  C_3
REMARK    3  A    between atoms: C_3  and  C_4
REMARK    4  A    between atoms: C_4  and  C_5
REMARK    5  A    between atoms: C_5  and  C_6
REMARK    6  A    between atoms: C_6  and  C_7
REMARK    7  A    between atoms: C_7  and  C_8
REMARK    8  A    between atoms: C_8  and  C_9
REMARK    9  A    between atoms: C_9  and  C_10
REMARK   10  A    between atoms: C_10  and  C_11
REMARK   11  A    between atoms: C_11  and  C_12
REMARK   12  A    between atoms: C_12  and  C_13
REMARK   13  A    between atoms: C_13  and  C_14
REMARK   14  A    between atoms: C_14  and  C_15
REMARK   15  A    between atoms: C_15  and  C_16
REMARK   16  A    between atoms: C_16  and  O_17
REMARK   17  A    between atoms: O_17  and  C_18
REMARK   18  A    between atoms: C_18  and  C_19
REMARK   19  A    between atoms: C_19  and  O_20
REMARK   20  A    between atoms: C_19  and  C_21
REMARK   21  A    between atoms: C_21  and  O_22
REMARK   22  A    between atoms: O_22  and  P_23
REMARK   23  A    between atoms: P_23  and  O_26
REMARK   24  A    between atoms: O_26  and  C_27
REMARK   25  A    between atoms: C_27  and  C_28
REMARK   26  A    between atoms: C_28  and  N_29
REMARK   27  A    between atoms: N_29  and  C_30
REMARK   28  A    between atoms: N_29  and  C_31
REMARK   29  A    between atoms: N_29  and  C_32
REMARK                            x       y       z     vdW  Elec       q    Type
REMARK                         _______ _______ _______ _____ _____    ______ ____
ROOT
ATOM      1  O   UNL     1       3.416   6.859  18.073  0.00  0.00    +0.000 OA
ENDROOT
BRANCH   1   2
ATOM      2  C   UNL     1       4.280   7.683  17.307  0.00  0.00    +0.000 C 
BRANCH   2   3
ATOM      3  C   UNL     1       5.425   6.817  16.839  0.00  0.00    +0.000 C 
BRANCH   3   4
ATOM      4  O   UNL     1       5.353   6.672  15.408  0.00  0.00    +0.000 OA
ATOM      5  H   UNL     1       6.056   6.072  15.102  0.00  0.00    +0.000 HD
ENDBRANCH   3   4
BRANCH   3   6
ATOM      6  C   UNL     1       6.717   7.456  17.299  0.00  0.00    +0.000 C 
BRANCH   6   7
ATOM      7  O   UNL     1       7.596   6.477  17.944  0.00  0.00    +0.000 OA
BRANCH   7   8
ATOM      8  P   UNL     1       6.746   5.072  18.490  0.00  0.00    +0.000 P 
ATOM      9  O   UNL     1       7.763   4.227  17.708  0.00  0.00    +0.000 OA
ATOM     10  O   UNL     1       6.861   5.544  19.946  0.00  0.00    +0.000 OA
BRANCH   8  11
ATOM     11  O   UNL     1       5.898   3.666  19.035  0.00  0.00    +0.000 OA
BRANCH  11  12
ATOM     12  C   UNL     1       4.534   3.662  18.660  0.00  0.00    +0.000 C 
BRANCH  12  13
ATOM     13  C   UNL     1       3.579   3.826  19.815  0.00  0.00    +0.000 C 
BRANCH  13  14
ATOM     14  N   UNL     1       2.278   3.062  19.524  0.00  0.00    +0.000 N 
ATOM     15  C   UNL     1       2.545   1.731  18.792  0.00  0.00    +0.000 C 
ATOM     16  C   UNL     1       1.487   2.777  20.808  0.00  0.00    +0.000 C 
ATOM     17  C   UNL     1       1.415   3.941  18.608  0.00  0.00    +0.000 C 
ENDBRANCH  13  14
ENDBRANCH  12  13
ENDBRANCH  11  12
ENDBRANCH   8  11
ENDBRANCH   7   8
ENDBRANCH   6   7
ENDBRANCH   3   6
ENDBRANCH   2   3
ENDBRANCH   1   2
BRANCH   1  18
ATOM     18  C   UNL     1       2.369   7.643  18.609  0.00  0.00    +0.000 C 
BRANCH  18  19
ATOM     19  C   UNL     1       2.187   8.852  17.721  0.00  0.00    +0.000 C 
BRANCH  19  20
ATOM     20  C   UNL     1       1.118   9.749  18.312  0.00  0.00    +0.000 C 
BRANCH  20  21
ATOM     21  C   UNL     1       0.876   9.394  19.766  0.00  0.00    +0.000 C 
BRANCH  21  22
ATOM     22  C   UNL     1      -0.370  10.101  20.266  0.00  0.00    +0.000 C 
BRANCH  22  23
ATOM     23  C   UNL     1       0.009  11.439  20.874  0.00  0.00    +0.000 C 
BRANCH  23  24
ATOM     24  C   UNL     1      -0.465  12.570  19.972  0.00  0.00    +0.000 C 
BRANCH  24  25
ATOM     25  C   UNL     1      -1.964  12.473  19.763  0.00  0.00    +0.000 C 
BRANCH  25  26
ATOM     26  C   UNL     1      -2.694  13.062  20.955  0.00  0.00    +0.000 C 
BRANCH  26  27
ATOM     27  C   UNL     1      -4.134  12.581  20.972  0.00  0.00    +0.000 C 
BRANCH  27  28
ATOM     28  C   UNL     1      -4.781  12.829  19.621  0.00  0.00    +0.000 C 
BRANCH  28  29
ATOM     29  C   UNL     1      -5.458  11.562  19.127  0.00  0.00    +0.000 C 
BRANCH  29  30
ATOM     30  C   UNL     1      -5.569  11.583  17.611  0.00  0.00    +0.000 C 
BRANCH  30  31
ATOM     31  C   UNL     1      -4.201  11.378  16.979  0.00  0.00    +0.000 C 
BRANCH  31  33
ATOM     32  C   UNL     1      -2.151   9.947  16.961  0.00  0.00    +0.000 C 
ATOM     33  C   UNL     1      -3.587  10.063  17.439  0.00  0.00    +0.000 C 
ENDBRANCH  31  33
ENDBRANCH  30  31
ENDBRANCH  29  30
ENDBRANCH  28  29
ENDBRANCH  27  28
ENDBRANCH  26  27
ENDBRANCH  25  26
ENDBRANCH  24  25
ENDBRANCH  23  24
ENDBRANCH  22  23
ENDBRANCH  21  22
ENDBRANCH  20  21
ENDBRANCH  19  20
ENDBRANCH  18  19
ENDBRANCH   1  18
TORSDOF 25
ENDMDL
MODEL 3
REMARK VINA RESULT:      -5.3      3.033      4.338
REMARK  Name = 
REMARK  29 active torsions:
REMARK  status: ('A' for Active; 'I' for Inactive)
REMARK    1  A    between atoms: C_1  and  C_2
REMARK    2  A    between atoms: C_2  and  C_3
REMARK    3  A    between atoms: C_3  and  C_4
REMARK    4  A    between atoms: C_4  and  C_5
REMARK    5  A    between atoms: C_5  and  C_6
REMARK    6  A    between atoms: C_6  and  C_7
REMARK    7  A    between atoms: C_7  and  C_8
REMARK    8  A    between atoms: C_8  and  C_9
REMARK    9  A    between atoms: C_9  and  C_10
REMARK   10  A    between atoms: C_10  and  C_11
REMARK   11  A    between atoms: C_11  and  C_12
REMARK   12  A    between atoms: C_12  and  C_13
REMARK   13  A    between atoms: C_13  and  C_14
REMARK   14  A    between atoms: C_14  and  C_15
REMARK   15  A    between atoms: C_15  and  C_16
REMARK   16  A    between atoms: C_16  and  O_17
REMARK   17  A    between atoms: O_17  and  C_18
REMARK   18  A    between atoms: C_18  and  C_19
REMARK   19  A    between atoms: C_19  and  O_20
REMARK   20  A    between atoms: C_19  and  C_21
REMARK   21  A    between atoms: C_21  and  O_22
REMARK   22  A    between atoms: O_22  and  P_23
REMARK   23  A    between atoms: P_23  and  O_26
REMARK   24  A    between atoms: O_26  and  C_27
REMARK   25  A    between atoms: C_27  and  C_28
REMARK   26  A    between atoms: C_28  and  N_29
REMARK   27  A    between atoms: N_29  and  C_30
REMARK   28  A    between atoms: N_29  and  C_31
REMARK   29  A    between atoms: N_29  and  C_32
REMARK                            x       y       z     vdW  Elec       q    Type
REMARK                         _______ _______ _______ _____ _____    ______ ____
ROOT
ATOM      1  O   UNL     1       1.972   8.649  18.712  0.00  0.00    +0.000 OA
ENDROOT
BRANCH   1   2
ATOM      2  C   UNL     1       1.911   9.947  18.141  0.00  0.00    +0.000 C 
BRANCH   2   3
ATOM      3  C   UNL     1       0.665  10.612  18.675  0.00  0.00    +0.000 C 
BRANCH   3   4
ATOM      4  O   UNL     1      -0.433  10.342  17.783  0.00  0.00    +0.000 OA
ATOM      5  H   UNL     1      -0.123  10.369  16.860  0.00  0.00    +0.000 HD
ENDBRANCH   3   4
BRANCH   3   6
ATOM      6  C   UNL     1       0.421  10.100  20.077  0.00  0.00    +0.000 C 
BRANCH   6   7
ATOM      7  O   UNL     1      -0.870  10.557  20.595  0.00  0.00    +0.000 OA
BRANCH   7   8
ATOM      8  P   UNL     1      -0.837  12.208  21.114  0.00  0.00    +0.000 P 
ATOM      9  O   UNL     1      -2.344  12.266  20.830  0.00  0.00    +0.000 OA
ATOM     10  O   UNL     1      -0.158  11.800  22.430  0.00  0.00    +0.000 OA
BRANCH   8  11
ATOM     11  O   UNL     1      -0.804  13.858  21.634  0.00  0.00    +0.000 OA
BRANCH  11  12
ATOM     12  C   UNL     1       0.502  14.327  21.905  0.00  0.00    +0.000 C 
BRANCH  12  13
ATOM     13  C   UNL     1       0.980  15.398  20.958  0.00  0.00    +0.000 C 
BRANCH  13  14
ATOM     14  N   UNL     1       2.045  14.818  20.014  0.00  0.00    +0.000 N 
ATOM     15  C   UNL     1       2.770  13.609  20.640  0.00  0.00    +0.000 C 
ATOM     16  C   UNL     1       1.440  14.397  18.667  0.00  0.00    +0.000 C 
ATOM     17  C   UNL     1       3.087  15.914  19.756  0.00  0.00    +0.000 C 
ENDBRANCH  13  14
ENDBRANCH  12  13
ENDBRANCH  11  12
ENDBRANCH   8  11
ENDBRANCH   7   8
ENDBRANCH   6   7
ENDBRANCH   3   6
ENDBRANCH   2   3
ENDBRANCH   1   2
BRANCH   1  18
ATOM     18  C   UNL     1       2.416   7.725  17.738  0.00  0.00    +0.000 C 
BRANCH  18  19
ATOM     19  C   UNL     1       2.526   6.369  18.394  0.00  0.00    +0.000 C 
BRANCH  19  20
ATOM     20  C   UNL     1       2.354   6.524  19.892  0.00  0.00    +0.000 C 
BRANCH  20  21
ATOM     21  C   UNL     1       1.417   5.461  20.429  0.00  0.00    +0.000 C 
BRANCH  21  22
ATOM     22  C   UNL     1       2.204   4.436  21.223  0.00  0.00    +0.000 C 
BRANCH  22  23
ATOM     23  C   UNL     1       1.910   3.044  20.697  0.00  0.00    +0.000 C 
BRANCH  23  24
ATOM     24  C   UNL     1       1.087   3.136  19.420  0.00  0.00    +0.000 C 
BRANCH  24  25
ATOM     25  C   UNL     1       1.880   2.584  18.250  0.00  0.00    +0.000 C 
BRANCH  25  26
ATOM     26  C   UNL     1       3.240   2.109  18.725  0.00  0.00    +0.000 C 
BRANCH  26  27
ATOM     27  C   UNL     1       4.304   3.128  18.355  0.00  0.00    +0.000 C 
BRANCH  27  28
ATOM     28  C   UNL     1       4.191   3.485  16.883  0.00  0.00    +0.000 C 
BRANCH  28  29
ATOM     29  C   UNL     1       5.472   4.151  16.410  0.00  0.00    +0.000 C 
BRANCH  29  30
ATOM     30  C   UNL     1       5.168   5.531  15.847  0.00  0.00    +0.000 C 
BRANCH  30  31
ATOM     31  C   UNL     1       5.841   6.604  16.690  0.00  0.00    +0.000 C 
BRANCH  31  33
ATOM     32  C   UNL     1       7.796   7.032  18.188  0.00  0.00    +0.000 C 
ATOM     33  C   UNL     1       6.838   5.981  17.657  0.00  0.00    +0.000 C 
ENDBRANCH  31  33
ENDBRANCH  30  31
ENDBRANCH  29  30
ENDBRANCH  28  29
ENDBRANCH  27  28
ENDBRANCH  26  27
ENDBRANCH  25  26
ENDBRANCH  24  25
ENDBRANCH  23  24
ENDBRANCH  22  23
ENDBRANCH  21  22
ENDBRANCH  20  21
ENDBRANCH  19  20
ENDBRANCH  18  19
ENDBRANCH   1  18
TORSDOF 25
ENDMDL
MODEL 4
REMARK VINA RESULT:      -5.2      4.819     10.157
REMARK  Name = 
REMARK  29 active torsions:
REMARK  status: ('A' for Active; 'I' for Inactive)
REMARK    1  A    between atoms: C_1  and  C_2
REMARK    2  A    between atoms: C_2  and  C_3
REMARK    3  A    between atoms: C_3  and  C_4
REMARK    4  A    between atoms: C_4  and  C_5
REMARK    5  A    between atoms: C_5  and  C_6
REMARK    6  A    between atoms: C_6  and  C_7
REMARK    7  A    between atoms: C_7  and  C_8
REMARK    8  A    between atoms: C_8  and  C_9
REMARK    9  A    between atoms: C_9  and  C_10
REMARK   10  A    between atoms: C_10  and  C_11
REMARK   11  A    between atoms: C_11  and  C_12
REMARK   12  A    between atoms: C_12  and  C_13
REMARK   13  A    between atoms: C_13  and  C_14
REMARK   14  A    between atoms: C_14  and  C_15
REMARK   15  A    between atoms: C_15  and  C_16
REMARK   16  A    between atoms: C_16  and  O_17
REMARK   17  A    between atoms: O_17  and  C_18
REMARK   18  A    between atoms: C_18  and  C_19
REMARK   19  A    between atoms: C_19  and  O_20
REMARK   20  A    between atoms: C_19  and  C_21
REMARK   21  A    between atoms: C_21  and  O_22
REMARK   22  A    between atoms: O_22  and  P_23
REMARK   23  A    between atoms: P_23  and  O_26
REMARK   24  A    between atoms: O_26  and  C_27
REMARK   25  A    between atoms: C_27  and  C_28
REMARK   26  A    between atoms: C_28  and  N_29
REMARK   27  A    between atoms: N_29  and  C_30
REMARK   28  A    between atoms: N_29  and  C_31
REMARK   29  A    between atoms: N_29  and  C_32
REMARK                            x       y       z     vdW  Elec       q    Type
REMARK                         _______ _______ _______ _____ _____    ______ ____
ROOT
ATOM      1  O   UNL     1       3.879   6.775  17.142  0.00  0.00    +0.000 OA
ENDROOT
BRANCH   1   2
ATOM      2  C   UNL     1       4.800   7.083  16.107  0.00  0.00    +0.000 C 
BRANCH   2   3
ATOM      3  C   UNL     1       6.060   6.298  16.382  0.00  0.00    +0.000 C 
BRANCH   3   4
ATOM      4  O   UNL     1       6.552   5.746  15.145  0.00  0.00    +0.000 OA
ATOM      5  H   UNL     1       5.856   5.212  14.723  0.00  0.00    +0.000 HD
ENDBRANCH   3   4
BRANCH   3   6
ATOM      6  C   UNL     1       7.056   7.221  17.048  0.00  0.00    +0.000 C 
BRANCH   6   7
ATOM      7  O   UNL     1       7.761   6.547  18.140  0.00  0.00    +0.000 OA
BRANCH   7   8
ATOM      8  P   UNL     1       6.905   5.169  18.741  0.00  0.00    +0.000 P 
ATOM      9  O   UNL     1       7.748   4.305  17.791  0.00  0.00    +0.000 OA
ATOM     10  O   UNL     1       7.247   5.561  20.185  0.00  0.00    +0.000 OA
BRANCH   8  11
ATOM     11  O   UNL     1       6.049   3.789  19.341  0.00  0.00    +0.000 OA
BRANCH  11  12
ATOM     12  C   UNL     1       4.667   4.030  19.518  0.00  0.00    +0.000 C 
BRANCH  12  13
ATOM     13  C   UNL     1       3.811   3.589  18.358  0.00  0.00    +0.000 C 
BRANCH  13  14
ATOM     14  N   UNL     1       2.340   3.524  18.795  0.00  0.00    +0.000 N 
ATOM     15  C   UNL     1       2.098   4.282  20.115  0.00  0.00    +0.000 C 
ATOM     16  C   UNL     1       1.402   4.085  17.716  0.00  0.00    +0.000 C 
ATOM     17  C   UNL     1       1.986   2.048  19.024  0.00  0.00    +0.000 C 
ENDBRANCH  13  14
ENDBRANCH  12  13
ENDBRANCH  11  12
ENDBRANCH   8  11
ENDBRANCH   7   8
ENDBRANCH   6   7
ENDBRANCH   3   6
ENDBRANCH   2   3
ENDBRANCH   1   2
BRANCH   1  18
ATOM     18  C   UNL     1       3.309   7.970  17.637  0.00  0.00    +0.000 C 
BRANCH  18  19
ATOM     19  C   UNL     1       2.170   7.600  18.559  0.00  0.00    +0.000 C 
BRANCH  19  20
ATOM     20  C   UNL     1       1.906   8.748  19.511  0.00  0.00    +0.000 C 
BRANCH  20  21
ATOM     21  C   UNL     1       1.173   8.254  20.743  0.00  0.00    +0.000 C 
BRANCH  21  22
ATOM     22  C   UNL     1      -0.137   9.005  20.897  0.00  0.00    +0.000 C 
BRANCH  22  23
ATOM     23  C   UNL     1      -0.578   8.973  22.348  0.00  0.00    +0.000 C 
BRANCH  23  24
ATOM     24  C   UNL     1      -0.261  10.304  23.015  0.00  0.00    +0.000 C 
BRANCH  24  25
ATOM     25  C   UNL     1      -1.501  11.178  23.044  0.00  0.00    +0.000 C 
BRANCH  25  26
ATOM     26  C   UNL     1      -1.333  12.348  22.094  0.00  0.00    +0.000 C 
BRANCH  26  27
ATOM     27  C   UNL     1      -2.688  12.800  21.581  0.00  0.00    +0.000 C 
BRANCH  27  28
ATOM     28  C   UNL     1      -2.833  12.444  20.111  0.00  0.00    +0.000 C 
BRANCH  28  29
ATOM     29  C   UNL     1      -1.462  12.259  19.483  0.00  0.00    +0.000 C 
BRANCH  29  30
ATOM     30  C   UNL     1      -1.604  11.821  18.034  0.00  0.00    +0.000 C 
BRANCH  30  31
ATOM     31  C   UNL     1      -1.656  10.304  17.944  0.00  0.00    +0.000 C 
BRANCH  31  33
ATOM     32  C   UNL     1      -2.952   9.826  15.859  0.00  0.00    +0.000 C 
ATOM     33  C   UNL     1      -2.992   9.843  17.377  0.00  0.00    +0.000 C 
ENDBRANCH  31  33
ENDBRANCH  30  31
ENDBRANCH  29  30
ENDBRANCH  28  29
ENDBRANCH  27  28
ENDBRANCH  26  27
ENDBRANCH  25  26
ENDBRANCH  24  25
ENDBRANCH  23  24
ENDBRANCH  22  23
ENDBRANCH  21  22
ENDBRANCH  20  21
ENDBRANCH  19  20
ENDBRANCH  18  19
ENDBRANCH   1  18
TORSDOF 25
ENDMDL
MODEL 5
REMARK VINA RESULT:      -5.2      1.823      2.944
REMARK  Name = 
REMARK  29 active torsions:
REMARK  status: ('A' for Active; 'I' for Inactive)
REMARK    1  A    between atoms: C_1  and  C_2
REMARK    2  A    between atoms: C_2  and  C_3
REMARK    3  A    between atoms: C_3  and  C_4
REMARK    4  A    between atoms: C_4  and  C_5
REMARK    5  A    between atoms: C_5  and  C_6
REMARK    6  A    between atoms: C_6  and  C_7
REMARK    7  A    between atoms: C_7  and  C_8
REMARK    8  A    between atoms: C_8  and  C_9
REMARK    9  A    between atoms: C_9  and  C_10
REMARK   10  A    between atoms: C_10  and  C_11
REMARK   11  A    between atoms: C_11  and  C_12
REMARK   12  A    between atoms: C_12  and  C_13
REMARK   13  A    between atoms: C_13  and  C_14
REMARK   14  A    between atoms: C_14  and  C_15
REMARK   15  A    between atoms: C_15  and  C_16
REMARK   16  A    between atoms: C_16  and  O_17
REMARK   17  A    between atoms: O_17  and  C_18
REMARK   18  A    between atoms: C_18  and  C_19
REMARK   19  A    between atoms: C_19  and  O_20
REMARK   20  A    between atoms: C_19  and  C_21
REMARK   21  A    between atoms: C_21  and  O_22
REMARK   22  A    between atoms: O_22  and  P_23
REMARK   23  A    between atoms: P_23  and  O_26
REMARK   24  A    between atoms: O_26  and  C_27
REMARK   25  A    between atoms: C_27  and  C_28
REMARK   26  A    between atoms: C_28  and  N_29
REMARK   27  A    between atoms: N_29  and  C_30
REMARK   28  A    between atoms: N_29  and  C_31
REMARK   29  A    between atoms: N_29  and  C_32
REMARK                            x       y       z     vdW  Elec       q    Type
REMARK                         _______ _______ _______ _____ _____    ______ ____
ROOT
ATOM      1  O   UNL     1       2.579   4.876  20.678  0.00  0.00    +0.000 OA
ENDROOT
BRANCH   1   2
ATOM      2  C   UNL     1       1.693   5.752  19.997  0.00  0.00    +0.000 C 
BRANCH   2   3
ATOM      3  C   UNL     1       2.386   7.089  19.884  0.00  0.00    +0.000 C 
BRANCH   3   4
ATOM      4  O   UNL     1       2.030   7.700  18.629  0.00  0.00    +0.000 OA
ATOM      5  H   UNL     1       2.775   7.629  18.005  0.00  0.00    +0.000 HD
ENDBRANCH   3   4
BRANCH   3   6
ATOM      6  C   UNL     1       1.989   7.928  21.078  0.00  0.00    +0.000 C 
BRANCH   6   7
ATOM      7  O   UNL     1       0.569   8.285  21.031  0.00  0.00    +0.000 OA
BRANCH   7   8
ATOM      8  P   UNL     1       0.146   9.502  22.185  0.00  0.00    +0.000 P 
ATOM      9  O   UNL     1      -0.881   8.516  22.759  0.00  0.00    +0.000 OA
ATOM     10  O   UNL     1       1.617   9.651  22.597  0.00  0.00    +0.000 OA
BRANCH   8  11
ATOM     11  O   UNL     1      -0.278  10.719  23.340  0.00  0.00    +0.000 OA
BRANCH  11  12
ATOM     12  C   UNL     1      -1.165  11.690  22.821  0.00  0.00    +0.000 C 
BRANCH  12  13
ATOM     13  C   UNL     1      -1.605  11.426  21.403  0.00  0.00    +0.000 C 
BRANCH  13  14
ATOM     14  N   UNL     1      -1.902  12.758  20.696  0.00  0.00    +0.000 N 
ATOM     15  C   UNL     1      -0.677  13.282  19.920  0.00  0.00    +0.000 C 
ATOM     16  C   UNL     1      -3.091  12.637  19.733  0.00  0.00    +0.000 C 
ATOM     17  C   UNL     1      -2.256  13.790  21.776  0.00  0.00    +0.000 C 
ENDBRANCH  13  14
ENDBRANCH  12  13
ENDBRANCH  11  12
ENDBRANCH   8  11
ENDBRANCH   7   8
ENDBRANCH   6   7
ENDBRANCH   3   6
ENDBRANCH   2   3
ENDBRANCH   1   2
BRANCH   1  18
ATOM     18  C   UNL     1       1.853   3.776  21.190  0.00  0.00    +0.000 C 
BRANCH  18  19
ATOM     19  C   UNL     1       1.252   3.028  20.022  0.00  0.00    +0.000 C 
BRANCH  19  20
ATOM     20  C   UNL     1       2.325   2.182  19.366  0.00  0.00    +0.000 C 
BRANCH  20  21
ATOM     21  C   UNL     1       2.243   2.303  17.857  0.00  0.00    +0.000 C 
BRANCH  21  22
ATOM     22  C   UNL     1       2.743   3.668  17.424  0.00  0.00    +0.000 C 
BRANCH  22  23
ATOM     23  C   UNL     1       4.259   3.670  17.388  0.00  0.00    +0.000 C 
BRANCH  23  24
ATOM     24  C   UNL     1       4.790   4.966  17.986  0.00  0.00    +0.000 C 
BRANCH  24  25
ATOM     25  C   UNL     1       4.764   6.067  16.943  0.00  0.00    +0.000 C 
BRANCH  25  26
ATOM     26  C   UNL     1       5.050   5.488  15.571  0.00  0.00    +0.000 C 
BRANCH  26  27
ATOM     27  C   UNL     1       6.545   5.305  15.386  0.00  0.00    +0.000 C 
BRANCH  27  28
ATOM     28  C   UNL     1       6.819   4.053  14.571  0.00  0.00    +0.000 C 
BRANCH  28  29
ATOM     29  C   UNL     1       5.880   3.992  13.379  0.00  0.00    +0.000 C 
BRANCH  29  30
ATOM     30  C   UNL     1       6.429   3.041  12.327  0.00  0.00    +0.000 C 
BRANCH  30  31
ATOM     31  C   UNL     1       5.311   2.564  11.413  0.00  0.00    +0.000 C 
BRANCH  31  33
ATOM     32  C   UNL     1       3.114   3.176  10.388  0.00  0.00    +0.000 C 
ATOM     33  C   UNL     1       4.130   3.524  11.460  0.00  0.00    +0.000 C 
ENDBRANCH  31  33
ENDBRANCH  30  31
ENDBRANCH  29  30
ENDBRANCH  28  29
ENDBRANCH  27  28
ENDBRANCH  26  27
ENDBRANCH  25  26
ENDBRANCH  24  25
ENDBRANCH  23  24
ENDBRANCH  22  23
ENDBRANCH  21  22
ENDBRANCH  20  21
ENDBRANCH  19  20
ENDBRANCH  18  19
ENDBRANCH   1  18
TORSDOF 25
ENDMDL
MODEL 6
REMARK VINA RESULT:      -5.2      1.993      3.321
REMARK  Name = 
REMARK  29 active torsions:
REMARK  status: ('A' for Active; 'I' for Inactive)
REMARK    1  A    between atoms: C_1  and  C_2
REMARK    2  A    between atoms: C_2  and  C_3
REMARK    3  A    between atoms: C_3  and  C_4
REMARK    4  A    between atoms: C_4  and  C_5
REMARK    5  A    between atoms: C_5  and  C_6
REMARK    6  A    between atoms: C_6  and  C_7
REMARK    7  A    between atoms: C_7  and  C_8
REMARK    8  A    between atoms: C_8  and  C_9
REMARK    9  A    between atoms: C_9  and  C_10
REMARK   10  A    between atoms: C_10  and  C_11
REMARK   11  A    between atoms: C_11  and  C_12
REMARK   12  A    between atoms: C_12  and  C_13
REMARK   13  A    between atoms: C_13  and  C_14
REMARK   14  A    between atoms: C_14  and  C_15
REMARK   15  A    between atoms: C_15  and  C_16
REMARK   16  A    between atoms: C_16  and  O_17
REMARK   17  A    between atoms: O_17  and  C_18
REMARK   18  A    between atoms: C_18  and  C_19
REMARK   19  A    between atoms: C_19  and  O_20
REMARK   20  A    between atoms: C_19  and  C_21
REMARK   21  A    between atoms: C_21  and  O_22
REMARK   22  A    between atoms: O_22  and  P_23
REMARK   23  A    between atoms: P_23  and  O_26
REMARK   24  A    between atoms: O_26  and  C_27
REMARK   25  A    between atoms: C_27  and  C_28
REMARK   26  A    between atoms: C_28  and  N_29
REMARK   27  A    between atoms: N_29  and  C_30
REMARK   28  A    between atoms: N_29  and  C_31
REMARK   29  A    between atoms: N_29  and  C_32
REMARK                            x       y       z     vdW  Elec       q    Type
REMARK                         _______ _______ _______ _____ _____    ______ ____
ROOT
ATOM      1  O   UNL     1       1.791   8.908  17.284  0.00  0.00    +0.000 OA
ENDROOT
BRANCH   1   2
ATOM      2  C   UNL     1       0.753   9.597  17.964  0.00  0.00    +0.000 C 
BRANCH   2   3
ATOM      3  C   UNL     1       1.331  10.108  19.262  0.00  0.00    +0.000 C 
BRANCH   3   4
ATOM      4  O   UNL     1       1.469  11.540  19.186  0.00  0.00    +0.000 OA
ATOM      5  H   UNL     1       2.139  11.841  19.826  0.00  0.00    +0.000 HD
ENDBRANCH   3   4
BRANCH   3   6
ATOM      6  C   UNL     1       0.425   9.665  20.389  0.00  0.00    +0.000 C 
BRANCH   6   7
ATOM      7  O   UNL     1       0.791  10.308  21.653  0.00  0.00    +0.000 OA
BRANCH   7   8
ATOM      8  P   UNL     1      -0.585  10.829  22.563  0.00  0.00    +0.000 P 
ATOM      9  O   UNL     1      -0.059   9.982  23.730  0.00  0.00    +0.000 OA
ATOM     10  O   UNL     1      -0.253  12.297  22.262  0.00  0.00    +0.000 OA
BRANCH   8  11
ATOM     11  O   UNL     1      -1.961  11.350  23.474  0.00  0.00    +0.000 OA
BRANCH  11  12
ATOM     12  C   UNL     1      -2.801  12.230  22.754  0.00  0.00    +0.000 C 
BRANCH  12  13
ATOM     13  C   UNL     1      -3.510  13.246  23.614  0.00  0.00    +0.000 C 
BRANCH  13  14
ATOM     14  N   UNL     1      -4.540  14.012  22.769  0.00  0.00    +0.000 N 
ATOM     15  C   UNL     1      -5.308  13.077  21.813  0.00  0.00    +0.000 C 
ATOM     16  C   UNL     1      -5.546  14.768  23.648  0.00  0.00    +0.000 C 
ATOM     17  C   UNL     1      -3.775  15.035  21.917  0.00  0.00    +0.000 C 
ENDBRANCH  13  14
ENDBRANCH  12  13
ENDBRANCH  11  12
ENDBRANCH   8  11
ENDBRANCH   7   8
ENDBRANCH   6   7
ENDBRANCH   3   6
ENDBRANCH   2   3
ENDBRANCH   1   2
BRANCH   1  18
ATOM     18  C   UNL     1       2.641   8.287  18.228  0.00  0.00    +0.000 C 
BRANCH  18  19
ATOM     19  C   UNL     1       2.626   6.799  17.964  0.00  0.00    +0.000 C 
BRANCH  19  20
ATOM     20  C   UNL     1       1.928   6.096  19.110  0.00  0.00    +0.000 C 
BRANCH  20  21
ATOM     21  C   UNL     1       2.930   5.704  20.178  0.00  0.00    +0.000 C 
BRANCH  21  22
ATOM     22  C   UNL     1       2.283   4.749  21.164  0.00  0.00    +0.000 C 
BRANCH  22  23
ATOM     23  C   UNL     1       1.129   4.027  20.495  0.00  0.00    +0.000 C 
BRANCH  23  24
ATOM     24  C   UNL     1       1.569   2.635  20.063  0.00  0.00    +0.000 C 
BRANCH  24  25
ATOM     25  C   UNL     1       1.066   2.343  18.662  0.00  0.00    +0.000 C 
BRANCH  25  26
ATOM     26  C   UNL     1       2.151   2.654  17.648  0.00  0.00    +0.000 C 
BRANCH  26  27
ATOM     27  C   UNL     1       3.499   2.744  18.340  0.00  0.00    +0.000 C 
BRANCH  27  28
ATOM     28  C   UNL     1       4.614   2.755  17.309  0.00  0.00    +0.000 C 
BRANCH  28  29
ATOM     29  C   UNL     1       4.505   3.995  16.438  0.00  0.00    +0.000 C 
BRANCH  29  30
ATOM     30  C   UNL     1       5.476   5.062  16.920  0.00  0.00    +0.000 C 
BRANCH  30  31
ATOM     31  C   UNL     1       6.908   4.641  16.629  0.00  0.00    +0.000 C 
BRANCH  31  33
ATOM     32  C   UNL     1       7.142   5.594  18.929  0.00  0.00    +0.000 C 
ATOM     33  C   UNL     1       7.741   4.647  17.904  0.00  0.00    +0.000 C 
ENDBRANCH  31  33
ENDBRANCH  30  31
ENDBRANCH  29  30
ENDBRANCH  28  29
ENDBRANCH  27  28
ENDBRANCH  26  27
ENDBRANCH  25  26
ENDBRANCH  24  25
ENDBRANCH  23  24
ENDBRANCH  22  23
ENDBRANCH  21  22
ENDBRANCH  20  21
ENDBRANCH  19  20
ENDBRANCH  18  19
ENDBRANCH   1  18
TORSDOF 25
ENDMDL
MODEL 7
REMARK VINA RESULT:      -5.1      2.825      3.305
REMARK  Name = 
REMARK  29 active torsions:
REMARK  status: ('A' for Active; 'I' for Inactive)
REMARK    1  A    between atoms: C_1  and  C_2
REMARK    2  A    between atoms: C_2  and  C_3
REMARK    3  A    between atoms: C_3  and  C_4
REMARK    4  A    between atoms: C_4  and  C_5
REMARK    5  A    between atoms: C_5  and  C_6
REMARK    6  A    between atoms: C_6  and  C_7
REMARK    7  A    between atoms: C_7  and  C_8
REMARK    8  A    between atoms: C_8  and  C_9
REMARK    9  A    between atoms: C_9  and  C_10
REMARK   10  A    between atoms: C_10  and  C_11
REMARK   11  A    between atoms: C_11  and  C_12
REMARK   12  A    between atoms: C_12  and  C_13
REMARK   13  A    between atoms: C_13  and  C_14
REMARK   14  A    between atoms: C_14  and  C_15
REMARK   15  A    between atoms: C_15  and  C_16
REMARK   16  A    between atoms: C_16  and  O_17
REMARK   17  A    between atoms: O_17  and  C_18
REMARK   18  A    between atoms: C_18  and  C_19
REMARK   19  A    between atoms: C_19  and  O_20
REMARK   20  A    between atoms: C_19  and  C_21
REMARK   21  A    between atoms: C_21  and  O_22
REMARK   22  A    between atoms: O_22  and  P_23
REMARK   23  A    between atoms: P_23  and  O_26
REMARK   24  A    between atoms: O_26  and  C_27
REMARK   25  A    between atoms: C_27  and  C_28
REMARK   26  A    between atoms: C_28  and  N_29
REMARK   27  A    between atoms: N_29  and  C_30
REMARK   28  A    between atoms: N_29  and  C_31
REMARK   29  A    between atoms: N_29  and  C_32
REMARK                            x       y       z     vdW  Elec       q    Type
REMARK                         _______ _______ _______ _____ _____    ______ ____
ROOT
ATOM      1  O   UNL     1       1.444   8.011  20.475  0.00  0.00    +0.000 OA
ENDROOT
BRANCH   1   2
ATOM      2  C   UNL     1       1.307   9.042  21.440  0.00  0.00    +0.000 C 
BRANCH   2   3
ATOM      3  C   UNL     1       0.501  10.148  20.801  0.00  0.00    +0.000 C 
BRANCH   3   4
ATOM      4  O   UNL     1       0.649  11.351  21.581  0.00  0.00    +0.000 OA
ATOM      5  H   UNL     1      -0.163  11.885  21.521  0.00  0.00    +0.000 HD
ENDBRANCH   3   4
BRANCH   3   6
ATOM      6  C   UNL     1       0.975  10.313  19.374  0.00  0.00    +0.000 C 
BRANCH   6   7
ATOM      7  O   UNL     1      -0.131  10.173  18.425  0.00  0.00    +0.000 OA
BRANCH   7   8
ATOM      8  P   UNL     1      -1.415  11.294  18.723  0.00  0.00    +0.000 P 
ATOM      9  O   UNL     1      -0.369  12.416  18.663  0.00  0.00    +0.000 OA
ATOM     10  O   UNL     1      -2.219  10.715  17.550  0.00  0.00    +0.000 OA
BRANCH   8  11
ATOM     11  O   UNL     1      -2.698  12.416  19.020  0.00  0.00    +0.000 OA
BRANCH  11  12
ATOM     12  C   UNL     1      -3.930  11.785  19.310  0.00  0.00    +0.000 C 
BRANCH  12  13
ATOM     13  C   UNL     1      -5.012  12.728  19.771  0.00  0.00    +0.000 C 
BRANCH  13  14
ATOM     14  N   UNL     1      -6.389  12.154  19.407  0.00  0.00    +0.000 N 
ATOM     15  C   UNL     1      -6.338  11.312  18.116  0.00  0.00    +0.000 C 
ATOM     16  C   UNL     1      -6.965  11.296  20.543  0.00  0.00    +0.000 C 
ATOM     17  C   UNL     1      -7.338  13.336  19.164  0.00  0.00    +0.000 C 
ENDBRANCH  13  14
ENDBRANCH  12  13
ENDBRANCH  11  12
ENDBRANCH   8  11
ENDBRANCH   7   8
ENDBRANCH   6   7
ENDBRANCH   3   6
ENDBRANCH   2   3
ENDBRANCH   1   2
BRANCH   1  18
ATOM     18  C   UNL     1       1.313   6.753  21.107  0.00  0.00    +0.000 C 
BRANCH  18  19
ATOM     19  C   UNL     1       2.137   5.751  20.331  0.00  0.00    +0.000 C 
BRANCH  19  20
ATOM     20  C   UNL     1       1.212   4.742  19.680  0.00  0.00    +0.000 C 
BRANCH  20  21
ATOM     21  C   UNL     1       1.185   3.456  20.482  0.00  0.00    +0.000 C 
BRANCH  21  22
ATOM     22  C   UNL     1       2.455   2.666  20.227  0.00  0.00    +0.000 C 
BRANCH  22  23
ATOM     23  C   UNL     1       2.513   2.247  18.770  0.00  0.00    +0.000 C 
BRANCH  23  24
ATOM     24  C   UNL     1       3.876   2.592  18.186  0.00  0.00    +0.000 C 
BRANCH  24  25
ATOM     25  C   UNL     1       3.779   3.855  17.353  0.00  0.00    +0.000 C 
BRANCH  25  26
ATOM     26  C   UNL     1       4.886   4.818  17.740  0.00  0.00    +0.000 C 
BRANCH  26  27
ATOM     27  C   UNL     1       4.820   6.062  16.872  0.00  0.00    +0.000 C 
BRANCH  27  28
ATOM     28  C   UNL     1       5.262   5.733  15.457  0.00  0.00    +0.000 C 
BRANCH  28  29
ATOM     29  C   UNL     1       6.646   5.108  15.475  0.00  0.00    +0.000 C 
BRANCH  29  30
ATOM     30  C   UNL     1       6.892   4.339  14.187  0.00  0.00    +0.000 C 
BRANCH  30  31
ATOM     31  C   UNL     1       5.569   3.938  13.552  0.00  0.00    +0.000 C 
BRANCH  31  33
ATOM     32  C   UNL     1       4.467   3.142  11.453  0.00  0.00    +0.000 C 
ATOM     33  C   UNL     1       5.793   3.367  12.158  0.00  0.00    +0.000 C 
ENDBRANCH  31  33
ENDBRANCH  30  31
ENDBRANCH  29  30
ENDBRANCH  28  29
ENDBRANCH  27  28
ENDBRANCH  26  27
ENDBRANCH  25  26
ENDBRANCH  24  25
ENDBRANCH  23  24
ENDBRANCH  22  23
ENDBRANCH  21  22
ENDBRANCH  20  21
ENDBRANCH  19  20
ENDBRANCH  18  19
ENDBRANCH   1  18
TORSDOF 25
ENDMDL
MODEL 8
REMARK VINA RESULT:      -5.0      1.943      3.551
REMARK  Name = 
REMARK  29 active torsions:
REMARK  status: ('A' for Active; 'I' for Inactive)
REMARK    1  A    between atoms: C_1  and  C_2
REMARK    2  A    between atoms: C_2  and  C_3
REMARK    3  A    between atoms: C_3  and  C_4
REMARK    4  A    between atoms: C_4  and  C_5
REMARK    5  A    between atoms: C_5  and  C_6
REMARK    6  A    between atoms: C_6  and  C_7
REMARK    7  A    between atoms: C_7  and  C_8
REMARK    8  A    between atoms: C_8  and  C_9
REMARK    9  A    between atoms: C_9  and  C_10
REMARK   10  A    between atoms: C_10  and  C_11
REMARK   11  A    between atoms: C_11  and  C_12
REMARK   12  A    between atoms: C_12  and  C_13
REMARK   13  A    between atoms: C_13  and  C_14
REMARK   14  A    between atoms: C_14  and  C_15
REMARK   15  A    between atoms: C_15  and  C_16
REMARK   16  A    between atoms: C_16  and  O_17
REMARK   17  A    between atoms: O_17  and  C_18
REMARK   18  A    between atoms: C_18  and  C_19
REMARK   19  A    between atoms: C_19  and  O_20
REMARK   20  A    between atoms: C_19  and  C_21
REMARK   21  A    between atoms: C_21  and  O_22
REMARK   22  A    between atoms: O_22  and  P_23
REMARK   23  A    between atoms: P_23  and  O_26
REMARK   24  A    between atoms: O_26  and  C_27
REMARK   25  A    between atoms: C_27  and  C_28
REMARK   26  A    between atoms: C_28  and  N_29
REMARK   27  A    between atoms: N_29  and  C_30
REMARK   28  A    between atoms: N_29  and  C_31
REMARK   29  A    between atoms: N_29  and  C_32
REMARK                            x       y       z     vdW  Elec       q    Type
REMARK                         _______ _______ _______ _____ _____    ______ ____
ROOT
ATOM      1  O   UNL     1       0.916   8.911  17.502  0.00  0.00    +0.000 OA
ENDROOT
BRANCH   1   2
ATOM      2  C   UNL     1       0.076   9.874  18.119  0.00  0.00    +0.000 C 
BRANCH   2   3
ATOM      3  C   UNL     1       0.973  10.844  18.852  0.00  0.00    +0.000 C 
BRANCH   3   4
ATOM      4  O   UNL     1       0.679  12.184  18.410  0.00  0.00    +0.000 OA
ATOM      5  H   UNL     1      -0.283  12.294  18.310  0.00  0.00    +0.000 HD
ENDBRANCH   3   4
BRANCH   3   6
ATOM      6  C   UNL     1       0.757  10.656  20.337  0.00  0.00    +0.000 C 
BRANCH   6   7
ATOM      7  O   UNL     1      -0.646  10.861  20.703  0.00  0.00    +0.000 OA
BRANCH   7   8
ATOM      8  P   UNL     1      -0.834  11.861  22.103  0.00  0.00    +0.000 P 
ATOM      9  O   UNL     1       0.574  12.408  21.828  0.00  0.00    +0.000 OA
ATOM     10  O   UNL     1      -2.162  12.407  21.558  0.00  0.00    +0.000 OA
BRANCH   8  11
ATOM     11  O   UNL     1      -1.021  12.861  23.502  0.00  0.00    +0.000 OA
BRANCH  11  12
ATOM     12  C   UNL     1      -2.008  13.861  23.340  0.00  0.00    +0.000 C 
BRANCH  12  13
ATOM     13  C   UNL     1      -1.490  15.268  23.501  0.00  0.00    +0.000 C 
BRANCH  13  14
ATOM     14  N   UNL     1      -2.207  15.953  24.674  0.00  0.00    +0.000 N 
ATOM     15  C   UNL     1      -1.497  15.687  26.017  0.00  0.00    +0.000 C 
ATOM     16  C   UNL     1      -2.325  17.469  24.461  0.00  0.00    +0.000 C 
ATOM     17  C   UNL     1      -3.623  15.365  24.762  0.00  0.00    +0.000 C 
ENDBRANCH  13  14
ENDBRANCH  12  13
ENDBRANCH  11  12
ENDBRANCH   8  11
ENDBRANCH   7   8
ENDBRANCH   6   7
ENDBRANCH   3   6
ENDBRANCH   2   3
ENDBRANCH   1   2
BRANCH   1  18
ATOM     18  C   UNL     1       2.262   9.166  17.851  0.00  0.00    +0.000 C 
BRANCH  18  19
ATOM     19  C   UNL     1       3.013   7.855  17.808  0.00  0.00    +0.000 C 
BRANCH  19  20
ATOM     20  C   UNL     1       2.175   6.778  18.466  0.00  0.00    +0.000 C 
BRANCH  20  21
ATOM     21  C   UNL     1       2.918   6.175  19.641  0.00  0.00    +0.000 C 
BRANCH  21  22
ATOM     22  C   UNL     1       1.934   5.805  20.736  0.00  0.00    +0.000 C 
BRANCH  22  23
ATOM     23  C   UNL     1       0.991   4.728  20.234  0.00  0.00    +0.000 C 
BRANCH  23  24
ATOM     24  C   UNL     1       1.267   3.418  20.959  0.00  0.00    +0.000 C 
BRANCH  24  25
ATOM     25  C   UNL     1       2.484   2.740  20.359  0.00  0.00    +0.000 C 
BRANCH  25  26
ATOM     26  C   UNL     1       2.055   1.774  19.270  0.00  0.00    +0.000 C 
BRANCH  26  27
ATOM     27  C   UNL     1       2.245   2.413  17.906  0.00  0.00    +0.000 C 
BRANCH  27  28
ATOM     28  C   UNL     1       3.713   2.729  17.680  0.00  0.00    +0.000 C 
BRANCH  28  29
ATOM     29  C   UNL     1       3.852   3.981  16.832  0.00  0.00    +0.000 C 
BRANCH  29  30
ATOM     30  C   UNL     1       5.204   4.632  17.074  0.00  0.00    +0.000 C 
BRANCH  30  31
ATOM     31  C   UNL     1       5.404   5.803  16.123  0.00  0.00    +0.000 C 
BRANCH  31  33
ATOM     32  C   UNL     1       6.707   4.206  14.707  0.00  0.00    +0.000 C 
ATOM     33  C   UNL     1       5.661   5.307  14.707  0.00  0.00    +0.000 C 
ENDBRANCH  31  33
ENDBRANCH  30  31
ENDBRANCH  29  30
ENDBRANCH  28  29
ENDBRANCH  27  28
ENDBRANCH  26  27
ENDBRANCH  25  26
ENDBRANCH  24  25
ENDBRANCH  23  24
ENDBRANCH  22  23
ENDBRANCH  21  22
ENDBRANCH  20  21
ENDBRANCH  19  20
ENDBRANCH  18  19
ENDBRANCH   1  18
TORSDOF 25
ENDMDL
MODEL 9
REMARK VINA RESULT:      -5.0      2.289      3.096
REMARK  Name = 
REMARK  29 active torsions:
REMARK  status: ('A' for Active; 'I' for Inactive)
REMARK    1  A    between atoms: C_1  and  C_2
REMARK    2  A    between atoms: C_2  and  C_3
REMARK    3  A    between atoms: C_3  and  C_4
REMARK    4  A    between atoms: C_4  and  C_5
REMARK    5  A    between atoms: C_5  and  C_6
REMARK    6  A    between atoms: C_6  and  C_7
REMARK    7  A    between atoms: C_7  and  C_8
REMARK    8  A    between atoms: C_8  and  C_9
REMARK    9  A    between atoms: C_9  and  C_10
REMARK   10  A    between atoms: C_10  and  C_11
REMARK   11  A    between atoms: C_11  and  C_12
REMARK   12  A    between atoms: C_12  and  C_13
REMARK   13  A    between atoms: C_13  and  C_14
REMARK   14  A    between atoms: C_14  and  C_15
REMARK   15  A    between atoms: C_15  and  C_16
REMARK   16  A    between atoms: C_16  and  O_17
REMARK   17  A    between atoms: O_17  and  C_18
REMARK   18  A    between atoms: C_18  and  C_19
REMARK   19  A    between atoms: C_19  and  O_20
REMARK   20  A    between atoms: C_19  and  C_21
REMARK   21  A    between atoms: C_21  and  O_22
REMARK   22  A    between atoms: O_22  and  P_23
REMARK   23  A    between atoms: P_23  and  O_26
REMARK   24  A    between atoms: O_26  and  C_27
REMARK   25  A    between atoms: C_27  and  C_28
REMARK   26  A    between atoms: C_28  and  N_29
REMARK   27  A    between atoms: N_29  and  C_30
REMARK   28  A    between atoms: N_29  and  C_31
REMARK   29  A    between atoms: N_29  and  C_32
REMARK                            x       y       z     vdW  Elec       q    Type
REMARK                         _______ _______ _______ _____ _____    ______ ____
ROOT
ATOM      1  O   UNL     1       1.895   8.549  20.150  0.00  0.00    +0.000 OA
ENDROOT
BRANCH   1   2
ATOM      2  C   UNL     1       0.794   9.398  19.863  0.00  0.00    +0.000 C 
BRANCH   2   3
ATOM      3  C   UNL     1       1.270  10.424  18.862  0.00  0.00    +0.000 C 
BRANCH   3   4
ATOM      4  O   UNL     1       1.571   9.764  17.617  0.00  0.00    +0.000 OA
ATOM      5  H   UNL     1       2.048   8.933  17.792  0.00  0.00    +0.000 HD
ENDBRANCH   3   4
BRANCH   3   6
ATOM      6  C   UNL     1       0.195  11.479  18.721  0.00  0.00    +0.000 C 
BRANCH   6   7
ATOM      7  O   UNL     1      -0.289  11.927  20.028  0.00  0.00    +0.000 OA
BRANCH   7   8
ATOM      8  P   UNL     1      -1.980  12.294  20.028  0.00  0.00    +0.000 P 
ATOM      9  O   UNL     1      -1.598  13.772  20.187  0.00  0.00    +0.000 OA
ATOM     10  O   UNL     1      -2.166  11.523  18.714  0.00  0.00    +0.000 OA
BRANCH   8  11
ATOM     11  O   UNL     1      -3.670  12.662  20.027  0.00  0.00    +0.000 OA
BRANCH  11  12
ATOM     12  C   UNL     1      -4.068  13.437  21.141  0.00  0.00    +0.000 C 
BRANCH  12  13
ATOM     13  C   UNL     1      -5.407  14.111  20.975  0.00  0.00    +0.000 C 
BRANCH  13  14
ATOM     14  N   UNL     1      -6.427  13.482  21.936  0.00  0.00    +0.000 N 
ATOM     15  C   UNL     1      -5.760  12.975  23.231  0.00  0.00    +0.000 C 
ATOM     16  C   UNL     1      -7.546  14.467  22.302  0.00  0.00    +0.000 C 
ATOM     17  C   UNL     1      -7.056  12.276  21.224  0.00  0.00    +0.000 C 
ENDBRANCH  13  14
ENDBRANCH  12  13
ENDBRANCH  11  12
ENDBRANCH   8  11
ENDBRANCH   7   8
ENDBRANCH   6   7
ENDBRANCH   3   6
ENDBRANCH   2   3
ENDBRANCH   1   2
BRANCH   1  18
ATOM     18  C   UNL     1       1.454   7.453  20.926  0.00  0.00    +0.000 C 
BRANCH  18  19
ATOM     19  C   UNL     1       1.952   6.185  20.270  0.00  0.00    +0.000 C 
BRANCH  19  20
ATOM     20  C   UNL     1       0.970   5.063  20.545  0.00  0.00    +0.000 C 
BRANCH  20  21
ATOM     21  C   UNL     1       1.622   3.718  20.291  0.00  0.00    +0.000 C 
BRANCH  21  22
ATOM     22  C   UNL     1       1.706   3.461  18.798  0.00  0.00    +0.000 C 
BRANCH  22  23
ATOM     23  C   UNL     1       2.165   2.037  18.549  0.00  0.00    +0.000 C 
BRANCH  23  24
ATOM     24  C   UNL     1       3.543   2.042  17.901  0.00  0.00    +0.000 C 
BRANCH  24  25
ATOM     25  C   UNL     1       4.049   3.467  17.773  0.00  0.00    +0.000 C 
BRANCH  25  26
ATOM     26  C   UNL     1       5.108   3.737  18.826  0.00  0.00    +0.000 C 
BRANCH  26  27
ATOM     27  C   UNL     1       5.316   5.233  18.981  0.00  0.00    +0.000 C 
BRANCH  27  28
ATOM     28  C   UNL     1       6.785   5.574  18.801  0.00  0.00    +0.000 C 
BRANCH  28  29
ATOM     29  C   UNL     1       7.006   6.226  17.447  0.00  0.00    +0.000 C 
BRANCH  29  30
ATOM     30  C   UNL     1       5.696   6.779  16.910  0.00  0.00    +0.000 C 
BRANCH  30  31
ATOM     31  C   UNL     1       5.349   6.118  15.584  0.00  0.00    +0.000 C 
BRANCH  31  33
ATOM     32  C   UNL     1       5.857   3.924  14.497  0.00  0.00    +0.000 C 
ATOM     33  C   UNL     1       6.450   5.156  15.159  0.00  0.00    +0.000 C 
ENDBRANCH  31  33
ENDBRANCH  30  31
ENDBRANCH  29  30
ENDBRANCH  28  29
ENDBRANCH  27  28
ENDBRANCH  26  27
ENDBRANCH  25  26
ENDBRANCH  24  25
ENDBRANCH  23  24
ENDBRANCH  22  23
ENDBRANCH  21  22
ENDBRANCH  20  21
ENDBRANCH  19  20
ENDBRANCH  18  19
ENDBRANCH   1  18
TORSDOF 25
ENDMDL
