MODEL 1
REMARK VINA RESULT:      -6.4      0.000      0.000
REMARK  Name = 
REMARK  9 active torsions:
REMARK  status: ('A' for Active; 'I' for Inactive)
REMARK    1  A    between atoms: CB_1  and  CA_2
REMARK    2  A    between atoms: CA_2  and  N_3
REMARK    3  A    between atoms: CA_2  and  C_14
REMARK    4  A    between atoms: N_3  and  C_4
REMARK    5  A    between atoms: C_4  and  C_5
REMARK    6  A    between atoms: C_5  and  N_6
REMARK    7  A    between atoms: C_5  and  C_7
REMARK    8  A    between atoms: C_7  and  C_8
REMARK    9  A    between atoms: C_14  and  OXT_16
REMARK                            x       y       z     vdW  Elec       q    Type
REMARK                         _______ _______ _______ _____ _____    ______ ____
ROOT
ATOM      1  C   UNK A   0       4.729   3.639  17.403  0.00  0.00    +0.000 C 
ENDROOT
BRANCH   1   2
ATOM      2  N   UNK A   0       5.277   3.365  18.747  0.00  0.00    +0.000 NA
ATOM      3  H   UNK A   0       4.569   2.901  19.312  0.00  0.00    +0.000 HD
ATOM      4  H   UNK A   0       5.419   4.275  19.194  0.00  0.00    +0.000 HD
ENDBRANCH   1   2
BRANCH   1   5
ATOM      5  C   UNK A   0       5.839   4.271  16.524  0.00  0.00    +0.000 C 
BRANCH   5   6
ATOM      6  N   ALA A   1       7.107   4.354  17.274  0.00  0.00    +0.000 NA
ATOM      7  H   ALA A   1       7.831   3.894  16.711  0.00  0.00    +0.000 HD
BRANCH   6   9
ATOM      8  CB  ALA A   1       6.439   6.689  17.001  0.00  0.00    +0.000 C 
ATOM      9  CA  ALA A   1       7.530   5.751  17.508  0.00  0.00    +0.000 C 
BRANCH   9  10
ATOM     10  C   ALA A   1       7.760   6.038  19.000  0.00  0.00    +0.000 C 
ATOM     11  O   ALA A   1       7.277   5.384  19.915  0.00  0.00    +0.000 OA
BRANCH  10  12
ATOM     12  OXT ALA A   1       8.555   7.110  19.227  0.00  0.00    +0.000 OA
ATOM     13  HXT ALA A   1       8.093   7.881  19.607  0.00  0.00    +0.000 HD
ENDBRANCH  10  12
ENDBRANCH   9  10
ENDBRANCH   6   9
ENDBRANCH   5   6
ENDBRANCH   1   5
BRANCH   1  14
ATOM     14  C   UNK A   0       3.487   4.554  17.422  0.00  0.00    +0.000 C 
BRANCH  14  15
ATOM     15  C   UNK A   0       2.439   4.121  18.419  0.00  0.00    +0.000 A 
ATOM     16  C   UNK A   0       2.218   4.881  19.575  0.00  0.00    +0.000 A 
ATOM     17  C   UNK A   0       1.304   4.455  20.539  0.00  0.00    +0.000 A 
ATOM     18  C   UNK A   0       0.596   3.273  20.350  0.00  0.00    +0.000 A 
ATOM     19  C   UNK A   0       0.798   2.513  19.198  0.00  0.00    +0.000 A 
ATOM     20  C   UNK A   0       1.719   2.935  18.235  0.00  0.00    +0.000 A 
ENDBRANCH  14  15
ENDBRANCH   1  14
TORSDOF 8
ENDMDL
MODEL 2
REMARK VINA RESULT:      -6.4      1.250      1.411
REMARK  Name = 
REMARK  9 active torsions:
REMARK  status: ('A' for Active; 'I' for Inactive)
REMARK    1  A    between atoms: CB_1  and  CA_2
REMARK    2  A    between atoms: CA_2  and  N_3
REMARK    3  A    between atoms: CA_2  and  C_14
REMARK    4  A    between atoms: N_3  and  C_4
REMARK    5  A    between atoms: C_4  and  C_5
REMARK    6  A    between atoms: C_5  and  N_6
REMARK    7  A    between atoms: C_5  and  C_7
REMARK    8  A    between atoms: C_7  and  C_8
REMARK    9  A    between atoms: C_14  and  OXT_16
REMARK                            x       y       z     vdW  Elec       q    Type
REMARK                         _______ _______ _______ _____ _____    ______ ____
ROOT
ATOM      1  C   UNK A   0       4.240   4.297  16.916  0.00  0.00    +0.000 C 
ENDROOT
BRANCH   1   2
ATOM      2  N   UNK A   0       4.977   3.287  17.701  0.00  0.00    +0.000 NA
ATOM      3  H   UNK A   0       5.881   3.664  17.973  0.00  0.00    +0.000 HD
ATOM      4  H   UNK A   0       5.191   2.519  17.059  0.00  0.00    +0.000 HD
ENDBRANCH   1   2
BRANCH   1   5
ATOM      5  C   UNK A   0       5.247   5.098  16.049  0.00  0.00    +0.000 C 
BRANCH   5   6
ATOM      6  N   ALA A   1       5.736   6.279  16.787  0.00  0.00    +0.000 NA
ATOM      7  H   ALA A   1       5.254   6.301  17.692  0.00  0.00    +0.000 HD
BRANCH   6   9
ATOM      8  CB  ALA A   1       7.638   7.529  17.679  0.00  0.00    +0.000 C 
ATOM      9  CA  ALA A   1       7.190   6.216  17.045  0.00  0.00    +0.000 C 
BRANCH   9  10
ATOM     10  C   ALA A   1       7.553   5.069  18.002  0.00  0.00    +0.000 C 
ATOM     11  O   ALA A   1       8.273   4.124  17.711  0.00  0.00    +0.000 OA
BRANCH  10  12
ATOM     12  OXT ALA A   1       6.986   5.188  19.226  0.00  0.00    +0.000 OA
ATOM     13  HXT ALA A   1       6.686   6.092  19.444  0.00  0.00    +0.000 HD
ENDBRANCH  10  12
ENDBRANCH   9  10
ENDBRANCH   6   9
ENDBRANCH   5   6
ENDBRANCH   1   5
BRANCH   1  14
ATOM     14  C   UNK A   0       3.409   5.263  17.786  0.00  0.00    +0.000 C 
BRANCH  14  15
ATOM     15  C   UNK A   0       2.555   4.560  18.813  0.00  0.00    +0.000 A 
ATOM     16  C   UNK A   0       2.783   4.776  20.178  0.00  0.00    +0.000 A 
ATOM     17  C   UNK A   0       2.049   4.079  21.138  0.00  0.00    +0.000 A 
ATOM     18  C   UNK A   0       1.075   3.169  20.742  0.00  0.00    +0.000 A 
ATOM     19  C   UNK A   0       0.829   2.953  19.386  0.00  0.00    +0.000 A 
ATOM     20  C   UNK A   0       1.569   3.645  18.423  0.00  0.00    +0.000 A 
ENDBRANCH  14  15
ENDBRANCH   1  14
TORSDOF 8
ENDMDL
MODEL 3
REMARK VINA RESULT:      -6.3      2.132      2.567
REMARK  Name = 
REMARK  9 active torsions:
REMARK  status: ('A' for Active; 'I' for Inactive)
REMARK    1  A    between atoms: CB_1  and  CA_2
REMARK    2  A    between atoms: CA_2  and  N_3
REMARK    3  A    between atoms: CA_2  and  C_14
REMARK    4  A    between atoms: N_3  and  C_4
REMARK    5  A    between atoms: C_4  and  C_5
REMARK    6  A    between atoms: C_5  and  N_6
REMARK    7  A    between atoms: C_5  and  C_7
REMARK    8  A    between atoms: C_7  and  C_8
REMARK    9  A    between atoms: C_14  and  OXT_16
REMARK                            x       y       z     vdW  Elec       q    Type
REMARK                         _______ _______ _______ _____ _____    ______ ____
ROOT
ATOM      1  C   UNK A   0       4.219   5.688  17.704  0.00  0.00    +0.000 C 
ENDROOT
BRANCH   1   2
ATOM      2  N   UNK A   0       5.034   5.464  18.915  0.00  0.00    +0.000 NA
ATOM      3  H   UNK A   0       4.999   6.293  19.504  0.00  0.00    +0.000 HD
ATOM      4  H   UNK A   0       6.006   5.398  18.604  0.00  0.00    +0.000 HD
ENDBRANCH   1   2
BRANCH   1   5
ATOM      5  C   UNK A   0       4.839   6.849  16.885  0.00  0.00    +0.000 C 
BRANCH   5   6
ATOM      6  N   ALA A   1       5.207   6.387  15.532  0.00  0.00    +0.000 NA
ATOM      7  H   ALA A   1       5.963   6.992  15.193  0.00  0.00    +0.000 HD
BRANCH   6   9
ATOM      8  CB  ALA A   1       5.302   4.327  14.220  0.00  0.00    +0.000 C 
ATOM      9  CA  ALA A   1       5.702   4.994  15.532  0.00  0.00    +0.000 C 
BRANCH   9  10
ATOM     10  C   ALA A   1       7.233   4.930  15.660  0.00  0.00    +0.000 C 
ATOM     11  O   ALA A   1       7.830   4.469  16.623  0.00  0.00    +0.000 OA
BRANCH  10  12
ATOM     12  OXT ALA A   1       7.885   5.449  14.592  0.00  0.00    +0.000 OA
ATOM     13  HXT ALA A   1       7.866   6.424  14.544  0.00  0.00    +0.000 HD
ENDBRANCH  10  12
ENDBRANCH   9  10
ENDBRANCH   6   9
ENDBRANCH   5   6
ENDBRANCH   1   5
BRANCH   1  14
ATOM     14  C   UNK A   0       2.737   5.991  18.009  0.00  0.00    +0.000 C 
BRANCH  14  15
ATOM     15  C   UNK A   0       2.029   4.862  18.718  0.00  0.00    +0.000 A 
ATOM     16  C   UNK A   0       1.838   4.917  20.105  0.00  0.00    +0.000 A 
ATOM     17  C   UNK A   0       1.248   3.849  20.782  0.00  0.00    +0.000 A 
ATOM     18  C   UNK A   0       0.836   2.723  20.078  0.00  0.00    +0.000 A 
ATOM     19  C   UNK A   0       1.009   2.660  18.695  0.00  0.00    +0.000 A 
ATOM     20  C   UNK A   0       1.606   3.726  18.016  0.00  0.00    +0.000 A 
ENDBRANCH  14  15
ENDBRANCH   1  14
TORSDOF 8
ENDMDL
MODEL 4
REMARK VINA RESULT:      -6.3      1.385      1.936
REMARK  Name = 
REMARK  9 active torsions:
REMARK  status: ('A' for Active; 'I' for Inactive)
REMARK    1  A    between atoms: CB_1  and  CA_2
REMARK    2  A    between atoms: CA_2  and  N_3
REMARK    3  A    between atoms: CA_2  and  C_14
REMARK    4  A    between atoms: N_3  and  C_4
REMARK    5  A    between atoms: C_4  and  C_5
REMARK    6  A    between atoms: C_5  and  N_6
REMARK    7  A    between atoms: C_5  and  C_7
REMARK    8  A    between atoms: C_7  and  C_8
REMARK    9  A    between atoms: C_14  and  OXT_16
REMARK                            x       y       z     vdW  Elec       q    Type
REMARK                         _______ _______ _______ _____ _____    ______ ____
ROOT
ATOM      1  C   UNK A   0       4.639   4.041  16.927  0.00  0.00    +0.000 C 
ENDROOT
BRANCH   1   2
ATOM      2  N   UNK A   0       5.683   3.257  16.238  0.00  0.00    +0.000 NA
ATOM      3  H   UNK A   0       5.326   2.934  15.341  0.00  0.00    +0.000 HD
ATOM      4  H   UNK A   0       5.822   2.407  16.791  0.00  0.00    +0.000 HD
ENDBRANCH   1   2
BRANCH   1   5
ATOM      5  C   UNK A   0       4.846   5.546  16.615  0.00  0.00    +0.000 C 
BRANCH   5   6
ATOM      6  N   ALA A   1       5.623   6.193  17.690  0.00  0.00    +0.000 NA
ATOM      7  H   ALA A   1       5.456   5.666  18.554  0.00  0.00    +0.000 HD
BRANCH   6   9
ATOM      8  CB  ALA A   1       7.637   7.577  17.644  0.00  0.00    +0.000 C 
ATOM      9  CA  ALA A   1       7.076   6.177  17.419  0.00  0.00    +0.000 C 
BRANCH   9  10
ATOM     10  C   ALA A   1       7.821   5.203  18.346  0.00  0.00    +0.000 C 
ATOM     11  O   ALA A   1       8.022   5.397  19.538  0.00  0.00    +0.000 OA
BRANCH  10  12
ATOM     12  OXT ALA A   1       8.256   4.086  17.717  0.00  0.00    +0.000 OA
ATOM     13  HXT ALA A   1       8.899   4.252  17.001  0.00  0.00    +0.000 HD
ENDBRANCH  10  12
ENDBRANCH   9  10
ENDBRANCH   6   9
ENDBRANCH   5   6
ENDBRANCH   1   5
BRANCH   1  14
ATOM     14  C   UNK A   0       4.613   3.818  18.454  0.00  0.00    +0.000 C 
BRANCH  14  15
ATOM     15  C   UNK A   0       3.231   3.545  18.996  0.00  0.00    +0.000 A 
ATOM     16  C   UNK A   0       2.306   2.829  18.226  0.00  0.00    +0.000 A 
ATOM     17  C   UNK A   0       1.004   2.631  18.685  0.00  0.00    +0.000 A 
ATOM     18  C   UNK A   0       0.619   3.138  19.922  0.00  0.00    +0.000 A 
ATOM     19  C   UNK A   0       1.534   3.843  20.704  0.00  0.00    +0.000 A 
ATOM     20  C   UNK A   0       2.836   4.048  20.242  0.00  0.00    +0.000 A 
ENDBRANCH  14  15
ENDBRANCH   1  14
TORSDOF 8
ENDMDL
MODEL 5
REMARK VINA RESULT:      -6.1      2.700      3.176
REMARK  Name = 
REMARK  9 active torsions:
REMARK  status: ('A' for Active; 'I' for Inactive)
REMARK    1  A    between atoms: CB_1  and  CA_2
REMARK    2  A    between atoms: CA_2  and  N_3
REMARK    3  A    between atoms: CA_2  and  C_14
REMARK    4  A    between atoms: N_3  and  C_4
REMARK    5  A    between atoms: C_4  and  C_5
REMARK    6  A    between atoms: C_5  and  N_6
REMARK    7  A    between atoms: C_5  and  C_7
REMARK    8  A    between atoms: C_7  and  C_8
REMARK    9  A    between atoms: C_14  and  OXT_16
REMARK                            x       y       z     vdW  Elec       q    Type
REMARK                         _______ _______ _______ _____ _____    ______ ____
ROOT
ATOM      1  C   UNK A   0       5.761   4.785  18.868  0.00  0.00    +0.000 C 
ENDROOT
BRANCH   1   2
ATOM      2  N   UNK A   0       6.761   5.023  19.929  0.00  0.00    +0.000 NA
ATOM      3  H   UNK A   0       7.261   5.888  19.734  0.00  0.00    +0.000 HD
ATOM      4  H   UNK A   0       7.463   4.284  19.839  0.00  0.00    +0.000 HD
ENDBRANCH   1   2
BRANCH   1   5
ATOM      5  C   UNK A   0       6.425   5.017  17.486  0.00  0.00    +0.000 C 
BRANCH   5   6
ATOM      6  N   ALA A   1       6.014   3.966  16.534  0.00  0.00    +0.000 NA
ATOM      7  H   ALA A   1       5.259   3.429  16.973  0.00  0.00    +0.000 HD
BRANCH   6   9
ATOM      8  CB  ALA A   1       5.212   6.013  15.465  0.00  0.00    +0.000 C 
ATOM      9  CA  ALA A   1       5.498   4.528  15.267  0.00  0.00    +0.000 C 
BRANCH   9  10
ATOM     10  C   ALA A   1       6.511   4.379  14.121  0.00  0.00    +0.000 C 
ATOM     11  O   ALA A   1       7.317   5.239  13.792  0.00  0.00    +0.000 OA
BRANCH  10  12
ATOM     12  OXT ALA A   1       6.429   3.189  13.480  0.00  0.00    +0.000 OA
ATOM     13  HXT ALA A   1       5.517   2.878  13.326  0.00  0.00    +0.000 HD
ENDBRANCH  10  12
ENDBRANCH   9  10
ENDBRANCH   6   9
ENDBRANCH   5   6
ENDBRANCH   1   5
BRANCH   1  14
ATOM     14  C   UNK A   0       4.502   5.667  19.003  0.00  0.00    +0.000 C 
BRANCH  14  15
ATOM     15  C   UNK A   0       3.228   4.872  19.156  0.00  0.00    +0.000 A 
ATOM     16  C   UNK A   0       2.621   4.757  20.413  0.00  0.00    +0.000 A 
ATOM     17  C   UNK A   0       1.484   3.969  20.582  0.00  0.00    +0.000 A 
ATOM     18  C   UNK A   0       0.937   3.296  19.494  0.00  0.00    +0.000 A 
ATOM     19  C   UNK A   0       1.524   3.412  18.233  0.00  0.00    +0.000 A 
ATOM     20  C   UNK A   0       2.668   4.196  18.065  0.00  0.00    +0.000 A 
ENDBRANCH  14  15
ENDBRANCH   1  14
TORSDOF 8
ENDMDL
MODEL 6
REMARK VINA RESULT:      -6.1      2.674      3.227
REMARK  Name = 
REMARK  9 active torsions:
REMARK  status: ('A' for Active; 'I' for Inactive)
REMARK    1  A    between atoms: CB_1  and  CA_2
REMARK    2  A    between atoms: CA_2  and  N_3
REMARK    3  A    between atoms: CA_2  and  C_14
REMARK    4  A    between atoms: N_3  and  C_4
REMARK    5  A    between atoms: C_4  and  C_5
REMARK    6  A    between atoms: C_5  and  N_6
REMARK    7  A    between atoms: C_5  and  C_7
REMARK    8  A    between atoms: C_7  and  C_8
REMARK    9  A    between atoms: C_14  and  OXT_16
REMARK                            x       y       z     vdW  Elec       q    Type
REMARK                         _______ _______ _______ _____ _____    ______ ____
ROOT
ATOM      1  C   UNK A   0       5.849   4.930  18.910  0.00  0.00    +0.000 C 
ENDROOT
BRANCH   1   2
ATOM      2  N   UNK A   0       6.851   5.191  19.962  0.00  0.00    +0.000 NA
ATOM      3  H   UNK A   0       7.386   6.022  19.720  0.00  0.00    +0.000 HD
ATOM      4  H   UNK A   0       7.523   4.421  19.922  0.00  0.00    +0.000 HD
ENDBRANCH   1   2
BRANCH   1   5
ATOM      5  C   UNK A   0       6.486   5.209  17.523  0.00  0.00    +0.000 C 
BRANCH   5   6
ATOM      6  N   ALA A   1       6.196   4.102  16.591  0.00  0.00    +0.000 NA
ATOM      7  H   ALA A   1       5.527   3.476  17.052  0.00  0.00    +0.000 HD
BRANCH   6   9
ATOM      8  CB  ALA A   1       5.188   6.041  15.495  0.00  0.00    +0.000 C 
ATOM      9  CA  ALA A   1       5.583   4.577  15.331  0.00  0.00    +0.000 C 
BRANCH   9  10
ATOM     10  C   ALA A   1       6.555   4.468  14.145  0.00  0.00    +0.000 C 
ATOM     11  O   ALA A   1       6.392   3.732  13.181  0.00  0.00    +0.000 OA
BRANCH  10  12
ATOM     12  OXT ALA A   1       7.640   5.268  14.262  0.00  0.00    +0.000 OA
ATOM     13  HXT ALA A   1       8.035   5.537  13.411  0.00  0.00    +0.000 HD
ENDBRANCH  10  12
ENDBRANCH   9  10
ENDBRANCH   6   9
ENDBRANCH   5   6
ENDBRANCH   1   5
BRANCH   1  14
ATOM     14  C   UNK A   0       4.558   5.760  19.073  0.00  0.00    +0.000 C 
BRANCH  14  15
ATOM     15  C   UNK A   0       3.315   4.914  19.201  0.00  0.00    +0.000 A 
ATOM     16  C   UNK A   0       2.720   4.365  18.057  0.00  0.00    +0.000 A 
ATOM     17  C   UNK A   0       1.532   3.641  18.153  0.00  0.00    +0.000 A 
ATOM     18  C   UNK A   0       0.933   3.451  19.394  0.00  0.00    +0.000 A 
ATOM     19  C   UNK A   0       1.520   3.982  20.543  0.00  0.00    +0.000 A 
ATOM     20  C   UNK A   0       2.707   4.714  20.447  0.00  0.00    +0.000 A 
ENDBRANCH  14  15
ENDBRANCH   1  14
TORSDOF 8
ENDMDL
MODEL 7
REMARK VINA RESULT:      -6.1      2.198      2.589
REMARK  Name = 
REMARK  9 active torsions:
REMARK  status: ('A' for Active; 'I' for Inactive)
REMARK    1  A    between atoms: CB_1  and  CA_2
REMARK    2  A    between atoms: CA_2  and  N_3
REMARK    3  A    between atoms: CA_2  and  C_14
REMARK    4  A    between atoms: N_3  and  C_4
REMARK    5  A    between atoms: C_4  and  C_5
REMARK    6  A    between atoms: C_5  and  N_6
REMARK    7  A    between atoms: C_5  and  C_7
REMARK    8  A    between atoms: C_7  and  C_8
REMARK    9  A    between atoms: C_14  and  OXT_16
REMARK                            x       y       z     vdW  Elec       q    Type
REMARK                         _______ _______ _______ _____ _____    ______ ____
ROOT
ATOM      1  C   UNK A   0       3.631   6.192  17.964  0.00  0.00    +0.000 C 
ENDROOT
BRANCH   1   2
ATOM      2  N   UNK A   0       3.277   7.613  17.773  0.00  0.00    +0.000 NA
ATOM      3  H   UNK A   0       3.936   8.197  18.281  0.00  0.00    +0.000 HD
ATOM      4  H   UNK A   0       2.379   7.755  18.243  0.00  0.00    +0.000 HD
ENDBRANCH   1   2
BRANCH   1   5
ATOM      5  C   UNK A   0       4.791   5.826  17.002  0.00  0.00    +0.000 C 
BRANCH   5   6
ATOM      6  N   ALA A   1       4.882   4.362  16.838  0.00  0.00    +0.000 NA
ATOM      7  H   ALA A   1       3.976   4.033  16.486  0.00  0.00    +0.000 HD
BRANCH   6   9
ATOM      8  CB  ALA A   1       5.480   4.411  14.468  0.00  0.00    +0.000 C 
ATOM      9  CA  ALA A   1       5.921   3.971  15.861  0.00  0.00    +0.000 C 
BRANCH   9  10
ATOM     10  C   ALA A   1       7.275   4.630  16.170  0.00  0.00    +0.000 C 
ATOM     11  O   ALA A   1       7.970   4.362  17.141  0.00  0.00    +0.000 OA
BRANCH  10  12
ATOM     12  OXT ALA A   1       7.640   5.563  15.260  0.00  0.00    +0.000 OA
ATOM     13  HXT ALA A   1       7.822   5.207  14.370  0.00  0.00    +0.000 HD
ENDBRANCH  10  12
ENDBRANCH   9  10
ENDBRANCH   6   9
ENDBRANCH   5   6
ENDBRANCH   1   5
BRANCH   1  14
ATOM     14  C   UNK A   0       2.444   5.230  17.749  0.00  0.00    +0.000 C 
BRANCH  14  15
ATOM     15  C   UNK A   0       2.052   4.476  18.996  0.00  0.00    +0.000 A 
ATOM     16  C   UNK A   0       2.549   4.877  20.243  0.00  0.00    +0.000 A 
ATOM     17  C   UNK A   0       2.252   4.147  21.393  0.00  0.00    +0.000 A 
ATOM     18  C   UNK A   0       1.446   3.016  21.309  0.00  0.00    +0.000 A 
ATOM     19  C   UNK A   0       0.934   2.612  20.076  0.00  0.00    +0.000 A 
ATOM     20  C   UNK A   0       1.237   3.339  18.922  0.00  0.00    +0.000 A 
ENDBRANCH  14  15
ENDBRANCH   1  14
TORSDOF 8
ENDMDL
MODEL 8
REMARK VINA RESULT:      -6.0      1.949      2.327
REMARK  Name = 
REMARK  9 active torsions:
REMARK  status: ('A' for Active; 'I' for Inactive)
REMARK    1  A    between atoms: CB_1  and  CA_2
REMARK    2  A    between atoms: CA_2  and  N_3
REMARK    3  A    between atoms: CA_2  and  C_14
REMARK    4  A    between atoms: N_3  and  C_4
REMARK    5  A    between atoms: C_4  and  C_5
REMARK    6  A    between atoms: C_5  and  N_6
REMARK    7  A    between atoms: C_5  and  C_7
REMARK    8  A    between atoms: C_7  and  C_8
REMARK    9  A    between atoms: C_14  and  OXT_16
REMARK                            x       y       z     vdW  Elec       q    Type
REMARK                         _______ _______ _______ _____ _____    ______ ____
ROOT
ATOM      1  C   UNK A   0       5.490   4.649  19.286  0.00  0.00    +0.000 C 
ENDROOT
BRANCH   1   2
ATOM      2  N   UNK A   0       6.704   5.423  19.614  0.00  0.00    +0.000 NA
ATOM      3  H   UNK A   0       6.925   6.047  18.842  0.00  0.00    +0.000 HD
ATOM      4  H   UNK A   0       7.476   4.753  19.644  0.00  0.00    +0.000 HD
ENDBRANCH   1   2
BRANCH   1   5
ATOM      5  C   UNK A   0       5.688   3.951  17.916  0.00  0.00    +0.000 C 
BRANCH   5   6
ATOM      6  N   ALA A   1       7.009   4.291  17.351  0.00  0.00    +0.000 NA
ATOM      7  H   ALA A   1       7.542   3.419  17.264  0.00  0.00    +0.000 HD
BRANCH   6   9
ATOM      8  CB  ALA A   1       6.057   3.989  15.119  0.00  0.00    +0.000 C 
ATOM      9  CA  ALA A   1       6.903   4.897  16.006  0.00  0.00    +0.000 C 
BRANCH   9  10
ATOM     10  C   ALA A   1       6.238   6.282  16.053  0.00  0.00    +0.000 C 
ATOM     11  O   ALA A   1       5.266   6.608  15.385  0.00  0.00    +0.000 OA
BRANCH  10  12
ATOM     12  OXT ALA A   1       6.839   7.139  16.912  0.00  0.00    +0.000 OA
ATOM     13  HXT ALA A   1       7.759   6.904  17.137  0.00  0.00    +0.000 HD
ENDBRANCH  10  12
ENDBRANCH   9  10
ENDBRANCH   6   9
ENDBRANCH   5   6
ENDBRANCH   1   5
BRANCH   1  14
ATOM     14  C   UNK A   0       4.206   5.505  19.261  0.00  0.00    +0.000 C 
BRANCH  14  15
ATOM     15  C   UNK A   0       2.943   4.695  19.427  0.00  0.00    +0.000 A 
ATOM     16  C   UNK A   0       2.481   4.374  20.710  0.00  0.00    +0.000 A 
ATOM     17  C   UNK A   0       1.356   3.567  20.877  0.00  0.00    +0.000 A 
ATOM     18  C   UNK A   0       0.676   3.083  19.764  0.00  0.00    +0.000 A 
ATOM     19  C   UNK A   0       1.118   3.405  18.480  0.00  0.00    +0.000 A 
ATOM     20  C   UNK A   0       2.250   4.208  18.312  0.00  0.00    +0.000 A 
ENDBRANCH  14  15
ENDBRANCH   1  14
TORSDOF 8
ENDMDL
MODEL 9
REMARK VINA RESULT:      -6.0      1.857      2.462
REMARK  Name = 
REMARK  9 active torsions:
REMARK  status: ('A' for Active; 'I' for Inactive)
REMARK    1  A    between atoms: CB_1  and  CA_2
REMARK    2  A    between atoms: CA_2  and  N_3
REMARK    3  A    between atoms: CA_2  and  C_14
REMARK    4  A    between atoms: N_3  and  C_4
REMARK    5  A    between atoms: C_4  and  C_5
REMARK    6  A    between atoms: C_5  and  N_6
REMARK    7  A    between atoms: C_5  and  C_7
REMARK    8  A    between atoms: C_7  and  C_8
REMARK    9  A    between atoms: C_14  and  OXT_16
REMARK                            x       y       z     vdW  Elec       q    Type
REMARK                         _______ _______ _______ _____ _____    ______ ____
ROOT
ATOM      1  C   UNK A   0       4.172   4.880  17.437  0.00  0.00    +0.000 C 
ENDROOT
BRANCH   1   2
ATOM      2  N   UNK A   0       4.679   3.529  17.750  0.00  0.00    +0.000 NA
ATOM      3  H   UNK A   0       5.693   3.558  17.825  0.00  0.00    +0.000 HD
ATOM      4  H   UNK A   0       4.489   2.950  16.929  0.00  0.00    +0.000 HD
ENDBRANCH   1   2
BRANCH   1   5
ATOM      5  C   UNK A   0       5.034   5.931  18.185  0.00  0.00    +0.000 C 
BRANCH   5   6
ATOM      6  N   ALA A   1       5.768   6.775  17.222  0.00  0.00    +0.000 NA
ATOM      7  H   ALA A   1       5.668   7.750  17.526  0.00  0.00    +0.000 HD
BRANCH   6   9
ATOM      8  CB  ALA A   1       7.680   6.110  18.592  0.00  0.00    +0.000 C 
ATOM      9  CA  ALA A   1       7.211   6.455  17.182  0.00  0.00    +0.000 C 
BRANCH   9  10
ATOM     10  C   ALA A   1       7.506   5.256  16.267  0.00  0.00    +0.000 C 
ATOM     11  O   ALA A   1       7.458   5.288  15.045  0.00  0.00    +0.000 OA
BRANCH  10  12
ATOM     12  OXT ALA A   1       7.825   4.127  16.944  0.00  0.00    +0.000 OA
ATOM     13  HXT ALA A   1       8.671   3.721  16.673  0.00  0.00    +0.000 HD
ENDBRANCH  10  12
ENDBRANCH   9  10
ENDBRANCH   6   9
ENDBRANCH   5   6
ENDBRANCH   1   5
BRANCH   1  14
ATOM     14  C   UNK A   0       2.682   5.073  17.791  0.00  0.00    +0.000 C 
BRANCH  14  15
ATOM     15  C   UNK A   0       2.243   4.271  18.991  0.00  0.00    +0.000 A 
ATOM     16  C   UNK A   0       1.434   3.140  18.819  0.00  0.00    +0.000 A 
ATOM     17  C   UNK A   0       0.963   2.431  19.923  0.00  0.00    +0.000 A 
ATOM     18  C   UNK A   0       1.303   2.839  21.209  0.00  0.00    +0.000 A 
ATOM     19  C   UNK A   0       2.117   3.957  21.394  0.00  0.00    +0.000 A 
ATOM     20  C   UNK A   0       2.585   4.672  20.289  0.00  0.00    +0.000 A 
ENDBRANCH  14  15
ENDBRANCH   1  14
TORSDOF 8
ENDMDL
