MODEL 1
REMARK VINA RESULT:      -8.4      0.000      0.000
REMARK  Name = 
REMARK  8 active torsions:
REMARK  status: ('A' for Active; 'I' for Inactive)
REMARK    1  A    between atoms: C_1  and  O_2
REMARK    2  A    between atoms: O_2  and  C_3
REMARK    3  A    between atoms: C_6  and  N_7
REMARK    4  A    between atoms: N_10  and  C_11
REMARK    5  A    between atoms: C_14  and  C_15
REMARK    6  A    between atoms: C_15  and  C_16
REMARK    7  A    between atoms: C_16  and  C_17
REMARK    8  A    between atoms: C_16  and  C_19
REMARK                            x       y       z     vdW  Elec       q    Type
REMARK                         _______ _______ _______ _____ _____    ______ ____
ROOT
ATOM      1  C   UNL     1       1.507   7.965  19.636  0.00  0.00    +0.000 A 
ATOM      2  C   UNL     1       1.808   6.804  20.367  0.00  0.00    +0.000 A 
ATOM      3  C   UNL     1       2.805   5.898  19.964  0.00  0.00    +0.000 A 
ATOM      4  C   UNL     1       3.538   6.124  18.795  0.00  0.00    +0.000 A 
ATOM      5  C   UNL     1       3.266   7.289  18.069  0.00  0.00    +0.000 A 
ATOM      6  C   UNL     1       2.272   8.191  18.488  0.00  0.00    +0.000 A 
ENDROOT
BRANCH   1  10
ATOM      7  N   UNL     1       0.354  11.141  21.844  0.00  0.00    +0.000 N 
ATOM      8  C   UNL     1       0.429   9.782  22.406  0.00  0.00    +0.000 C 
ATOM      9  C   UNL     1      -0.091   8.718  21.418  0.00  0.00    +0.000 C 
ATOM     10  N   UNL     1       0.522   8.837  20.078  0.00  0.00    +0.000 N 
ATOM     11  C   UNL     1       0.482  10.209  19.516  0.00  0.00    +0.000 C 
ATOM     12  C   UNL     1       1.000  11.276  20.520  0.00  0.00    +0.000 C 
BRANCH   7  16
ATOM     13  C   UNL     1      -2.516  13.975  23.118  0.00  0.00    +0.000 A 
ATOM     14  C   UNL     1      -2.752  12.612  23.251  0.00  0.00    +0.000 A 
ATOM     15  C   UNL     1      -1.781  11.683  22.849  0.00  0.00    +0.000 A 
ATOM     16  C   UNL     1      -0.563  12.083  22.276  0.00  0.00    +0.000 A 
ATOM     17  C   UNL     1      -0.366  13.462  22.126  0.00  0.00    +0.000 A 
ATOM     18  C   UNL     1      -1.323  14.399  22.545  0.00  0.00    +0.000 A 
BRANCH  13  20
ATOM     19  C   UNL     1      -4.749  14.148  23.856  0.00  0.00    +0.000 C 
ATOM     20  O   UNL     1      -3.523  14.799  23.539  0.00  0.00    +0.000 OA
ENDBRANCH  13  20
ENDBRANCH   7  16
ENDBRANCH   1  10
BRANCH   4  21
ATOM     21  C   UNL     1       4.573   5.123  18.305  0.00  0.00    +0.000 C 
BRANCH  21  22
ATOM     22  C   UNL     1       5.822   5.779  17.671  0.00  0.00    +0.000 C 
BRANCH  22  23
ATOM     23  C   UNL     1       6.059   5.284  16.255  0.00  0.00    +0.000 A 
ATOM     24  N   UNL     1       5.292   4.431  15.596  0.00  0.00    +0.000 NA
ATOM     25  C   UNL     1       5.861   4.284  14.350  0.00  0.00    +0.000 A 
ATOM     26  C   UNL     1       5.454   3.505  13.258  0.00  0.00    +0.000 A 
ATOM     27  C   UNL     1       6.239   3.507  12.095  0.00  0.00    +0.000 A 
ATOM     28  C   UNL     1       7.401   4.276  12.020  0.00  0.00    +0.000 A 
ATOM     29  C   UNL     1       7.810   5.082  13.091  0.00  0.00    +0.000 A 
ATOM     30  C   UNL     1       7.009   5.057  14.237  0.00  0.00    +0.000 A 
ATOM     31  N   UNL     1       7.094   5.711  15.441  0.00  0.00    +0.000 N 
ATOM     32  H   UNL     1       7.797   6.402  15.674  0.00  0.00    +0.000 HD
ENDBRANCH  22  23
BRANCH  22  33
ATOM     33  C   UNL     1       7.020   5.534  18.492  0.00  0.00    +0.000 C 
ATOM     34  N   UNL     1       7.914   5.294  19.197  0.00  0.00    +0.000 NA
ENDBRANCH  22  33
ENDBRANCH  21  22
ENDBRANCH   4  21
TORSDOF 7
ENDMDL
MODEL 2
REMARK VINA RESULT:      -8.2      0.673      1.215
REMARK  Name = 
REMARK  8 active torsions:
REMARK  status: ('A' for Active; 'I' for Inactive)
REMARK    1  A    between atoms: C_1  and  O_2
REMARK    2  A    between atoms: O_2  and  C_3
REMARK    3  A    between atoms: C_6  and  N_7
REMARK    4  A    between atoms: N_10  and  C_11
REMARK    5  A    between atoms: C_14  and  C_15
REMARK    6  A    between atoms: C_15  and  C_16
REMARK    7  A    between atoms: C_16  and  C_17
REMARK    8  A    between atoms: C_16  and  C_19
REMARK                            x       y       z     vdW  Elec       q    Type
REMARK                         _______ _______ _______ _____ _____    ______ ____
ROOT
ATOM      1  C   UNL     1       1.434   8.622  19.316  0.00  0.00    +0.000 A 
ATOM      2  C   UNL     1       1.759   7.553  20.166  0.00  0.00    +0.000 A 
ATOM      3  C   UNL     1       2.691   6.562  19.808  0.00  0.00    +0.000 A 
ATOM      4  C   UNL     1       3.331   6.607  18.567  0.00  0.00    +0.000 A 
ATOM      5  C   UNL     1       3.036   7.680  17.719  0.00  0.00    +0.000 A 
ATOM      6  C   UNL     1       2.109   8.668  18.092  0.00  0.00    +0.000 A 
ENDROOT
BRANCH   1  10
ATOM      7  N   UNL     1       0.323  11.609  21.793  0.00  0.00    +0.000 N 
ATOM      8  C   UNL     1       0.080  10.192  22.116  0.00  0.00    +0.000 C 
ATOM      9  C   UNL     1      -0.372   9.387  20.881  0.00  0.00    +0.000 C 
ATOM     10  N   UNL     1       0.516   9.583  19.716  0.00  0.00    +0.000 N 
ATOM     11  C   UNL     1       0.794  11.006  19.402  0.00  0.00    +0.000 C 
ATOM     12  C   UNL     1       1.242  11.813  20.652  0.00  0.00    +0.000 C 
BRANCH   7  16
ATOM     13  C   UNL     1      -2.317  14.677  23.024  0.00  0.00    +0.000 A 
ATOM     14  C   UNL     1      -2.583  13.346  23.321  0.00  0.00    +0.000 A 
ATOM     15  C   UNL     1      -1.687  12.340  22.929  0.00  0.00    +0.000 A 
ATOM     16  C   UNL     1      -0.518  12.628  22.207  0.00  0.00    +0.000 A 
ATOM     17  C   UNL     1      -0.291  13.974  21.896  0.00  0.00    +0.000 A 
ATOM     18  C   UNL     1      -1.171  14.990  22.301  0.00  0.00    +0.000 A 
BRANCH  13  20
ATOM     19  C   UNL     1      -3.420  15.667  24.859  0.00  0.00    +0.000 C 
ATOM     20  O   UNL     1      -3.251  15.581  23.447  0.00  0.00    +0.000 OA
ENDBRANCH  13  20
ENDBRANCH   7  16
ENDBRANCH   1  10
BRANCH   4  21
ATOM     21  C   UNL     1       4.291   5.510  18.132  0.00  0.00    +0.000 C 
BRANCH  21  22
ATOM     22  C   UNL     1       5.653   6.039  17.626  0.00  0.00    +0.000 C 
BRANCH  22  23
ATOM     23  C   UNL     1       5.976   5.519  16.236  0.00  0.00    +0.000 A 
ATOM     24  N   UNL     1       7.040   5.841  15.519  0.00  0.00    +0.000 NA
ATOM     25  C   UNL     1       6.944   5.126  14.346  0.00  0.00    +0.000 A 
ATOM     26  C   UNL     1       7.804   5.087  13.239  0.00  0.00    +0.000 A 
ATOM     27  C   UNL     1       7.457   4.289  12.138  0.00  0.00    +0.000 A 
ATOM     28  C   UNL     1       6.279   3.539  12.145  0.00  0.00    +0.000 A 
ATOM     29  C   UNL     1       5.420   3.545  13.251  0.00  0.00    +0.000 A 
ATOM     30  C   UNL     1       5.792   4.351  14.331  0.00  0.00    +0.000 A 
ATOM     31  N   UNL     1       5.214   4.586  15.554  0.00  0.00    +0.000 N 
ATOM     32  H   UNL     1       4.375   4.131  15.893  0.00  0.00    +0.000 HD
ENDBRANCH  22  23
BRANCH  22  33
ATOM     33  C   UNL     1       6.737   5.679  18.557  0.00  0.00    +0.000 C 
ATOM     34  N   UNL     1       7.593   5.314  19.255  0.00  0.00    +0.000 NA
ENDBRANCH  22  33
ENDBRANCH  21  22
ENDBRANCH   4  21
TORSDOF 7
ENDMDL
MODEL 3
REMARK VINA RESULT:      -8.1      0.970      1.061
REMARK  Name = 
REMARK  8 active torsions:
REMARK  status: ('A' for Active; 'I' for Inactive)
REMARK    1  A    between atoms: C_1  and  O_2
REMARK    2  A    between atoms: O_2  and  C_3
REMARK    3  A    between atoms: C_6  and  N_7
REMARK    4  A    between atoms: N_10  and  C_11
REMARK    5  A    between atoms: C_14  and  C_15
REMARK    6  A    between atoms: C_15  and  C_16
REMARK    7  A    between atoms: C_16  and  C_17
REMARK    8  A    between atoms: C_16  and  C_19
REMARK                            x       y       z     vdW  Elec       q    Type
REMARK                         _______ _______ _______ _____ _____    ______ ____
ROOT
ATOM      1  C   UNL     1       1.378   9.006  19.128  0.00  0.00    +0.000 A 
ATOM      2  C   UNL     1       1.609   7.947  20.020  0.00  0.00    +0.000 A 
ATOM      3  C   UNL     1       2.465   6.875  19.711  0.00  0.00    +0.000 A 
ATOM      4  C   UNL     1       3.121   6.824  18.478  0.00  0.00    +0.000 A 
ATOM      5  C   UNL     1       2.920   7.885  17.588  0.00  0.00    +0.000 A 
ATOM      6  C   UNL     1       2.068   8.955  17.912  0.00  0.00    +0.000 A 
ENDROOT
BRANCH   1  10
ATOM      7  N   UNL     1       0.372  12.036  21.598  0.00  0.00    +0.000 N 
ATOM      8  C   UNL     1      -0.043  10.646  21.854  0.00  0.00    +0.000 C 
ATOM      9  C   UNL     1      -0.467   9.922  20.560  0.00  0.00    +0.000 C 
ATOM     10  N   UNL     1       0.534  10.050  19.480  0.00  0.00    +0.000 N 
ATOM     11  C   UNL     1       0.983  11.442  19.237  0.00  0.00    +0.000 C 
ATOM     12  C   UNL     1       1.403  12.168  20.545  0.00  0.00    +0.000 C 
BRANCH   7  16
ATOM     13  C   UNL     1      -2.033  15.321  22.747  0.00  0.00    +0.000 A 
ATOM     14  C   UNL     1      -2.073  14.125  23.454  0.00  0.00    +0.000 A 
ATOM     15  C   UNL     1      -1.252  13.052  23.079  0.00  0.00    +0.000 A 
ATOM     16  C   UNL     1      -0.391  13.128  21.973  0.00  0.00    +0.000 A 
ATOM     17  C   UNL     1      -0.394  14.334  21.260  0.00  0.00    +0.000 A 
ATOM     18  C   UNL     1      -1.197  15.421  21.641  0.00  0.00    +0.000 A 
BRANCH  13  20
ATOM     19  C   UNL     1      -3.663  15.966  24.325  0.00  0.00    +0.000 C 
ATOM     20  O   UNL     1      -2.872  16.305  23.190  0.00  0.00    +0.000 OA
ENDBRANCH  13  20
ENDBRANCH   7  16
ENDBRANCH   1  10
BRANCH   4  21
ATOM     21  C   UNL     1       3.997   5.641  18.096  0.00  0.00    +0.000 C 
BRANCH  21  22
ATOM     22  C   UNL     1       5.415   6.042  17.628  0.00  0.00    +0.000 C 
BRANCH  22  23
ATOM     23  C   UNL     1       5.740   5.464  16.262  0.00  0.00    +0.000 A 
ATOM     24  N   UNL     1       5.011   4.579  15.604  0.00  0.00    +0.000 NA
ATOM     25  C   UNL     1       5.659   4.358  14.408  0.00  0.00    +0.000 A 
ATOM     26  C   UNL     1       5.317   3.519  13.337  0.00  0.00    +0.000 A 
ATOM     27  C   UNL     1       6.177   3.449  12.231  0.00  0.00    +0.000 A 
ATOM     28  C   UNL     1       7.349   4.206  12.190  0.00  0.00    +0.000 A 
ATOM     29  C   UNL     1       7.694   5.070  13.238  0.00  0.00    +0.000 A 
ATOM     30  C   UNL     1       6.819   5.116  14.327  0.00  0.00    +0.000 A 
ATOM     31  N   UNL     1       6.831   5.837  15.495  0.00  0.00    +0.000 N 
ATOM     32  H   UNL     1       7.524   6.536  15.734  0.00  0.00    +0.000 HD
ENDBRANCH  22  23
BRANCH  22  33
ATOM     33  C   UNL     1       6.432   5.615  18.605  0.00  0.00    +0.000 C 
ATOM     34  N   UNL     1       7.185   5.205  19.392  0.00  0.00    +0.000 NA
ENDBRANCH  22  33
ENDBRANCH  21  22
ENDBRANCH   4  21
TORSDOF 7
ENDMDL
MODEL 4
REMARK VINA RESULT:      -8.1      1.016      1.665
REMARK  Name = 
REMARK  8 active torsions:
REMARK  status: ('A' for Active; 'I' for Inactive)
REMARK    1  A    between atoms: C_1  and  O_2
REMARK    2  A    between atoms: O_2  and  C_3
REMARK    3  A    between atoms: C_6  and  N_7
REMARK    4  A    between atoms: N_10  and  C_11
REMARK    5  A    between atoms: C_14  and  C_15
REMARK    6  A    between atoms: C_15  and  C_16
REMARK    7  A    between atoms: C_16  and  C_17
REMARK    8  A    between atoms: C_16  and  C_19
REMARK                            x       y       z     vdW  Elec       q    Type
REMARK                         _______ _______ _______ _____ _____    ______ ____
ROOT
ATOM      1  C   UNL     1       1.480   8.814  19.111  0.00  0.00    +0.000 A 
ATOM      2  C   UNL     1       1.748   7.781  20.024  0.00  0.00    +0.000 A 
ATOM      3  C   UNL     1       2.658   6.746  19.744  0.00  0.00    +0.000 A 
ATOM      4  C   UNL     1       3.334   6.708  18.522  0.00  0.00    +0.000 A 
ATOM      5  C   UNL     1       3.096   7.744  17.611  0.00  0.00    +0.000 A 
ATOM      6  C   UNL     1       2.190   8.777  17.907  0.00  0.00    +0.000 A 
ENDROOT
BRANCH   1  10
ATOM      7  N   UNL     1       0.327  11.871  21.482  0.00  0.00    +0.000 N 
ATOM      8  C   UNL     1      -0.008  10.470  21.791  0.00  0.00    +0.000 C 
ATOM      9  C   UNL     1      -0.402   9.677  20.528  0.00  0.00    +0.000 C 
ATOM     10  N   UNL     1       0.582   9.822  19.434  0.00  0.00    +0.000 N 
ATOM     11  C   UNL     1       0.952  11.227  19.137  0.00  0.00    +0.000 C 
ATOM     12  C   UNL     1       1.340  12.021  20.414  0.00  0.00    +0.000 C 
BRANCH   7  16
ATOM     13  C   UNL     1      -2.112  15.171  22.508  0.00  0.00    +0.000 A 
ATOM     14  C   UNL     1      -1.441  15.131  21.292  0.00  0.00    +0.000 A 
ATOM     15  C   UNL     1      -0.656  14.019  20.952  0.00  0.00    +0.000 A 
ATOM     16  C   UNL     1      -0.492  12.932  21.825  0.00  0.00    +0.000 A 
ATOM     17  C   UNL     1      -1.155  13.013  23.056  0.00  0.00    +0.000 A 
ATOM     18  C   UNL     1      -1.960  14.113  23.396  0.00  0.00    +0.000 A 
BRANCH  13  20
ATOM     19  C   UNL     1      -3.472  16.870  21.600  0.00  0.00    +0.000 C 
ATOM     20  O   UNL     1      -2.850  16.297  22.746  0.00  0.00    +0.000 OA
ENDBRANCH  13  20
ENDBRANCH   7  16
ENDBRANCH   1  10
BRANCH   4  21
ATOM     21  C   UNL     1       4.271   5.562  18.171  0.00  0.00    +0.000 C 
BRANCH  21  22
ATOM     22  C   UNL     1       5.659   6.024  17.671  0.00  0.00    +0.000 C 
BRANCH  22  23
ATOM     23  C   UNL     1       5.958   5.497  16.278  0.00  0.00    +0.000 A 
ATOM     24  N   UNL     1       7.014   5.808  15.545  0.00  0.00    +0.000 NA
ATOM     25  C   UNL     1       6.896   5.090  14.375  0.00  0.00    +0.000 A 
ATOM     26  C   UNL     1       7.740   5.041  13.256  0.00  0.00    +0.000 A 
ATOM     27  C   UNL     1       7.370   4.243  12.163  0.00  0.00    +0.000 A 
ATOM     28  C   UNL     1       6.187   3.503  12.189  0.00  0.00    +0.000 A 
ATOM     29  C   UNL     1       5.344   3.518  13.308  0.00  0.00    +0.000 A 
ATOM     30  C   UNL     1       5.738   4.325  14.380  0.00  0.00    +0.000 A 
ATOM     31  N   UNL     1       5.179   4.568  15.610  0.00  0.00    +0.000 N 
ATOM     32  H   UNL     1       4.341   4.121  15.962  0.00  0.00    +0.000 HD
ENDBRANCH  22  23
BRANCH  22  33
ATOM     33  C   UNL     1       6.721   5.603  18.601  0.00  0.00    +0.000 C 
ATOM     34  N   UNL     1       7.546   5.187  19.309  0.00  0.00    +0.000 NA
ENDBRANCH  22  33
ENDBRANCH  21  22
ENDBRANCH   4  21
TORSDOF 7
ENDMDL
MODEL 5
REMARK VINA RESULT:      -8.0      0.665      1.285
REMARK  Name = 
REMARK  8 active torsions:
REMARK  status: ('A' for Active; 'I' for Inactive)
REMARK    1  A    between atoms: C_1  and  O_2
REMARK    2  A    between atoms: O_2  and  C_3
REMARK    3  A    between atoms: C_6  and  N_7
REMARK    4  A    between atoms: N_10  and  C_11
REMARK    5  A    between atoms: C_14  and  C_15
REMARK    6  A    between atoms: C_15  and  C_16
REMARK    7  A    between atoms: C_16  and  C_17
REMARK    8  A    between atoms: C_16  and  C_19
REMARK                            x       y       z     vdW  Elec       q    Type
REMARK                         _______ _______ _______ _____ _____    ______ ____
ROOT
ATOM      1  C   UNL     1       1.583   8.092  19.511  0.00  0.00    +0.000 A 
ATOM      2  C   UNL     1       2.293   8.174  18.302  0.00  0.00    +0.000 A 
ATOM      3  C   UNL     1       3.272   7.231  17.938  0.00  0.00    +0.000 A 
ATOM      4  C   UNL     1       3.581   6.166  18.788  0.00  0.00    +0.000 A 
ATOM      5  C   UNL     1       2.864   6.057  19.985  0.00  0.00    +0.000 A 
ATOM      6  C   UNL     1       1.882   7.001  20.333  0.00  0.00    +0.000 A 
ENDROOT
BRANCH   1  10
ATOM      7  N   UNL     1       0.462  11.489  21.381  0.00  0.00    +0.000 N 
ATOM      8  C   UNL     1       0.445  10.180  22.057  0.00  0.00    +0.000 C 
ATOM      9  C   UNL     1      -0.070   9.058  21.131  0.00  0.00    +0.000 C 
ATOM     10  N   UNL     1       0.618   9.038  19.823  0.00  0.00    +0.000 N 
ATOM     11  C   UNL     1       0.671  10.358  19.149  0.00  0.00    +0.000 C 
ATOM     12  C   UNL     1       1.183  11.484  20.089  0.00  0.00    +0.000 C 
BRANCH   7  16
ATOM     13  C   UNL     1      -2.213  14.643  22.272  0.00  0.00    +0.000 A 
ATOM     14  C   UNL     1      -1.548  14.594  21.053  0.00  0.00    +0.000 A 
ATOM     15  C   UNL     1      -0.683  13.530  20.759  0.00  0.00    +0.000 A 
ATOM     16  C   UNL     1      -0.433  12.501  21.681  0.00  0.00    +0.000 A 
ATOM     17  C   UNL     1      -1.093  12.591  22.913  0.00  0.00    +0.000 A 
ATOM     18  C   UNL     1      -1.977  13.642  23.207  0.00  0.00    +0.000 A 
BRANCH  13  20
ATOM     19  C   UNL     1      -4.422  15.421  22.545  0.00  0.00    +0.000 C 
ATOM     20  O   UNL     1      -3.032  15.720  22.463  0.00  0.00    +0.000 OA
ENDBRANCH  13  20
ENDBRANCH   7  16
ENDBRANCH   1  10
BRANCH   4  21
ATOM     21  C   UNL     1       4.682   5.175  18.446  0.00  0.00    +0.000 C 
BRANCH  21  22
ATOM     22  C   UNL     1       5.914   5.820  17.769  0.00  0.00    +0.000 C 
BRANCH  22  23
ATOM     23  C   UNL     1       6.104   5.316  16.350  0.00  0.00    +0.000 A 
ATOM     24  N   UNL     1       5.288   4.500  15.704  0.00  0.00    +0.000 NA
ATOM     25  C   UNL     1       5.829   4.329  14.448  0.00  0.00    +0.000 A 
ATOM     26  C   UNL     1       5.368   3.570  13.362  0.00  0.00    +0.000 A 
ATOM     27  C   UNL     1       6.133   3.537  12.186  0.00  0.00    +0.000 A 
ATOM     28  C   UNL     1       7.328   4.252  12.093  0.00  0.00    +0.000 A 
ATOM     29  C   UNL     1       7.792   5.036  13.157  0.00  0.00    +0.000 A 
ATOM     30  C   UNL     1       7.009   5.047  14.316  0.00  0.00    +0.000 A 
ATOM     31  N   UNL     1       7.145   5.695  15.518  0.00  0.00    +0.000 N 
ATOM     32  H   UNL     1       7.883   6.353  15.740  0.00  0.00    +0.000 HD
ENDBRANCH  22  23
BRANCH  22  33
ATOM     33  C   UNL     1       7.136   5.573  18.554  0.00  0.00    +0.000 C 
ATOM     34  N   UNL     1       8.074   5.293  19.183  0.00  0.00    +0.000 NA
ENDBRANCH  22  33
ENDBRANCH  21  22
ENDBRANCH   4  21
TORSDOF 7
ENDMDL
MODEL 6
REMARK VINA RESULT:      -8.0      1.268      1.992
REMARK  Name = 
REMARK  8 active torsions:
REMARK  status: ('A' for Active; 'I' for Inactive)
REMARK    1  A    between atoms: C_1  and  O_2
REMARK    2  A    between atoms: O_2  and  C_3
REMARK    3  A    between atoms: C_6  and  N_7
REMARK    4  A    between atoms: N_10  and  C_11
REMARK    5  A    between atoms: C_14  and  C_15
REMARK    6  A    between atoms: C_15  and  C_16
REMARK    7  A    between atoms: C_16  and  C_17
REMARK    8  A    between atoms: C_16  and  C_19
REMARK                            x       y       z     vdW  Elec       q    Type
REMARK                         _______ _______ _______ _____ _____    ______ ____
ROOT
ATOM      1  C   UNL     1       1.779   8.232  19.082  0.00  0.00    +0.000 A 
ATOM      2  C   UNL     1       2.560   8.261  17.914  0.00  0.00    +0.000 A 
ATOM      3  C   UNL     1       3.513   7.269  17.621  0.00  0.00    +0.000 A 
ATOM      4  C   UNL     1       3.725   6.206  18.503  0.00  0.00    +0.000 A 
ATOM      5  C   UNL     1       2.936   6.150  19.658  0.00  0.00    +0.000 A 
ATOM      6  C   UNL     1       1.981   7.143  19.935  0.00  0.00    +0.000 A 
ENDROOT
BRANCH   1  10
ATOM      7  N   UNL     1       0.751  11.771  20.728  0.00  0.00    +0.000 N 
ATOM      8  C   UNL     1       0.683  10.507  21.482  0.00  0.00    +0.000 C 
ATOM      9  C   UNL     1       0.142   9.348  20.620  0.00  0.00    +0.000 C 
ATOM     10  N   UNL     1       0.842   9.226  19.324  0.00  0.00    +0.000 N 
ATOM     11  C   UNL     1       0.944  10.499  18.572  0.00  0.00    +0.000 C 
ATOM     12  C   UNL     1       1.484  11.664  19.447  0.00  0.00    +0.000 C 
BRANCH   7  16
ATOM     13  C   UNL     1      -1.868  15.001  21.508  0.00  0.00    +0.000 A 
ATOM     14  C   UNL     1      -0.538  15.047  21.911  0.00  0.00    +0.000 A 
ATOM     15  C   UNL     1       0.326  13.980  21.624  0.00  0.00    +0.000 A 
ATOM     16  C   UNL     1      -0.114  12.827  20.955  0.00  0.00    +0.000 A 
ATOM     17  C   UNL     1      -1.466  12.795  20.588  0.00  0.00    +0.000 A 
ATOM     18  C   UNL     1      -2.333  13.867  20.852  0.00  0.00    +0.000 A 
BRANCH  13  20
ATOM     19  C   UNL     1      -2.985  16.933  20.746  0.00  0.00    +0.000 C 
ATOM     20  O   UNL     1      -2.629  16.088  21.836  0.00  0.00    +0.000 OA
ENDBRANCH  13  20
ENDBRANCH   7  16
ENDBRANCH   1  10
BRANCH   4  21
ATOM     21  C   UNL     1       4.797   5.161  18.239  0.00  0.00    +0.000 C 
BRANCH  21  22
ATOM     22  C   UNL     1       6.095   5.739  17.628  0.00  0.00    +0.000 C 
BRANCH  22  23
ATOM     23  C   UNL     1       6.288   5.290  16.191  0.00  0.00    +0.000 A 
ATOM     24  N   UNL     1       7.276   5.660  15.392  0.00  0.00    +0.000 NA
ATOM     25  C   UNL     1       7.075   4.999  14.200  0.00  0.00    +0.000 A 
ATOM     26  C   UNL     1       7.826   5.024  13.016  0.00  0.00    +0.000 A 
ATOM     27  C   UNL     1       7.382   4.274  11.916  0.00  0.00    +0.000 A 
ATOM     28  C   UNL     1       6.217   3.509  11.999  0.00  0.00    +0.000 A 
ATOM     29  C   UNL     1       5.468   3.450  13.181  0.00  0.00    +0.000 A 
ATOM     30  C   UNL     1       5.934   4.210  14.258  0.00  0.00    +0.000 A 
ATOM     31  N   UNL     1       5.473   4.379  15.540  0.00  0.00    +0.000 N 
ATOM     32  H   UNL     1       4.675   3.897  15.935  0.00  0.00    +0.000 HD
ENDBRANCH  22  23
BRANCH  22  33
ATOM     33  C   UNL     1       7.270   5.360  18.432  0.00  0.00    +0.000 C 
ATOM     34  N   UNL     1       8.146   4.999  19.107  0.00  0.00    +0.000 NA
ENDBRANCH  22  33
ENDBRANCH  21  22
ENDBRANCH   4  21
TORSDOF 7
ENDMDL
MODEL 7
REMARK VINA RESULT:      -7.9      1.357      2.016
REMARK  Name = 
REMARK  8 active torsions:
REMARK  status: ('A' for Active; 'I' for Inactive)
REMARK    1  A    between atoms: C_1  and  O_2
REMARK    2  A    between atoms: O_2  and  C_3
REMARK    3  A    between atoms: C_6  and  N_7
REMARK    4  A    between atoms: N_10  and  C_11
REMARK    5  A    between atoms: C_14  and  C_15
REMARK    6  A    between atoms: C_15  and  C_16
REMARK    7  A    between atoms: C_16  and  C_17
REMARK    8  A    between atoms: C_16  and  C_19
REMARK                            x       y       z     vdW  Elec       q    Type
REMARK                         _______ _______ _______ _____ _____    ______ ____
ROOT
ATOM      1  C   UNL     1       1.792   8.355  19.010  0.00  0.00    +0.000 A 
ATOM      2  C   UNL     1       2.630   8.353  17.883  0.00  0.00    +0.000 A 
ATOM      3  C   UNL     1       3.564   7.330  17.640  0.00  0.00    +0.000 A 
ATOM      4  C   UNL     1       3.697   6.265  18.534  0.00  0.00    +0.000 A 
ATOM      5  C   UNL     1       2.851   6.239  19.649  0.00  0.00    +0.000 A 
ATOM      6  C   UNL     1       1.916   7.264  19.876  0.00  0.00    +0.000 A 
ENDROOT
BRANCH   1  10
ATOM      7  N   UNL     1       0.875  12.043  20.372  0.00  0.00    +0.000 N 
ATOM      8  C   UNL     1       0.831  10.853  21.240  0.00  0.00    +0.000 C 
ATOM      9  C   UNL     1       0.239   9.628  20.514  0.00  0.00    +0.000 C 
ATOM     10  N   UNL     1       0.876   9.379  19.203  0.00  0.00    +0.000 N 
ATOM     11  C   UNL     1       0.956  10.578  18.334  0.00  0.00    +0.000 C 
ATOM     12  C   UNL     1       1.547  11.810  19.074  0.00  0.00    +0.000 C 
BRANCH   7  16
ATOM     13  C   UNL     1      -1.634  15.412  20.869  0.00  0.00    +0.000 A 
ATOM     14  C   UNL     1      -0.821  15.287  19.748  0.00  0.00    +0.000 A 
ATOM     15  C   UNL     1      -0.013  14.152  19.583  0.00  0.00    +0.000 A 
ATOM     16  C   UNL     1       0.032  13.127  20.540  0.00  0.00    +0.000 A 
ATOM     17  C   UNL     1      -0.774  13.294  21.674  0.00  0.00    +0.000 A 
ATOM     18  C   UNL     1      -1.601  14.416  21.838  0.00  0.00    +0.000 A 
BRANCH  13  20
ATOM     19  C   UNL     1      -1.688  17.711  21.394  0.00  0.00    +0.000 C 
ATOM     20  O   UNL     1      -2.382  16.554  20.939  0.00  0.00    +0.000 OA
ENDBRANCH  13  20
ENDBRANCH   7  16
ENDBRANCH   1  10
BRANCH   4  21
ATOM     21  C   UNL     1       4.746   5.184  18.327  0.00  0.00    +0.000 C 
BRANCH  21  22
ATOM     22  C   UNL     1       6.060   5.704  17.699  0.00  0.00    +0.000 C 
BRANCH  22  23
ATOM     23  C   UNL     1       6.225   5.228  16.266  0.00  0.00    +0.000 A 
ATOM     24  N   UNL     1       5.424   4.386  15.635  0.00  0.00    +0.000 NA
ATOM     25  C   UNL     1       5.929   4.256  14.360  0.00  0.00    +0.000 A 
ATOM     26  C   UNL     1       5.467   3.493  13.278  0.00  0.00    +0.000 A 
ATOM     27  C   UNL     1       6.192   3.509  12.077  0.00  0.00    +0.000 A 
ATOM     28  C   UNL     1       7.352   4.278  11.955  0.00  0.00    +0.000 A 
ATOM     29  C   UNL     1       7.815   5.067  13.016  0.00  0.00    +0.000 A 
ATOM     30  C   UNL     1       7.073   5.028  14.200  0.00  0.00    +0.000 A 
ATOM     31  N   UNL     1       7.219   5.665  15.407  0.00  0.00    +0.000 N 
ATOM     32  H   UNL     1       7.935   6.351  15.614  0.00  0.00    +0.000 HD
ENDBRANCH  22  23
BRANCH  22  33
ATOM     33  C   UNL     1       7.226   5.290  18.499  0.00  0.00    +0.000 C 
ATOM     34  N   UNL     1       8.198   5.005  19.070  0.00  0.00    +0.000 NA
ENDBRANCH  22  33
ENDBRANCH  21  22
ENDBRANCH   4  21
TORSDOF 7
ENDMDL
MODEL 8
REMARK VINA RESULT:      -7.9      1.305      1.385
REMARK  Name = 
REMARK  8 active torsions:
REMARK  status: ('A' for Active; 'I' for Inactive)
REMARK    1  A    between atoms: C_1  and  O_2
REMARK    2  A    between atoms: O_2  and  C_3
REMARK    3  A    between atoms: C_6  and  N_7
REMARK    4  A    between atoms: N_10  and  C_11
REMARK    5  A    between atoms: C_14  and  C_15
REMARK    6  A    between atoms: C_15  and  C_16
REMARK    7  A    between atoms: C_16  and  C_17
REMARK    8  A    between atoms: C_16  and  C_19
REMARK                            x       y       z     vdW  Elec       q    Type
REMARK                         _______ _______ _______ _____ _____    ______ ____
ROOT
ATOM      1  C   UNL     1       1.782   8.176  19.077  0.00  0.00    +0.000 A 
ATOM      2  C   UNL     1       2.017   7.114  19.966  0.00  0.00    +0.000 A 
ATOM      3  C   UNL     1       3.013   6.147  19.739  0.00  0.00    +0.000 A 
ATOM      4  C   UNL     1       3.813   6.210  18.595  0.00  0.00    +0.000 A 
ATOM      5  C   UNL     1       3.608   7.277  17.713  0.00  0.00    +0.000 A 
ATOM      6  C   UNL     1       2.614   8.240  17.955  0.00  0.00    +0.000 A 
ENDROOT
BRANCH   1  10
ATOM      7  N   UNL     1       0.671  11.875  20.250  0.00  0.00    +0.000 N 
ATOM      8  C   UNL     1       0.931  10.792  21.215  0.00  0.00    +0.000 C 
ATOM      9  C   UNL     1       0.376   9.438  20.728  0.00  0.00    +0.000 C 
ATOM     10  N   UNL     1       0.795   9.113  19.348  0.00  0.00    +0.000 N 
ATOM     11  C   UNL     1       0.569  10.209  18.375  0.00  0.00    +0.000 C 
ATOM     12  C   UNL     1       1.124  11.571  18.875  0.00  0.00    +0.000 C 
BRANCH   7  16
ATOM     13  C   UNL     1      -2.225  14.890  20.896  0.00  0.00    +0.000 A 
ATOM     14  C   UNL     1      -2.534  13.549  21.096  0.00  0.00    +0.000 A 
ATOM     15  C   UNL     1      -1.557  12.562  20.903  0.00  0.00    +0.000 A 
ATOM     16  C   UNL     1      -0.257  12.876  20.478  0.00  0.00    +0.000 A 
ATOM     17  C   UNL     1       0.017  14.232  20.255  0.00  0.00    +0.000 A 
ATOM     18  C   UNL     1      -0.948  15.229  20.465  0.00  0.00    +0.000 A 
BRANCH  13  20
ATOM     19  C   UNL     1      -3.020  16.725  22.146  0.00  0.00    +0.000 C 
ATOM     20  O   UNL     1      -3.245  15.775  21.108  0.00  0.00    +0.000 OA
ENDBRANCH  13  20
ENDBRANCH   7  16
ENDBRANCH   1  10
BRANCH   4  21
ATOM     21  C   UNL     1       4.850   5.138  18.296  0.00  0.00    +0.000 C 
BRANCH  21  22
ATOM     22  C   UNL     1       6.138   5.684  17.636  0.00  0.00    +0.000 C 
BRANCH  22  23
ATOM     23  C   UNL     1       6.281   5.206  16.203  0.00  0.00    +0.000 A 
ATOM     24  N   UNL     1       5.464   4.373  15.581  0.00  0.00    +0.000 NA
ATOM     25  C   UNL     1       5.953   4.236  14.300  0.00  0.00    +0.000 A 
ATOM     26  C   UNL     1       5.470   3.478  13.224  0.00  0.00    +0.000 A 
ATOM     27  C   UNL     1       6.182   3.485  12.016  0.00  0.00    +0.000 A 
ATOM     28  C   UNL     1       7.350   4.239  11.881  0.00  0.00    +0.000 A 
ATOM     29  C   UNL     1       7.834   5.024  12.936  0.00  0.00    +0.000 A 
ATOM     30  C   UNL     1       7.104   4.994  14.128  0.00  0.00    +0.000 A 
ATOM     31  N   UNL     1       7.271   5.630  15.332  0.00  0.00    +0.000 N 
ATOM     32  H   UNL     1       7.998   6.307  15.531  0.00  0.00    +0.000 HD
ENDBRANCH  22  23
BRANCH  22  33
ATOM     33  C   UNL     1       7.330   5.300  18.412  0.00  0.00    +0.000 C 
ATOM     34  N   UNL     1       8.321   5.043  18.965  0.00  0.00    +0.000 NA
ENDBRANCH  22  33
ENDBRANCH  21  22
ENDBRANCH   4  21
TORSDOF 7
ENDMDL
MODEL 9
REMARK VINA RESULT:      -7.8      1.566      2.055
REMARK  Name = 
REMARK  8 active torsions:
REMARK  status: ('A' for Active; 'I' for Inactive)
REMARK    1  A    between atoms: C_1  and  O_2
REMARK    2  A    between atoms: O_2  and  C_3
REMARK    3  A    between atoms: C_6  and  N_7
REMARK    4  A    between atoms: N_10  and  C_11
REMARK    5  A    between atoms: C_14  and  C_15
REMARK    6  A    between atoms: C_15  and  C_16
REMARK    7  A    between atoms: C_16  and  C_17
REMARK    8  A    between atoms: C_16  and  C_19
REMARK                            x       y       z     vdW  Elec       q    Type
REMARK                         _______ _______ _______ _____ _____    ______ ____
ROOT
ATOM      1  C   UNL     1       1.369   8.656  19.565  0.00  0.00    +0.000 A 
ATOM      2  C   UNL     1       1.710   7.539  20.345  0.00  0.00    +0.000 A 
ATOM      3  C   UNL     1       2.584   6.538  19.884  0.00  0.00    +0.000 A 
ATOM      4  C   UNL     1       3.146   6.621  18.608  0.00  0.00    +0.000 A 
ATOM      5  C   UNL     1       2.835   7.741  17.829  0.00  0.00    +0.000 A 
ATOM      6  C   UNL     1       1.967   8.739  18.304  0.00  0.00    +0.000 A 
ENDROOT
BRANCH   1  10
ATOM      7  N   UNL     1       0.039  12.467  19.659  0.00  0.00    +0.000 N 
ATOM      8  C   UNL     1       1.181  12.015  20.473  0.00  0.00    +0.000 C 
ATOM      9  C   UNL     1       0.945  10.615  21.075  0.00  0.00    +0.000 C 
ATOM     10  N   UNL     1       0.511   9.626  20.066  0.00  0.00    +0.000 N 
ATOM     11  C   UNL     1      -0.617  10.083  19.219  0.00  0.00    +0.000 C 
ATOM     12  C   UNL     1      -0.375  11.497  18.621  0.00  0.00    +0.000 C 
BRANCH   7  16
ATOM     13  C   UNL     1      -2.667  15.488  20.862  0.00  0.00    +0.000 A 
ATOM     14  C   UNL     1      -3.003  14.144  20.973  0.00  0.00    +0.000 A 
ATOM     15  C   UNL     1      -2.087  13.152  20.594  0.00  0.00    +0.000 A 
ATOM     16  C   UNL     1      -0.824  13.468  20.068  0.00  0.00    +0.000 A 
ATOM     17  C   UNL     1      -0.524  14.830  19.940  0.00  0.00    +0.000 A 
ATOM     18  C   UNL     1      -1.427  15.830  20.335  0.00  0.00    +0.000 A 
BRANCH  13  20
ATOM     19  C   UNL     1      -4.247  17.109  20.203  0.00  0.00    +0.000 C 
ATOM     20  O   UNL     1      -3.627  16.378  21.255  0.00  0.00    +0.000 OA
ENDBRANCH  13  20
ENDBRANCH   7  16
ENDBRANCH   1  10
BRANCH   4  21
ATOM     21  C   UNL     1       4.040   5.516  18.064  0.00  0.00    +0.000 C 
BRANCH  21  22
ATOM     22  C   UNL     1       5.448   6.002  17.648  0.00  0.00    +0.000 C 
BRANCH  22  23
ATOM     23  C   UNL     1       5.832   5.495  16.269  0.00  0.00    +0.000 A 
ATOM     24  N   UNL     1       6.917   5.837  15.595  0.00  0.00    +0.000 NA
ATOM     25  C   UNL     1       6.879   5.127  14.415  0.00  0.00    +0.000 A 
ATOM     26  C   UNL     1       7.781   5.108  13.342  0.00  0.00    +0.000 A 
ATOM     27  C   UNL     1       7.490   4.309  12.226  0.00  0.00    +0.000 A 
ATOM     28  C   UNL     1       6.325   3.540  12.184  0.00  0.00    +0.000 A 
ATOM     29  C   UNL     1       5.425   3.525  13.257  0.00  0.00    +0.000 A 
ATOM     30  C   UNL     1       5.741   4.333  14.354  0.00  0.00    +0.000 A 
ATOM     31  N   UNL     1       5.113   4.552  15.554  0.00  0.00    +0.000 N 
ATOM     32  H   UNL     1       4.269   4.081  15.859  0.00  0.00    +0.000 HD
ENDBRANCH  22  23
BRANCH  22  33
ATOM     33  C   UNL     1       6.461   5.586  18.633  0.00  0.00    +0.000 C 
ATOM     34  N   UNL     1       7.320   5.257  19.344  0.00  0.00    +0.000 NA
ENDBRANCH  22  33
ENDBRANCH  21  22
ENDBRANCH   4  21
TORSDOF 7
ENDMDL
