MODEL 1
REMARK VINA RESULT:      -7.2      0.000      0.000
REMARK  Name = 
REMARK  12 active torsions:
REMARK  status: ('A' for Active; 'I' for Inactive)
REMARK    1  A    between atoms: C_1  and  N_2
REMARK    2  A    between atoms: C_3  and  C_5
REMARK    3  A    between atoms: C_5  and  C_6
REMARK    4  A    between atoms: C_5  and  C_7
REMARK    5  A    between atoms: C_5  and  N_8
REMARK    6  A    between atoms: N_8  and  C_9
REMARK    7  A    between atoms: C_10  and  C_12
REMARK    8  A    between atoms: C_14  and  C_15
REMARK    9  A    between atoms: C_15  and  O_16
REMARK   10  A    between atoms: O_16  and  C_17
REMARK   11  A    between atoms: C_22  and  O_23
REMARK   12  A    between atoms: O_23  and  C_24
REMARK                            x       y       z     vdW  Elec       q    Type
REMARK                         _______ _______ _______ _____ _____    ______ ____
ROOT
ATOM      1  C   UNL     1       2.534   6.933  19.464  0.00  0.00    +0.000 A 
ATOM      2  C   UNL     1       2.264   8.006  18.570  0.00  0.00    +0.000 A 
ATOM      3  C   UNL     1       1.372   8.824  19.226  0.00  0.00    +0.000 A 
ATOM      4  N   UNL     1       1.152   8.229  20.434  0.00  0.00    +0.000 N 
ATOM      5  N   UNL     1       1.873   7.115  20.625  0.00  0.00    +0.000 NA
ATOM      6  H   UNL     1       0.552   8.549  21.186  0.00  0.00    +0.000 HD
ENDROOT
BRANCH   1   9
ATOM      7  N   UNL     1       2.981   4.653  18.540  0.00  0.00    +0.000 N 
ATOM      8  C   UNL     1       1.608   4.595  18.041  0.00  0.00    +0.000 C 
ATOM      9  C   UNL     1       3.463   5.812  19.193  0.00  0.00    +0.000 C 
ATOM     10  O   UNL     1       4.643   5.936  19.519  0.00  0.00    +0.000 OA
BRANCH   7  11
ATOM     11  C   UNL     1       3.910   3.491  18.296  0.00  0.00    +0.000 C 
ATOM     12  C   UNL     1       3.187   2.359  17.532  0.00  0.00    +0.000 C 
ATOM     13  C   UNL     1       4.441   2.941  19.641  0.00  0.00    +0.000 C 
BRANCH  11  16
ATOM     14  C   UNL     1       7.568   4.436  17.484  0.00  0.00    +0.000 C 
ATOM     15  N   UNL     1       6.334   4.131  18.161  0.00  0.00    +0.000 N 
ATOM     16  C   UNL     1       5.183   3.860  17.443  0.00  0.00    +0.000 C 
ATOM     17  O   UNL     1       5.180   3.899  16.213  0.00  0.00    +0.000 OA
ATOM     18  H   UNL     1       6.327   4.049  19.170  0.00  0.00    +0.000 HD
ENDBRANCH  11  16
ENDBRANCH   7  11
ENDBRANCH   1   9
BRANCH   3  19
ATOM     19  C   UNL     1       0.789  10.135  18.868  0.00  0.00    +0.000 C 
BRANCH  19  20
ATOM     20  O   UNL     1      -0.158   9.938  17.811  0.00  0.00    +0.000 OA
BRANCH  20  21
ATOM     21  C   UNL     1      -1.364  10.571  18.027  0.00  0.00    +0.000 A 
ATOM     22  C   UNL     1      -1.552  11.409  19.145  0.00  0.00    +0.000 A 
ATOM     23  C   UNL     1      -2.786  11.998  19.416  0.00  0.00    +0.000 A 
ATOM     24  C   UNL     1      -3.845  11.801  18.548  0.00  0.00    +0.000 A 
ATOM     25  C   UNL     1      -3.656  11.030  17.403  0.00  0.00    +0.000 A 
ATOM     26  C   UNL     1      -2.425  10.410  17.123  0.00  0.00    +0.000 A 
BRANCH  26  27
ATOM     27  O   UNL     1      -2.486   9.696  15.958  0.00  0.00    +0.000 OA
ATOM     28  C   UNL     1      -3.128  10.248  14.824  0.00  0.00    +0.000 C 
ENDBRANCH  26  27
ENDBRANCH  20  21
ENDBRANCH  19  20
ENDBRANCH   3  19
TORSDOF 7
ENDMDL
MODEL 2
REMARK VINA RESULT:      -7.1      2.286      3.172
REMARK  Name = 
REMARK  12 active torsions:
REMARK  status: ('A' for Active; 'I' for Inactive)
REMARK    1  A    between atoms: C_1  and  N_2
REMARK    2  A    between atoms: C_3  and  C_5
REMARK    3  A    between atoms: C_5  and  C_6
REMARK    4  A    between atoms: C_5  and  C_7
REMARK    5  A    between atoms: C_5  and  N_8
REMARK    6  A    between atoms: N_8  and  C_9
REMARK    7  A    between atoms: C_10  and  C_12
REMARK    8  A    between atoms: C_14  and  C_15
REMARK    9  A    between atoms: C_15  and  O_16
REMARK   10  A    between atoms: O_16  and  C_17
REMARK   11  A    between atoms: C_22  and  O_23
REMARK   12  A    between atoms: O_23  and  C_24
REMARK                            x       y       z     vdW  Elec       q    Type
REMARK                         _______ _______ _______ _____ _____    ______ ____
ROOT
ATOM      1  C   UNL     1       2.444   7.490  18.839  0.00  0.00    +0.000 A 
ATOM      2  C   UNL     1       1.952   8.540  18.015  0.00  0.00    +0.000 A 
ATOM      3  C   UNL     1       1.232   9.364  18.849  0.00  0.00    +0.000 A 
ATOM      4  N   UNL     1       1.318   8.796  20.086  0.00  0.00    +0.000 N 
ATOM      5  N   UNL     1       2.079   7.693  20.121  0.00  0.00    +0.000 NA
ATOM      6  H   UNL     1       0.911   9.127  20.954  0.00  0.00    +0.000 HD
ENDROOT
BRANCH   1   9
ATOM      7  N   UNL     1       3.139   5.091  18.956  0.00  0.00    +0.000 N 
ATOM      8  C   UNL     1       2.078   4.840  19.929  0.00  0.00    +0.000 C 
ATOM      9  C   UNL     1       3.297   6.371  18.375  0.00  0.00    +0.000 C 
ATOM     10  O   UNL     1       4.103   6.584  17.470  0.00  0.00    +0.000 OA
BRANCH   7  11
ATOM     11  C   UNL     1       4.030   3.956  18.519  0.00  0.00    +0.000 C 
ATOM     12  C   UNL     1       3.654   3.475  17.099  0.00  0.00    +0.000 C 
ATOM     13  C   UNL     1       3.908   2.772  19.507  0.00  0.00    +0.000 C 
BRANCH  11  16
ATOM     14  C   UNL     1       7.560   4.565  17.069  0.00  0.00    +0.000 C 
ATOM     15  N   UNL     1       6.174   4.209  17.238  0.00  0.00    +0.000 N 
ATOM     16  C   UNL     1       5.560   4.328  18.472  0.00  0.00    +0.000 C 
ATOM     17  O   UNL     1       6.189   4.715  19.457  0.00  0.00    +0.000 OA
ATOM     18  H   UNL     1       5.630   3.932  16.432  0.00  0.00    +0.000 HD
ENDBRANCH  11  16
ENDBRANCH   7  11
ENDBRANCH   1   9
BRANCH   3  19
ATOM     19  C   UNL     1       0.562  10.662  18.614  0.00  0.00    +0.000 C 
BRANCH  19  20
ATOM     20  O   UNL     1       0.870  11.536  19.706  0.00  0.00    +0.000 OA
BRANCH  20  21
ATOM     21  C   UNL     1      -0.222  11.839  20.493  0.00  0.00    +0.000 A 
ATOM     22  C   UNL     1      -1.256  12.665  20.008  0.00  0.00    +0.000 A 
ATOM     23  C   UNL     1      -2.331  13.040  20.815  0.00  0.00    +0.000 A 
ATOM     24  C   UNL     1      -2.416  12.557  22.109  0.00  0.00    +0.000 A 
ATOM     25  C   UNL     1      -1.436  11.685  22.580  0.00  0.00    +0.000 A 
ATOM     26  C   UNL     1      -0.334  11.313  21.789  0.00  0.00    +0.000 A 
BRANCH  26  27
ATOM     27  O   UNL     1       0.498  10.468  22.469  0.00  0.00    +0.000 OA
ATOM     28  C   UNL     1      -0.042   9.511  23.362  0.00  0.00    +0.000 C 
ENDBRANCH  26  27
ENDBRANCH  20  21
ENDBRANCH  19  20
ENDBRANCH   3  19
TORSDOF 7
ENDMDL
MODEL 3
REMARK VINA RESULT:      -7.0      1.011      1.879
REMARK  Name = 
REMARK  12 active torsions:
REMARK  status: ('A' for Active; 'I' for Inactive)
REMARK    1  A    between atoms: C_1  and  N_2
REMARK    2  A    between atoms: C_3  and  C_5
REMARK    3  A    between atoms: C_5  and  C_6
REMARK    4  A    between atoms: C_5  and  C_7
REMARK    5  A    between atoms: C_5  and  N_8
REMARK    6  A    between atoms: N_8  and  C_9
REMARK    7  A    between atoms: C_10  and  C_12
REMARK    8  A    between atoms: C_14  and  C_15
REMARK    9  A    between atoms: C_15  and  O_16
REMARK   10  A    between atoms: O_16  and  C_17
REMARK   11  A    between atoms: C_22  and  O_23
REMARK   12  A    between atoms: O_23  and  C_24
REMARK                            x       y       z     vdW  Elec       q    Type
REMARK                         _______ _______ _______ _____ _____    ______ ____
ROOT
ATOM      1  C   UNL     1       2.567   7.131  19.233  0.00  0.00    +0.000 A 
ATOM      2  C   UNL     1       2.310   8.158  18.282  0.00  0.00    +0.000 A 
ATOM      3  C   UNL     1       1.437   9.027  18.897  0.00  0.00    +0.000 A 
ATOM      4  N   UNL     1       1.215   8.504  20.137  0.00  0.00    +0.000 N 
ATOM      5  N   UNL     1       1.916   7.389  20.385  0.00  0.00    +0.000 NA
ATOM      6  H   UNL     1       0.625   8.875  20.873  0.00  0.00    +0.000 HD
ENDROOT
BRANCH   1   9
ATOM      7  N   UNL     1       2.970   4.801  18.420  0.00  0.00    +0.000 N 
ATOM      8  C   UNL     1       1.598   4.747  17.919  0.00  0.00    +0.000 C 
ATOM      9  C   UNL     1       3.474   5.980  19.019  0.00  0.00    +0.000 C 
ATOM     10  O   UNL     1       4.655   6.096  19.344  0.00  0.00    +0.000 OA
BRANCH   7  11
ATOM     11  C   UNL     1       3.876   3.610  18.236  0.00  0.00    +0.000 C 
ATOM     12  C   UNL     1       3.144   2.471  17.492  0.00  0.00    +0.000 C 
ATOM     13  C   UNL     1       4.362   3.092  19.611  0.00  0.00    +0.000 C 
BRANCH  11  16
ATOM     14  C   UNL     1       7.578   4.420  17.481  0.00  0.00    +0.000 C 
ATOM     15  N   UNL     1       6.322   4.168  18.139  0.00  0.00    +0.000 N 
ATOM     16  C   UNL     1       5.177   3.921  17.403  0.00  0.00    +0.000 C 
ATOM     17  O   UNL     1       5.200   3.937  16.172  0.00  0.00    +0.000 OA
ATOM     18  H   UNL     1       6.292   4.106  19.148  0.00  0.00    +0.000 HD
ENDBRANCH  11  16
ENDBRANCH   7  11
ENDBRANCH   1   9
BRANCH   3  19
ATOM     19  C   UNL     1       0.877  10.327  18.469  0.00  0.00    +0.000 C 
BRANCH  19  20
ATOM     20  O   UNL     1      -0.345  10.552  19.183  0.00  0.00    +0.000 OA
BRANCH  20  21
ATOM     21  C   UNL     1      -1.452  10.645  18.366  0.00  0.00    +0.000 A 
ATOM     22  C   UNL     1      -1.650   9.734  17.309  0.00  0.00    +0.000 A 
ATOM     23  C   UNL     1      -2.725   9.858  16.429  0.00  0.00    +0.000 A 
ATOM     24  C   UNL     1      -3.651  10.868  16.619  0.00  0.00    +0.000 A 
ATOM     25  C   UNL     1      -3.507  11.735  17.700  0.00  0.00    +0.000 A 
ATOM     26  C   UNL     1      -2.418  11.640  18.584  0.00  0.00    +0.000 A 
BRANCH  26  27
ATOM     27  O   UNL     1      -2.481  12.604  19.551  0.00  0.00    +0.000 OA
ATOM     28  C   UNL     1      -3.462  12.521  20.569  0.00  0.00    +0.000 C 
ENDBRANCH  26  27
ENDBRANCH  20  21
ENDBRANCH  19  20
ENDBRANCH   3  19
TORSDOF 7
ENDMDL
MODEL 4
REMARK VINA RESULT:      -6.9      1.482      2.133
REMARK  Name = 
REMARK  12 active torsions:
REMARK  status: ('A' for Active; 'I' for Inactive)
REMARK    1  A    between atoms: C_1  and  N_2
REMARK    2  A    between atoms: C_3  and  C_5
REMARK    3  A    between atoms: C_5  and  C_6
REMARK    4  A    between atoms: C_5  and  C_7
REMARK    5  A    between atoms: C_5  and  N_8
REMARK    6  A    between atoms: N_8  and  C_9
REMARK    7  A    between atoms: C_10  and  C_12
REMARK    8  A    between atoms: C_14  and  C_15
REMARK    9  A    between atoms: C_15  and  O_16
REMARK   10  A    between atoms: O_16  and  C_17
REMARK   11  A    between atoms: C_22  and  O_23
REMARK   12  A    between atoms: O_23  and  C_24
REMARK                            x       y       z     vdW  Elec       q    Type
REMARK                         _______ _______ _______ _____ _____    ______ ____
ROOT
ATOM      1  C   UNL     1       2.437   7.594  18.816  0.00  0.00    +0.000 A 
ATOM      2  C   UNL     1       1.846   8.618  18.027  0.00  0.00    +0.000 A 
ATOM      3  C   UNL     1       1.086   9.368  18.896  0.00  0.00    +0.000 A 
ATOM      4  N   UNL     1       1.246   8.783  20.118  0.00  0.00    +0.000 N 
ATOM      5  N   UNL     1       2.090   7.742  20.110  0.00  0.00    +0.000 NA
ATOM      6  H   UNL     1       0.837   9.065  21.001  0.00  0.00    +0.000 HD
ENDROOT
BRANCH   1   9
ATOM      7  N   UNL     1       3.290   5.243  18.838  0.00  0.00    +0.000 N 
ATOM      8  C   UNL     1       2.251   4.884  19.800  0.00  0.00    +0.000 C 
ATOM      9  C   UNL     1       3.361   6.553  18.308  0.00  0.00    +0.000 C 
ATOM     10  O   UNL     1       4.149   6.855  17.413  0.00  0.00    +0.000 OA
BRANCH   7  11
ATOM     11  C   UNL     1       4.254   4.188  18.356  0.00  0.00    +0.000 C 
ATOM     12  C   UNL     1       3.847   3.666  16.960  0.00  0.00    +0.000 C 
ATOM     13  C   UNL     1       4.290   3.005  19.352  0.00  0.00    +0.000 C 
BRANCH  11  16
ATOM     14  C   UNL     1       7.682   5.641  19.390  0.00  0.00    +0.000 C 
ATOM     15  N   UNL     1       6.313   5.192  19.382  0.00  0.00    +0.000 N 
ATOM     16  C   UNL     1       5.740   4.694  18.226  0.00  0.00    +0.000 C 
ATOM     17  O   UNL     1       6.377   4.647  17.173  0.00  0.00    +0.000 OA
ATOM     18  H   UNL     1       5.788   5.181  20.247  0.00  0.00    +0.000 HD
ENDBRANCH  11  16
ENDBRANCH   7  11
ENDBRANCH   1   9
BRANCH   3  19
ATOM     19  C   UNL     1       0.313  10.615  18.705  0.00  0.00    +0.000 C 
BRANCH  19  20
ATOM     20  O   UNL     1      -1.024  10.395  19.168  0.00  0.00    +0.000 OA
BRANCH  20  21
ATOM     21  C   UNL     1      -1.978  10.524  18.180  0.00  0.00    +0.000 A 
ATOM     22  C   UNL     1      -1.950   9.702  17.035  0.00  0.00    +0.000 A 
ATOM     23  C   UNL     1      -2.863   9.867  15.994  0.00  0.00    +0.000 A 
ATOM     24  C   UNL     1      -3.853  10.829  16.099  0.00  0.00    +0.000 A 
ATOM     25  C   UNL     1      -3.935  11.604  17.253  0.00  0.00    +0.000 A 
ATOM     26  C   UNL     1      -3.010  11.466  18.304  0.00  0.00    +0.000 A 
BRANCH  26  27
ATOM     27  O   UNL     1      -3.282  12.342  19.318  0.00  0.00    +0.000 OA
ATOM     28  C   UNL     1      -4.606  12.477  19.800  0.00  0.00    +0.000 C 
ENDBRANCH  26  27
ENDBRANCH  20  21
ENDBRANCH  19  20
ENDBRANCH   3  19
TORSDOF 7
ENDMDL
MODEL 5
REMARK VINA RESULT:      -6.9      2.118      2.781
REMARK  Name = 
REMARK  12 active torsions:
REMARK  status: ('A' for Active; 'I' for Inactive)
REMARK    1  A    between atoms: C_1  and  N_2
REMARK    2  A    between atoms: C_3  and  C_5
REMARK    3  A    between atoms: C_5  and  C_6
REMARK    4  A    between atoms: C_5  and  C_7
REMARK    5  A    between atoms: C_5  and  N_8
REMARK    6  A    between atoms: N_8  and  C_9
REMARK    7  A    between atoms: C_10  and  C_12
REMARK    8  A    between atoms: C_14  and  C_15
REMARK    9  A    between atoms: C_15  and  O_16
REMARK   10  A    between atoms: O_16  and  C_17
REMARK   11  A    between atoms: C_22  and  O_23
REMARK   12  A    between atoms: O_23  and  C_24
REMARK                            x       y       z     vdW  Elec       q    Type
REMARK                         _______ _______ _______ _____ _____    ______ ____
ROOT
ATOM      1  C   UNL     1       2.338   7.399  19.337  0.00  0.00    +0.000 A 
ATOM      2  C   UNL     1       1.890   7.422  20.686  0.00  0.00    +0.000 A 
ATOM      3  C   UNL     1       1.165   8.584  20.820  0.00  0.00    +0.000 A 
ATOM      4  N   UNL     1       1.211   9.186  19.596  0.00  0.00    +0.000 N 
ATOM      5  N   UNL     1       1.869   8.474  18.671  0.00  0.00    +0.000 NA
ATOM      6  H   UNL     1       0.785  10.062  19.317  0.00  0.00    +0.000 HD
ENDROOT
BRANCH   1   9
ATOM      7  N   UNL     1       2.918   4.977  19.117  0.00  0.00    +0.000 N 
ATOM      8  C   UNL     1       1.834   4.642  20.038  0.00  0.00    +0.000 C 
ATOM      9  C   UNL     1       3.144   6.317  18.725  0.00  0.00    +0.000 C 
ATOM     10  O   UNL     1       3.970   6.617  17.864  0.00  0.00    +0.000 OA
BRANCH   7  11
ATOM     11  C   UNL     1       3.761   3.873  18.529  0.00  0.00    +0.000 C 
ATOM     12  C   UNL     1       3.359   3.593  17.064  0.00  0.00    +0.000 C 
ATOM     13  C   UNL     1       3.598   2.578  19.360  0.00  0.00    +0.000 C 
BRANCH  11  16
ATOM     14  C   UNL     1       7.300   4.547  17.130  0.00  0.00    +0.000 C 
ATOM     15  N   UNL     1       5.903   4.224  17.267  0.00  0.00    +0.000 N 
ATOM     16  C   UNL     1       5.305   4.189  18.514  0.00  0.00    +0.000 C 
ATOM     17  O   UNL     1       5.957   4.407  19.534  0.00  0.00    +0.000 OA
ATOM     18  H   UNL     1       5.340   4.086  16.437  0.00  0.00    +0.000 HD
ENDBRANCH  11  16
ENDBRANCH   7  11
ENDBRANCH   1   9
BRANCH   3  19
ATOM     19  C   UNL     1       0.371   9.127  21.944  0.00  0.00    +0.000 C 
BRANCH  19  20
ATOM     20  O   UNL     1       0.574  10.544  22.001  0.00  0.00    +0.000 OA
BRANCH  20  21
ATOM     21  C   UNL     1      -0.597  11.270  21.947  0.00  0.00    +0.000 A 
ATOM     22  C   UNL     1      -1.387  11.458  23.099  0.00  0.00    +0.000 A 
ATOM     23  C   UNL     1      -2.609  12.129  23.046  0.00  0.00    +0.000 A 
ATOM     24  C   UNL     1      -3.042  12.667  21.848  0.00  0.00    +0.000 A 
ATOM     25  C   UNL     1      -2.241  12.549  20.714  0.00  0.00    +0.000 A 
ATOM     26  C   UNL     1      -1.016  11.858  20.743  0.00  0.00    +0.000 A 
BRANCH  26  27
ATOM     27  O   UNL     1      -0.419  11.859  19.513  0.00  0.00    +0.000 OA
ATOM     28  C   UNL     1      -1.207  12.008  18.346  0.00  0.00    +0.000 C 
ENDBRANCH  26  27
ENDBRANCH  20  21
ENDBRANCH  19  20
ENDBRANCH   3  19
TORSDOF 7
ENDMDL
MODEL 6
REMARK VINA RESULT:      -6.8      1.398      2.135
REMARK  Name = 
REMARK  12 active torsions:
REMARK  status: ('A' for Active; 'I' for Inactive)
REMARK    1  A    between atoms: C_1  and  N_2
REMARK    2  A    between atoms: C_3  and  C_5
REMARK    3  A    between atoms: C_5  and  C_6
REMARK    4  A    between atoms: C_5  and  C_7
REMARK    5  A    between atoms: C_5  and  N_8
REMARK    6  A    between atoms: N_8  and  C_9
REMARK    7  A    between atoms: C_10  and  C_12
REMARK    8  A    between atoms: C_14  and  C_15
REMARK    9  A    between atoms: C_15  and  O_16
REMARK   10  A    between atoms: O_16  and  C_17
REMARK   11  A    between atoms: C_22  and  O_23
REMARK   12  A    between atoms: O_23  and  C_24
REMARK                            x       y       z     vdW  Elec       q    Type
REMARK                         _______ _______ _______ _____ _____    ______ ____
ROOT
ATOM      1  C   UNL     1       2.297   7.327  19.456  0.00  0.00    +0.000 A 
ATOM      2  C   UNL     1       1.778   8.483  18.812  0.00  0.00    +0.000 A 
ATOM      3  C   UNL     1       1.107   9.185  19.787  0.00  0.00    +0.000 A 
ATOM      4  N   UNL     1       1.244   8.449  20.927  0.00  0.00    +0.000 N 
ATOM      5  N   UNL     1       1.995   7.349  20.770  0.00  0.00    +0.000 NA
ATOM      6  H   UNL     1       0.883   8.657  21.850  0.00  0.00    +0.000 HD
ENDROOT
BRANCH   1   9
ATOM      7  N   UNL     1       2.879   4.920  19.107  0.00  0.00    +0.000 N 
ATOM      8  C   UNL     1       1.773   4.534  19.982  0.00  0.00    +0.000 C 
ATOM      9  C   UNL     1       3.115   6.280  18.800  0.00  0.00    +0.000 C 
ATOM     10  O   UNL     1       3.962   6.628  17.978  0.00  0.00    +0.000 OA
BRANCH   7  11
ATOM     11  C   UNL     1       3.733   3.850  18.475  0.00  0.00    +0.000 C 
ATOM     12  C   UNL     1       3.360   3.653  16.989  0.00  0.00    +0.000 C 
ATOM     13  C   UNL     1       3.555   2.511  19.228  0.00  0.00    +0.000 C 
BRANCH  11  16
ATOM     14  C   UNL     1       7.308   4.552  17.185  0.00  0.00    +0.000 C 
ATOM     15  N   UNL     1       5.907   4.226  17.277  0.00  0.00    +0.000 N 
ATOM     16  C   UNL     1       5.277   4.166  18.507  0.00  0.00    +0.000 C 
ATOM     17  O   UNL     1       5.902   4.362  19.549  0.00  0.00    +0.000 OA
ATOM     18  H   UNL     1       5.367   4.106  16.430  0.00  0.00    +0.000 HD
ENDBRANCH  11  16
ENDBRANCH   7  11
ENDBRANCH   1   9
BRANCH   3  19
ATOM     19  C   UNL     1       0.440  10.506  19.768  0.00  0.00    +0.000 C 
BRANCH  19  20
ATOM     20  O   UNL     1       0.140  10.844  18.409  0.00  0.00    +0.000 OA
BRANCH  20  21
ATOM     21  C   UNL     1      -1.205  10.780  18.110  0.00  0.00    +0.000 A 
ATOM     22  C   UNL     1      -1.696   9.837  17.184  0.00  0.00    +0.000 A 
ATOM     23  C   UNL     1      -3.041   9.806  16.817  0.00  0.00    +0.000 A 
ATOM     24  C   UNL     1      -3.931  10.687  17.404  0.00  0.00    +0.000 A 
ATOM     25  C   UNL     1      -3.473  11.580  18.370  0.00  0.00    +0.000 A 
ATOM     26  C   UNL     1      -2.117  11.641  18.739  0.00  0.00    +0.000 A 
BRANCH  26  27
ATOM     27  O   UNL     1      -1.906  12.602  19.688  0.00  0.00    +0.000 OA
ATOM     28  C   UNL     1      -2.968  13.005  20.534  0.00  0.00    +0.000 C 
ENDBRANCH  26  27
ENDBRANCH  20  21
ENDBRANCH  19  20
ENDBRANCH   3  19
TORSDOF 7
ENDMDL
MODEL 7
REMARK VINA RESULT:      -6.8      1.092      1.123
REMARK  Name = 
REMARK  12 active torsions:
REMARK  status: ('A' for Active; 'I' for Inactive)
REMARK    1  A    between atoms: C_1  and  N_2
REMARK    2  A    between atoms: C_3  and  C_5
REMARK    3  A    between atoms: C_5  and  C_6
REMARK    4  A    between atoms: C_5  and  C_7
REMARK    5  A    between atoms: C_5  and  N_8
REMARK    6  A    between atoms: N_8  and  C_9
REMARK    7  A    between atoms: C_10  and  C_12
REMARK    8  A    between atoms: C_14  and  C_15
REMARK    9  A    between atoms: C_15  and  O_16
REMARK   10  A    between atoms: O_16  and  C_17
REMARK   11  A    between atoms: C_22  and  O_23
REMARK   12  A    between atoms: O_23  and  C_24
REMARK                            x       y       z     vdW  Elec       q    Type
REMARK                         _______ _______ _______ _____ _____    ______ ____
ROOT
ATOM      1  C   UNL     1       2.450   7.516  18.807  0.00  0.00    +0.000 A 
ATOM      2  C   UNL     1       1.824   8.500  17.993  0.00  0.00    +0.000 A 
ATOM      3  C   UNL     1       1.073   9.272  18.850  0.00  0.00    +0.000 A 
ATOM      4  N   UNL     1       1.272   8.738  20.090  0.00  0.00    +0.000 N 
ATOM      5  N   UNL     1       2.132   7.710  20.103  0.00  0.00    +0.000 NA
ATOM      6  H   UNL     1       0.879   9.048  20.972  0.00  0.00    +0.000 HD
ENDROOT
BRANCH   1   9
ATOM      7  N   UNL     1       3.307   5.168  18.864  0.00  0.00    +0.000 N 
ATOM      8  C   UNL     1       2.263   4.819  19.827  0.00  0.00    +0.000 C 
ATOM      9  C   UNL     1       3.378   6.470  18.318  0.00  0.00    +0.000 C 
ATOM     10  O   UNL     1       4.170   6.761  17.422  0.00  0.00    +0.000 OA
BRANCH   7  11
ATOM     11  C   UNL     1       4.274   4.107  18.401  0.00  0.00    +0.000 C 
ATOM     12  C   UNL     1       3.876   3.568  17.010  0.00  0.00    +0.000 C 
ATOM     13  C   UNL     1       4.306   2.937  19.413  0.00  0.00    +0.000 C 
BRANCH  11  16
ATOM     14  C   UNL     1       7.659   5.675  19.409  0.00  0.00    +0.000 C 
ATOM     15  N   UNL     1       6.294   5.215  19.398  0.00  0.00    +0.000 N 
ATOM     16  C   UNL     1       5.761   4.613  18.273  0.00  0.00    +0.000 C 
ATOM     17  O   UNL     1       6.430   4.482  17.248  0.00  0.00    +0.000 OA
ATOM     18  H   UNL     1       5.743   5.273  20.245  0.00  0.00    +0.000 HD
ENDBRANCH  11  16
ENDBRANCH   7  11
ENDBRANCH   1   9
BRANCH   3  19
ATOM     19  C   UNL     1       0.276  10.498  18.630  0.00  0.00    +0.000 C 
BRANCH  19  20
ATOM     20  O   UNL     1      -0.695  10.231  17.612  0.00  0.00    +0.000 OA
BRANCH  20  21
ATOM     21  C   UNL     1      -1.943  10.748  17.892  0.00  0.00    +0.000 A 
ATOM     22  C   UNL     1      -2.135  11.629  18.976  0.00  0.00    +0.000 A 
ATOM     23  C   UNL     1      -3.402  12.104  19.316  0.00  0.00    +0.000 A 
ATOM     24  C   UNL     1      -4.496  11.745  18.549  0.00  0.00    +0.000 A 
ATOM     25  C   UNL     1      -4.312  10.929  17.434  0.00  0.00    +0.000 A 
ATOM     26  C   UNL     1      -3.046  10.423  17.088  0.00  0.00    +0.000 A 
BRANCH  26  27
ATOM     27  O   UNL     1      -3.117   9.637  15.971  0.00  0.00    +0.000 OA
ATOM     28  C   UNL     1      -3.181  10.235  14.690  0.00  0.00    +0.000 C 
ENDBRANCH  26  27
ENDBRANCH  20  21
ENDBRANCH  19  20
ENDBRANCH   3  19
TORSDOF 7
ENDMDL
MODEL 8
REMARK VINA RESULT:      -6.8      1.637      1.987
REMARK  Name = 
REMARK  12 active torsions:
REMARK  status: ('A' for Active; 'I' for Inactive)
REMARK    1  A    between atoms: C_1  and  N_2
REMARK    2  A    between atoms: C_3  and  C_5
REMARK    3  A    between atoms: C_5  and  C_6
REMARK    4  A    between atoms: C_5  and  C_7
REMARK    5  A    between atoms: C_5  and  N_8
REMARK    6  A    between atoms: N_8  and  C_9
REMARK    7  A    between atoms: C_10  and  C_12
REMARK    8  A    between atoms: C_14  and  C_15
REMARK    9  A    between atoms: C_15  and  O_16
REMARK   10  A    between atoms: O_16  and  C_17
REMARK   11  A    between atoms: C_22  and  O_23
REMARK   12  A    between atoms: O_23  and  C_24
REMARK                            x       y       z     vdW  Elec       q    Type
REMARK                         _______ _______ _______ _____ _____    ______ ____
ROOT
ATOM      1  C   UNL     1       2.710   7.765  18.156  0.00  0.00    +0.000 A 
ATOM      2  C   UNL     1       2.154   7.927  19.454  0.00  0.00    +0.000 A 
ATOM      3  C   UNL     1       1.303   9.005  19.365  0.00  0.00    +0.000 A 
ATOM      4  N   UNL     1       1.385   9.428  18.070  0.00  0.00    +0.000 N 
ATOM      5  N   UNL     1       2.188   8.673  17.307  0.00  0.00    +0.000 NA
ATOM      6  H   UNL     1       0.894  10.201  17.635  0.00  0.00    +0.000 HD
ENDROOT
BRANCH   1   9
ATOM      7  N   UNL     1       3.245   5.359  17.734  0.00  0.00    +0.000 N 
ATOM      8  C   UNL     1       1.846   5.014  17.977  0.00  0.00    +0.000 C 
ATOM      9  C   UNL     1       3.672   6.707  17.767  0.00  0.00    +0.000 C 
ATOM     10  O   UNL     1       4.814   7.040  17.453  0.00  0.00    +0.000 OA
BRANCH   7  11
ATOM     11  C   UNL     1       4.228   4.271  17.378  0.00  0.00    +0.000 C 
ATOM     12  C   UNL     1       4.691   4.405  15.911  0.00  0.00    +0.000 C 
ATOM     13  C   UNL     1       3.581   2.881  17.584  0.00  0.00    +0.000 C 
BRANCH  11  16
ATOM     14  C   UNL     1       7.898   4.922  18.396  0.00  0.00    +0.000 C 
ATOM     15  N   UNL     1       6.660   4.822  17.667  0.00  0.00    +0.000 N 
ATOM     16  C   UNL     1       5.534   4.280  18.259  0.00  0.00    +0.000 C 
ATOM     17  O   UNL     1       5.571   3.847  19.411  0.00  0.00    +0.000 OA
ATOM     18  H   UNL     1       6.598   5.213  16.736  0.00  0.00    +0.000 HD
ENDBRANCH  11  16
ENDBRANCH   7  11
ENDBRANCH   1   9
BRANCH   3  19
ATOM     19  C   UNL     1       0.367   9.606  20.340  0.00  0.00    +0.000 C 
BRANCH  19  20
ATOM     20  O   UNL     1       0.307  11.017  20.102  0.00  0.00    +0.000 OA
BRANCH  20  21
ATOM     21  C   UNL     1      -0.979  11.499  19.974  0.00  0.00    +0.000 A 
ATOM     22  C   UNL     1      -1.586  12.226  21.018  0.00  0.00    +0.000 A 
ATOM     23  C   UNL     1      -2.910  12.659  20.933  0.00  0.00    +0.000 A 
ATOM     24  C   UNL     1      -3.637  12.415  19.782  0.00  0.00    +0.000 A 
ATOM     25  C   UNL     1      -3.029  11.757  18.714  0.00  0.00    +0.000 A 
ATOM     26  C   UNL     1      -1.703  11.294  18.789  0.00  0.00    +0.000 A 
BRANCH  26  27
ATOM     27  O   UNL     1      -1.333  10.667  17.632  0.00  0.00    +0.000 OA
ATOM     28  C   UNL     1      -2.280   9.902  16.909  0.00  0.00    +0.000 C 
ENDBRANCH  26  27
ENDBRANCH  20  21
ENDBRANCH  19  20
ENDBRANCH   3  19
TORSDOF 7
ENDMDL
MODEL 9
REMARK VINA RESULT:      -6.7      5.404      8.411
REMARK  Name = 
REMARK  12 active torsions:
REMARK  status: ('A' for Active; 'I' for Inactive)
REMARK    1  A    between atoms: C_1  and  N_2
REMARK    2  A    between atoms: C_3  and  C_5
REMARK    3  A    between atoms: C_5  and  C_6
REMARK    4  A    between atoms: C_5  and  C_7
REMARK    5  A    between atoms: C_5  and  N_8
REMARK    6  A    between atoms: N_8  and  C_9
REMARK    7  A    between atoms: C_10  and  C_12
REMARK    8  A    between atoms: C_14  and  C_15
REMARK    9  A    between atoms: C_15  and  O_16
REMARK   10  A    between atoms: O_16  and  C_17
REMARK   11  A    between atoms: C_22  and  O_23
REMARK   12  A    between atoms: O_23  and  C_24
REMARK                            x       y       z     vdW  Elec       q    Type
REMARK                         _______ _______ _______ _____ _____    ______ ____
ROOT
ATOM      1  C   UNL     1       6.178   5.660  17.758  0.00  0.00    +0.000 A 
ATOM      2  C   UNL     1       6.162   7.056  17.488  0.00  0.00    +0.000 A 
ATOM      3  C   UNL     1       7.413   7.518  17.828  0.00  0.00    +0.000 A 
ATOM      4  N   UNL     1       8.097   6.424  18.273  0.00  0.00    +0.000 N 
ATOM      5  N   UNL     1       7.396   5.284  18.199  0.00  0.00    +0.000 NA
ATOM      6  H   UNL     1       9.053   6.380  18.606  0.00  0.00    +0.000 HD
ENDROOT
BRANCH   1   9
ATOM      7  N   UNL     1       4.064   4.569  18.527  0.00  0.00    +0.000 N 
ATOM      8  C   UNL     1       4.098   5.379  19.743  0.00  0.00    +0.000 C 
ATOM      9  C   UNL     1       5.047   4.733  17.523  0.00  0.00    +0.000 C 
ATOM     10  O   UNL     1       4.980   4.152  16.441  0.00  0.00    +0.000 OA
BRANCH   7  11
ATOM     11  C   UNL     1       2.930   3.598  18.313  0.00  0.00    +0.000 C 
ATOM     12  C   UNL     1       3.468   2.179  18.021  0.00  0.00    +0.000 C 
ATOM     13  C   UNL     1       2.046   4.063  17.132  0.00  0.00    +0.000 C 
BRANCH  11  16
ATOM     14  C   UNL     1       1.628   2.478  21.775  0.00  0.00    +0.000 C 
ATOM     15  N   UNL     1       2.408   2.642  20.575  0.00  0.00    +0.000 N 
ATOM     16  C   UNL     1       1.966   3.461  19.552  0.00  0.00    +0.000 C 
ATOM     17  O   UNL     1       0.886   4.047  19.632  0.00  0.00    +0.000 OA
ATOM     18  H   UNL     1       3.318   2.204  20.510  0.00  0.00    +0.000 HD
ENDBRANCH  11  16
ENDBRANCH   7  11
ENDBRANCH   1   9
BRANCH   3  19
ATOM     19  C   UNL     1       8.044   8.848  17.690  0.00  0.00    +0.000 C 
BRANCH  19  20
ATOM     20  O   UNL     1       8.592   9.225  18.959  0.00  0.00    +0.000 OA
BRANCH  20  21
ATOM     21  C   UNL     1       9.309  10.402  18.921  0.00  0.00    +0.000 A 
ATOM     22  C   UNL     1       9.927  10.836  17.731  0.00  0.00    +0.000 A 
ATOM     23  C   UNL     1      10.715  11.986  17.694  0.00  0.00    +0.000 A 
ATOM     24  C   UNL     1      10.860  12.753  18.837  0.00  0.00    +0.000 A 
ATOM     25  C   UNL     1      10.200  12.375  20.004  0.00  0.00    +0.000 A 
ATOM     26  C   UNL     1       9.419  11.207  20.066  0.00  0.00    +0.000 A 
BRANCH  26  27
ATOM     27  O   UNL     1       8.887  11.035  21.314  0.00  0.00    +0.000 OA
ATOM     28  C   UNL     1       8.871  12.115  22.230  0.00  0.00    +0.000 C 
ENDBRANCH  26  27
ENDBRANCH  20  21
ENDBRANCH  19  20
ENDBRANCH   3  19
TORSDOF 7
ENDMDL
