MODEL 1
REMARK VINA RESULT:      -8.2      0.000      0.000
REMARK  Name = 
REMARK  10 active torsions:
REMARK  status: ('A' for Active; 'I' for Inactive)
REMARK    1  A    between atoms: C_2  and  O_3
REMARK    2  A    between atoms: C_2  and  C_4
REMARK    3  A    between atoms: C_4  and  C_5
REMARK    4  A    between atoms: C_5  and  C_6
REMARK    5  A    between atoms: C_5  and  N_14
REMARK    6  A    between atoms: C_6  and  C_7
REMARK    7  A    between atoms: C_7  and  C_8
REMARK    8  A    between atoms: C_15  and  C_17
REMARK    9  A    between atoms: C_17  and  N_18
REMARK   10  A    between atoms: C_24  and  N_25
REMARK                            x       y       z     vdW  Elec       q    Type
REMARK                         _______ _______ _______ _____ _____    ______ ____
ROOT
ATOM      1  C   UNL     1       2.147   8.336  18.758  0.00  0.00    +0.000 C 
ENDROOT
BRANCH   1   2
ATOM      2  N   UNL     1       1.087   9.209  19.367  0.00  0.00    +0.000 N 
ATOM      3  C   UNL     1       0.492  10.171  18.480  0.00  0.00    +0.000 C 
ATOM      4  C   UNL     1       0.428  11.580  19.004  0.00  0.00    +0.000 C 
ATOM      5  C   UNL     1       0.539  11.731  20.483  0.00  0.00    +0.000 A 
ATOM      6  C   UNL     1       0.521  13.042  20.958  0.00  0.00    +0.000 A 
ATOM      7  C   UNL     1      -0.232  13.322  22.071  0.00  0.00    +0.000 A 
ATOM      8  C   UNL     1      -0.946  12.297  22.720  0.00  0.00    +0.000 A 
ATOM      9  C   UNL     1      -0.549  10.945  22.460  0.00  0.00    +0.000 A 
ATOM     10  C   UNL     1       0.225  10.644  21.299  0.00  0.00    +0.000 A 
ATOM     11  C   UNL     1       0.794   9.279  20.778  0.00  0.00    +0.000 C 
ATOM     12  O   UNL     1       1.091   8.398  21.575  0.00  0.00    +0.000 OA
BRANCH   8  13
ATOM     13  N   UNL     1      -2.073  12.762  23.437  0.00  0.00    +0.000 N 
ATOM     14  C   UNL     1      -3.453  12.480  23.017  0.00  0.00    +0.000 C 
ATOM     15  C   UNL     1      -4.455  12.976  24.112  0.00  0.00    +0.000 C 
ATOM     16  N   UNL     1      -4.329  14.408  24.454  0.00  0.00    +0.000 NA
ATOM     17  C   UNL     1      -2.942  14.679  24.858  0.00  0.00    +0.000 C 
ATOM     18  C   UNL     1      -1.904  14.212  23.812  0.00  0.00    +0.000 C 
ATOM     19  H   UNL     1      -4.948  14.626  25.235  0.00  0.00    +0.000 HD
ENDBRANCH   8  13
ENDBRANCH   1   2
BRANCH   1  21
ATOM     20  N   UNL     1       2.590   6.125  20.105  0.00  0.00    +0.000 N 
ATOM     21  C   UNL     1       2.278   6.724  18.887  0.00  0.00    +0.000 C 
ATOM     22  O   UNL     1       2.187   6.039  17.865  0.00  0.00    +0.000 OA
ATOM     23  H   UNL     1       2.657   6.743  20.903  0.00  0.00    +0.000 HD
BRANCH  20  24
ATOM     24  C   UNL     1       2.716   4.634  20.415  0.00  0.00    +0.000 C 
BRANCH  24  25
ATOM     25  C   UNL     1       1.423   3.791  20.241  0.00  0.00    +0.000 C 
BRANCH  25  27
ATOM     26  O   UNL     1       1.737   1.658  19.108  0.00  0.00    +0.000 OA
ATOM     27  C   UNL     1       1.446   2.847  19.056  0.00  0.00    +0.000 C 
BRANCH  27  28
ATOM     28  O   UNL     1       1.066   3.440  17.902  0.00  0.00    +0.000 OA
ATOM     29  H   UNL     1       0.102   3.552  17.796  0.00  0.00    +0.000 HD
ENDBRANCH  27  28
ENDBRANCH  25  27
ENDBRANCH  24  25
BRANCH  24  30
ATOM     30  C   UNL     1       3.866   3.970  19.603  0.00  0.00    +0.000 C 
BRANCH  30  31
ATOM     31  C   UNL     1       5.097   4.861  19.411  0.00  0.00    +0.000 C 
BRANCH  31  32
ATOM     32  C   UNL     1       5.564   4.891  17.976  0.00  0.00    +0.000 A 
ATOM     33  C   UNL     1       6.651   5.671  17.596  0.00  0.00    +0.000 A 
ATOM     34  C   UNL     1       7.110   5.693  16.284  0.00  0.00    +0.000 A 
ATOM     35  C   UNL     1       6.468   4.930  15.317  0.00  0.00    +0.000 A 
ATOM     36  C   UNL     1       5.364   4.153  15.660  0.00  0.00    +0.000 A 
ATOM     37  C   UNL     1       4.909   4.133  16.985  0.00  0.00    +0.000 A 
ENDBRANCH  31  32
ENDBRANCH  30  31
ENDBRANCH  24  30
ENDBRANCH  20  24
ENDBRANCH   1  21
TORSDOF 10
ENDMDL
MODEL 2
REMARK VINA RESULT:      -8.2      1.816      2.496
REMARK  Name = 
REMARK  10 active torsions:
REMARK  status: ('A' for Active; 'I' for Inactive)
REMARK    1  A    between atoms: C_2  and  O_3
REMARK    2  A    between atoms: C_2  and  C_4
REMARK    3  A    between atoms: C_4  and  C_5
REMARK    4  A    between atoms: C_5  and  C_6
REMARK    5  A    between atoms: C_5  and  N_14
REMARK    6  A    between atoms: C_6  and  C_7
REMARK    7  A    between atoms: C_7  and  C_8
REMARK    8  A    between atoms: C_15  and  C_17
REMARK    9  A    between atoms: C_17  and  N_18
REMARK   10  A    between atoms: C_24  and  N_25
REMARK                            x       y       z     vdW  Elec       q    Type
REMARK                         _______ _______ _______ _____ _____    ______ ____
ROOT
ATOM      1  C   UNL     1       1.398   8.983  21.330  0.00  0.00    +0.000 C 
ENDROOT
BRANCH   1   2
ATOM      2  N   UNL     1       0.081   9.704  21.378  0.00  0.00    +0.000 N 
ATOM      3  C   UNL     1      -0.535   9.955  20.103  0.00  0.00    +0.000 C 
ATOM      4  C   UNL     1      -0.997  11.370  19.876  0.00  0.00    +0.000 C 
ATOM      5  C   UNL     1      -1.195  12.195  21.101  0.00  0.00    +0.000 A 
ATOM      6  C   UNL     1      -1.583  13.517  20.881  0.00  0.00    +0.000 A 
ATOM      7  C   UNL     1      -2.570  14.047  21.673  0.00  0.00    +0.000 A 
ATOM      8  C   UNL     1      -3.153  13.271  22.694  0.00  0.00    +0.000 A 
ATOM      9  C   UNL     1      -2.433  12.117  23.144  0.00  0.00    +0.000 A 
ATOM     10  C   UNL     1      -1.411  11.554  22.321  0.00  0.00    +0.000 A 
ATOM     11  C   UNL     1      -0.475  10.319  22.559  0.00  0.00    +0.000 C 
ATOM     12  O   UNL     1      -0.147  10.013  23.699  0.00  0.00    +0.000 OA
BRANCH   8  13
ATOM     13  N   UNL     1      -4.465  13.677  23.029  0.00  0.00    +0.000 N 
ATOM     14  C   UNL     1      -4.789  15.045  23.459  0.00  0.00    +0.000 C 
ATOM     15  C   UNL     1      -6.341  15.213  23.578  0.00  0.00    +0.000 C 
ATOM     16  N   UNL     1      -6.993  14.247  24.487  0.00  0.00    +0.000 NA
ATOM     17  C   UNL     1      -6.650  12.885  24.055  0.00  0.00    +0.000 C 
ATOM     18  C   UNL     1      -5.126  12.656  23.921  0.00  0.00    +0.000 C 
ATOM     19  H   UNL     1      -8.005  14.364  24.435  0.00  0.00    +0.000 HD
ENDBRANCH   8  13
ENDBRANCH   1   2
BRANCH   1  21
ATOM     20  N   UNL     1       1.857   6.452  20.802  0.00  0.00    +0.000 N 
ATOM     21  C   UNL     1       1.810   7.766  20.341  0.00  0.00    +0.000 C 
ATOM     22  O   UNL     1       2.172   8.032  19.193  0.00  0.00    +0.000 OA
ATOM     23  H   UNL     1       1.555   6.302  21.755  0.00  0.00    +0.000 HD
BRANCH  20  24
ATOM     24  C   UNL     1       2.186   5.188  20.009  0.00  0.00    +0.000 C 
BRANCH  24  25
ATOM     25  C   UNL     1       1.336   3.933  20.345  0.00  0.00    +0.000 C 
BRANCH  25  27
ATOM     26  O   UNL     1       1.518   2.456  22.273  0.00  0.00    +0.000 OA
ATOM     27  C   UNL     1       2.019   2.943  21.267  0.00  0.00    +0.000 C 
BRANCH  27  28
ATOM     28  O   UNL     1       3.258   2.601  20.848  0.00  0.00    +0.000 OA
ATOM     29  H   UNL     1       3.762   2.040  21.468  0.00  0.00    +0.000 HD
ENDBRANCH  27  28
ENDBRANCH  25  27
ENDBRANCH  24  25
BRANCH  24  30
ATOM     30  C   UNL     1       2.133   5.440  18.473  0.00  0.00    +0.000 C 
BRANCH  30  31
ATOM     31  C   UNL     1       3.100   4.576  17.659  0.00  0.00    +0.000 C 
BRANCH  31  32
ATOM     32  C   UNL     1       4.496   5.149  17.632  0.00  0.00    +0.000 A 
ATOM     33  C   UNL     1       5.587   4.389  18.039  0.00  0.00    +0.000 A 
ATOM     34  C   UNL     1       6.882   4.892  17.999  0.00  0.00    +0.000 A 
ATOM     35  C   UNL     1       7.104   6.189  17.553  0.00  0.00    +0.000 A 
ATOM     36  C   UNL     1       6.031   6.984  17.157  0.00  0.00    +0.000 A 
ATOM     37  C   UNL     1       4.728   6.469  17.197  0.00  0.00    +0.000 A 
ENDBRANCH  31  32
ENDBRANCH  30  31
ENDBRANCH  24  30
ENDBRANCH  20  24
ENDBRANCH   1  21
TORSDOF 10
ENDMDL
MODEL 3
REMARK VINA RESULT:      -8.1      1.739      3.523
REMARK  Name = 
REMARK  10 active torsions:
REMARK  status: ('A' for Active; 'I' for Inactive)
REMARK    1  A    between atoms: C_2  and  O_3
REMARK    2  A    between atoms: C_2  and  C_4
REMARK    3  A    between atoms: C_4  and  C_5
REMARK    4  A    between atoms: C_5  and  C_6
REMARK    5  A    between atoms: C_5  and  N_14
REMARK    6  A    between atoms: C_6  and  C_7
REMARK    7  A    between atoms: C_7  and  C_8
REMARK    8  A    between atoms: C_15  and  C_17
REMARK    9  A    between atoms: C_17  and  N_18
REMARK   10  A    between atoms: C_24  and  N_25
REMARK                            x       y       z     vdW  Elec       q    Type
REMARK                         _______ _______ _______ _____ _____    ______ ____
ROOT
ATOM      1  C   UNL     1       1.885   7.860  20.107  0.00  0.00    +0.000 C 
ENDROOT
BRANCH   1   2
ATOM      2  N   UNL     1       0.903   8.974  20.334  0.00  0.00    +0.000 N 
ATOM      3  C   UNL     1       0.657   9.825  19.202  0.00  0.00    +0.000 C 
ATOM      4  C   UNL     1       0.750  11.302  19.471  0.00  0.00    +0.000 C 
ATOM      5  C   UNL     1       0.615  11.714  20.897  0.00  0.00    +0.000 A 
ATOM      6  C   UNL     1       0.744  13.081  21.145  0.00  0.00    +0.000 A 
ATOM      7  C   UNL     1      -0.136  13.671  22.017  0.00  0.00    +0.000 A 
ATOM      8  C   UNL     1      -1.126  12.899  22.655  0.00  0.00    +0.000 A 
ATOM      9  C   UNL     1      -0.934  11.480  22.701  0.00  0.00    +0.000 A 
ATOM     10  C   UNL     1      -0.027  10.857  21.791  0.00  0.00    +0.000 A 
ATOM     11  C   UNL     1       0.376   9.352  21.624  0.00  0.00    +0.000 C 
ATOM     12  O   UNL     1       0.363   8.605  22.594  0.00  0.00    +0.000 OA
BRANCH   8  13
ATOM     13  N   UNL     1      -2.264  13.647  23.038  0.00  0.00    +0.000 N 
ATOM     14  C   UNL     1      -2.204  14.737  24.022  0.00  0.00    +0.000 C 
ATOM     15  C   UNL     1      -3.583  15.474  24.086  0.00  0.00    +0.000 C 
ATOM     16  N   UNL     1      -4.732  14.597  24.395  0.00  0.00    +0.000 NA
ATOM     17  C   UNL     1      -4.772  13.505  23.412  0.00  0.00    +0.000 C 
ATOM     18  C   UNL     1      -3.434  12.736  23.305  0.00  0.00    +0.000 C 
ATOM     19  H   UNL     1      -5.597  15.134  24.325  0.00  0.00    +0.000 HD
ENDBRANCH   8  13
ENDBRANCH   1   2
BRANCH   1  21
ATOM     20  N   UNL     1       3.513   6.407  18.645  0.00  0.00    +0.000 N 
ATOM     21  C   UNL     1       2.606   7.463  18.709  0.00  0.00    +0.000 C 
ATOM     22  O   UNL     1       2.408   8.171  17.719  0.00  0.00    +0.000 OA
ATOM     23  H   UNL     1       3.635   5.871  19.493  0.00  0.00    +0.000 HD
BRANCH  20  24
ATOM     24  C   UNL     1       4.251   5.875  17.417  0.00  0.00    +0.000 C 
BRANCH  24  25
ATOM     25  C   UNL     1       5.799   5.990  17.451  0.00  0.00    +0.000 C 
BRANCH  25  27
ATOM     26  O   UNL     1       6.238   5.173  19.704  0.00  0.00    +0.000 OA
ATOM     27  C   UNL     1       6.468   5.126  18.501  0.00  0.00    +0.000 C 
BRANCH  27  28
ATOM     28  O   UNL     1       7.342   4.239  17.974  0.00  0.00    +0.000 OA
ATOM     29  H   UNL     1       7.241   4.081  17.016  0.00  0.00    +0.000 HD
ENDBRANCH  27  28
ENDBRANCH  25  27
ENDBRANCH  24  25
BRANCH  24  30
ATOM     30  C   UNL     1       3.859   4.402  17.101  0.00  0.00    +0.000 C 
BRANCH  30  31
ATOM     31  C   UNL     1       2.430   4.029  17.507  0.00  0.00    +0.000 C 
BRANCH  31  32
ATOM     32  C   UNL     1       2.351   3.533  18.930  0.00  0.00    +0.000 A 
ATOM     33  C   UNL     1       3.430   2.883  19.520  0.00  0.00    +0.000 A 
ATOM     34  C   UNL     1       3.384   2.441  20.837  0.00  0.00    +0.000 A 
ATOM     35  C   UNL     1       2.232   2.636  21.589  0.00  0.00    +0.000 A 
ATOM     36  C   UNL     1       1.127   3.265  21.023  0.00  0.00    +0.000 A 
ATOM     37  C   UNL     1       1.182   3.712  19.696  0.00  0.00    +0.000 A 
ENDBRANCH  31  32
ENDBRANCH  30  31
ENDBRANCH  24  30
ENDBRANCH  20  24
ENDBRANCH   1  21
TORSDOF 10
ENDMDL
MODEL 4
REMARK VINA RESULT:      -8.0      1.135      1.830
REMARK  Name = 
REMARK  10 active torsions:
REMARK  status: ('A' for Active; 'I' for Inactive)
REMARK    1  A    between atoms: C_2  and  O_3
REMARK    2  A    between atoms: C_2  and  C_4
REMARK    3  A    between atoms: C_4  and  C_5
REMARK    4  A    between atoms: C_5  and  C_6
REMARK    5  A    between atoms: C_5  and  N_14
REMARK    6  A    between atoms: C_6  and  C_7
REMARK    7  A    between atoms: C_7  and  C_8
REMARK    8  A    between atoms: C_15  and  C_17
REMARK    9  A    between atoms: C_17  and  N_18
REMARK   10  A    between atoms: C_24  and  N_25
REMARK                            x       y       z     vdW  Elec       q    Type
REMARK                         _______ _______ _______ _____ _____    ______ ____
ROOT
ATOM      1  C   UNL     1       2.085   8.470  18.719  0.00  0.00    +0.000 C 
ENDROOT
BRANCH   1   2
ATOM      2  N   UNL     1       0.997   9.258  19.392  0.00  0.00    +0.000 N 
ATOM      3  C   UNL     1       0.156  10.027  18.516  0.00  0.00    +0.000 C 
ATOM      4  C   UNL     1      -0.045  11.465  18.911  0.00  0.00    +0.000 C 
ATOM      5  C   UNL     1       0.235  11.794  20.337  0.00  0.00    +0.000 A 
ATOM      6  C   UNL     1       0.087  13.136  20.687  0.00  0.00    +0.000 A 
ATOM      7  C   UNL     1      -0.546  13.437  21.866  0.00  0.00    +0.000 A 
ATOM      8  C   UNL     1      -1.012  12.405  22.704  0.00  0.00    +0.000 A 
ATOM      9  C   UNL     1      -0.459  11.097  22.515  0.00  0.00    +0.000 A 
ATOM     10  C   UNL     1       0.194  10.773  21.287  0.00  0.00    +0.000 A 
ATOM     11  C   UNL     1       0.883   9.446  20.818  0.00  0.00    +0.000 C 
ATOM     12  O   UNL     1       1.408   8.707  21.642  0.00  0.00    +0.000 OA
BRANCH   8  13
ATOM     13  N   UNL     1      -2.091  12.795  23.530  0.00  0.00    +0.000 N 
ATOM     14  C   UNL     1      -3.450  12.258  23.367  0.00  0.00    +0.000 C 
ATOM     15  C   UNL     1      -4.361  12.748  24.542  0.00  0.00    +0.000 C 
ATOM     16  N   UNL     1      -4.429  14.216  24.692  0.00  0.00    +0.000 NA
ATOM     17  C   UNL     1      -3.064  14.741  24.840  0.00  0.00    +0.000 C 
ATOM     18  C   UNL     1      -2.115  14.291  23.704  0.00  0.00    +0.000 C 
ATOM     19  H   UNL     1      -4.963  14.447  25.531  0.00  0.00    +0.000 HD
ENDBRANCH   8  13
ENDBRANCH   1   2
BRANCH   1  21
ATOM     20  N   UNL     1       2.637   6.056  17.842  0.00  0.00    +0.000 N 
ATOM     21  C   UNL     1       2.428   6.898  18.932  0.00  0.00    +0.000 C 
ATOM     22  O   UNL     1       2.409   6.438  20.076  0.00  0.00    +0.000 OA
ATOM     23  H   UNL     1       2.633   6.495  16.931  0.00  0.00    +0.000 HD
BRANCH  20  24
ATOM     24  C   UNL     1       3.003   4.573  17.857  0.00  0.00    +0.000 C 
BRANCH  24  25
ATOM     25  C   UNL     1       1.816   3.579  17.735  0.00  0.00    +0.000 C 
BRANCH  25  27
ATOM     26  O   UNL     1       0.849   3.452  19.967  0.00  0.00    +0.000 OA
ATOM     27  C   UNL     1       1.427   2.905  19.035  0.00  0.00    +0.000 C 
BRANCH  27  28
ATOM     28  O   UNL     1       1.747   1.592  19.065  0.00  0.00    +0.000 OA
ATOM     29  H   UNL     1       1.847   1.173  18.189  0.00  0.00    +0.000 HD
ENDBRANCH  27  28
ENDBRANCH  25  27
ENDBRANCH  24  25
BRANCH  24  30
ATOM     30  C   UNL     1       4.066   4.229  16.773  0.00  0.00    +0.000 C 
BRANCH  30  31
ATOM     31  C   UNL     1       4.834   5.441  16.237  0.00  0.00    +0.000 C 
BRANCH  31  32
ATOM     32  C   UNL     1       5.975   5.839  17.140  0.00  0.00    +0.000 A 
ATOM     33  C   UNL     1       6.521   4.933  18.043  0.00  0.00    +0.000 A 
ATOM     34  C   UNL     1       7.588   5.275  18.866  0.00  0.00    +0.000 A 
ATOM     35  C   UNL     1       8.123   6.556  18.803  0.00  0.00    +0.000 A 
ATOM     36  C   UNL     1       7.587   7.494  17.924  0.00  0.00    +0.000 A 
ATOM     37  C   UNL     1       6.514   7.141  17.095  0.00  0.00    +0.000 A 
ENDBRANCH  31  32
ENDBRANCH  30  31
ENDBRANCH  24  30
ENDBRANCH  20  24
ENDBRANCH   1  21
TORSDOF 10
ENDMDL
MODEL 5
REMARK VINA RESULT:      -8.0      0.882      1.420
REMARK  Name = 
REMARK  10 active torsions:
REMARK  status: ('A' for Active; 'I' for Inactive)
REMARK    1  A    between atoms: C_2  and  O_3
REMARK    2  A    between atoms: C_2  and  C_4
REMARK    3  A    between atoms: C_4  and  C_5
REMARK    4  A    between atoms: C_5  and  C_6
REMARK    5  A    between atoms: C_5  and  N_14
REMARK    6  A    between atoms: C_6  and  C_7
REMARK    7  A    between atoms: C_7  and  C_8
REMARK    8  A    between atoms: C_15  and  C_17
REMARK    9  A    between atoms: C_17  and  N_18
REMARK   10  A    between atoms: C_24  and  N_25
REMARK                            x       y       z     vdW  Elec       q    Type
REMARK                         _______ _______ _______ _____ _____    ______ ____
ROOT
ATOM      1  C   UNL     1       2.108   8.614  18.556  0.00  0.00    +0.000 C 
ENDROOT
BRANCH   1   2
ATOM      2  N   UNL     1       1.038   9.419  19.237  0.00  0.00    +0.000 N 
ATOM      3  C   UNL     1       0.353  10.371  18.405  0.00  0.00    +0.000 C 
ATOM      4  C   UNL     1       0.248  11.763  18.967  0.00  0.00    +0.000 C 
ATOM      5  C   UNL     1       0.424  11.885  20.442  0.00  0.00    +0.000 A 
ATOM      6  C   UNL     1       0.367  13.183  20.950  0.00  0.00    +0.000 A 
ATOM      7  C   UNL     1      -0.342  13.400  22.105  0.00  0.00    +0.000 A 
ATOM      8  C   UNL     1      -0.973  12.326  22.762  0.00  0.00    +0.000 A 
ATOM      9  C   UNL     1      -0.524  11.002  22.449  0.00  0.00    +0.000 A 
ATOM     10  C   UNL     1       0.205  10.766  21.245  0.00  0.00    +0.000 A 
ATOM     11  C   UNL     1       0.812   9.443  20.663  0.00  0.00    +0.000 C 
ATOM     12  O   UNL     1       1.191   8.559  21.422  0.00  0.00    +0.000 OA
BRANCH   8  13
ATOM     13  N   UNL     1      -2.083  12.718  23.544  0.00  0.00    +0.000 N 
ATOM     14  C   UNL     1      -3.454  12.272  23.257  0.00  0.00    +0.000 C 
ATOM     15  C   UNL     1      -4.415  12.731  24.404  0.00  0.00    +0.000 C 
ATOM     16  N   UNL     1      -4.416  14.187  24.655  0.00  0.00    +0.000 NA
ATOM     17  C   UNL     1      -3.039  14.622  24.927  0.00  0.00    +0.000 C 
ATOM     18  C   UNL     1      -2.041  14.198  23.824  0.00  0.00    +0.000 C 
ATOM     19  H   UNL     1      -4.993  14.390  25.473  0.00  0.00    +0.000 HD
ENDBRANCH   8  13
ENDBRANCH   1   2
BRANCH   1  21
ATOM     20  N   UNL     1       2.809   6.415  19.810  0.00  0.00    +0.000 N 
ATOM     21  C   UNL     1       2.328   7.009  18.645  0.00  0.00    +0.000 C 
ATOM     22  O   UNL     1       2.149   6.330  17.631  0.00  0.00    +0.000 OA
ATOM     23  H   UNL     1       2.942   7.028  20.602  0.00  0.00    +0.000 HD
BRANCH  20  24
ATOM     24  C   UNL     1       3.040   4.929  20.080  0.00  0.00    +0.000 C 
BRANCH  24  25
ATOM     25  C   UNL     1       1.767   4.078  20.340  0.00  0.00    +0.000 C 
BRANCH  25  27
ATOM     26  O   UNL     1       0.833   3.480  18.172  0.00  0.00    +0.000 OA
ATOM     27  C   UNL     1       1.396   3.144  19.207  0.00  0.00    +0.000 C 
BRANCH  27  28
ATOM     28  O   UNL     1       1.789   1.869  19.425  0.00  0.00    +0.000 OA
ATOM     29  H   UNL     1       1.640   1.259  18.677  0.00  0.00    +0.000 HD
ENDBRANCH  27  28
ENDBRANCH  25  27
ENDBRANCH  24  25
BRANCH  24  30
ATOM     30  C   UNL     1       3.875   4.259  18.950  0.00  0.00    +0.000 C 
BRANCH  30  31
ATOM     31  C   UNL     1       5.371   4.145  19.255  0.00  0.00    +0.000 C 
BRANCH  31  32
ATOM     32  C   UNL     1       6.163   5.291  18.672  0.00  0.00    +0.000 A 
ATOM     33  C   UNL     1       5.703   5.980  17.554  0.00  0.00    +0.000 A 
ATOM     34  C   UNL     1       6.406   7.052  17.019  0.00  0.00    +0.000 A 
ATOM     35  C   UNL     1       7.606   7.448  17.598  0.00  0.00    +0.000 A 
ATOM     36  C   UNL     1       8.104   6.767  18.706  0.00  0.00    +0.000 A 
ATOM     37  C   UNL     1       7.388   5.689  19.243  0.00  0.00    +0.000 A 
ENDBRANCH  31  32
ENDBRANCH  30  31
ENDBRANCH  24  30
ENDBRANCH  20  24
ENDBRANCH   1  21
TORSDOF 10
ENDMDL
MODEL 6
REMARK VINA RESULT:      -8.0      2.149      4.060
REMARK  Name = 
REMARK  10 active torsions:
REMARK  status: ('A' for Active; 'I' for Inactive)
REMARK    1  A    between atoms: C_2  and  O_3
REMARK    2  A    between atoms: C_2  and  C_4
REMARK    3  A    between atoms: C_4  and  C_5
REMARK    4  A    between atoms: C_5  and  C_6
REMARK    5  A    between atoms: C_5  and  N_14
REMARK    6  A    between atoms: C_6  and  C_7
REMARK    7  A    between atoms: C_7  and  C_8
REMARK    8  A    between atoms: C_15  and  C_17
REMARK    9  A    between atoms: C_17  and  N_18
REMARK   10  A    between atoms: C_24  and  N_25
REMARK                            x       y       z     vdW  Elec       q    Type
REMARK                         _______ _______ _______ _____ _____    ______ ____
ROOT
ATOM      1  C   UNL     1       1.590   7.585  20.029  0.00  0.00    +0.000 C 
ENDROOT
BRANCH   1   2
ATOM      2  N   UNL     1       1.301   8.908  20.679  0.00  0.00    +0.000 N 
ATOM      3  C   UNL     1       1.659   9.009  22.068  0.00  0.00    +0.000 C 
ATOM      4  C   UNL     1       0.587   9.552  22.974  0.00  0.00    +0.000 C 
ATOM      5  C   UNL     1      -0.494  10.334  22.308  0.00  0.00    +0.000 A 
ATOM      6  C   UNL     1      -1.506  10.798  23.148  0.00  0.00    +0.000 A 
ATOM      7  C   UNL     1      -1.956  12.083  22.978  0.00  0.00    +0.000 A 
ATOM      8  C   UNL     1      -1.415  12.895  21.961  0.00  0.00    +0.000 A 
ATOM      9  C   UNL     1      -0.723  12.242  20.890  0.00  0.00    +0.000 A 
ATOM     10  C   UNL     1      -0.243  10.909  21.063  0.00  0.00    +0.000 A 
ATOM     11  C   UNL     1       0.527   9.967  20.075  0.00  0.00    +0.000 C 
ATOM     12  O   UNL     1       0.345  10.066  18.868  0.00  0.00    +0.000 OA
BRANCH   8  13
ATOM     13  N   UNL     1      -1.512  14.279  22.234  0.00  0.00    +0.000 N 
ATOM     14  C   UNL     1      -0.426  15.042  22.866  0.00  0.00    +0.000 C 
ATOM     15  C   UNL     1      -0.774  16.568  22.862  0.00  0.00    +0.000 C 
ATOM     16  N   UNL     1      -2.056  16.904  23.518  0.00  0.00    +0.000 NA
ATOM     17  C   UNL     1      -3.130  16.125  22.886  0.00  0.00    +0.000 C 
ATOM     18  C   UNL     1      -2.843  14.605  22.862  0.00  0.00    +0.000 C 
ATOM     19  H   UNL     1      -2.251  17.898  23.390  0.00  0.00    +0.000 HD
ENDBRANCH   8  13
ENDBRANCH   1   2
BRANCH   1  21
ATOM     20  N   UNL     1       3.525   6.205  18.910  0.00  0.00    +0.000 N 
ATOM     21  C   UNL     1       2.656   7.292  18.842  0.00  0.00    +0.000 C 
ATOM     22  O   UNL     1       2.748   8.102  17.916  0.00  0.00    +0.000 OA
ATOM     23  H   UNL     1       3.401   5.583  19.698  0.00  0.00    +0.000 HD
BRANCH  20  24
ATOM     24  C   UNL     1       4.558   5.760  17.876  0.00  0.00    +0.000 C 
BRANCH  24  25
ATOM     25  C   UNL     1       5.993   5.510  18.412  0.00  0.00    +0.000 C 
BRANCH  25  27
ATOM     26  O   UNL     1       7.351   6.419  16.605  0.00  0.00    +0.000 OA
ATOM     27  C   UNL     1       7.065   5.482  17.342  0.00  0.00    +0.000 C 
BRANCH  27  28
ATOM     28  O   UNL     1       7.731   4.306  17.294  0.00  0.00    +0.000 OA
ATOM     29  H   UNL     1       7.449   3.703  16.580  0.00  0.00    +0.000 HD
ENDBRANCH  27  28
ENDBRANCH  25  27
ENDBRANCH  24  25
BRANCH  24  30
ATOM     30  C   UNL     1       4.084   4.503  17.091  0.00  0.00    +0.000 C 
BRANCH  30  31
ATOM     31  C   UNL     1       4.216   3.189  17.866  0.00  0.00    +0.000 C 
BRANCH  31  32
ATOM     32  C   UNL     1       3.172   3.056  18.948  0.00  0.00    +0.000 A 
ATOM     33  C   UNL     1       3.540   2.838  20.272  0.00  0.00    +0.000 A 
ATOM     34  C   UNL     1       2.593   2.737  21.285  0.00  0.00    +0.000 A 
ATOM     35  C   UNL     1       1.242   2.841  20.978  0.00  0.00    +0.000 A 
ATOM     36  C   UNL     1       0.839   3.039  19.660  0.00  0.00    +0.000 A 
ATOM     37  C   UNL     1       1.799   3.144  18.644  0.00  0.00    +0.000 A 
ENDBRANCH  31  32
ENDBRANCH  30  31
ENDBRANCH  24  30
ENDBRANCH  20  24
ENDBRANCH   1  21
TORSDOF 10
ENDMDL
MODEL 7
REMARK VINA RESULT:      -8.0      2.152      4.110
REMARK  Name = 
REMARK  10 active torsions:
REMARK  status: ('A' for Active; 'I' for Inactive)
REMARK    1  A    between atoms: C_2  and  O_3
REMARK    2  A    between atoms: C_2  and  C_4
REMARK    3  A    between atoms: C_4  and  C_5
REMARK    4  A    between atoms: C_5  and  C_6
REMARK    5  A    between atoms: C_5  and  N_14
REMARK    6  A    between atoms: C_6  and  C_7
REMARK    7  A    between atoms: C_7  and  C_8
REMARK    8  A    between atoms: C_15  and  C_17
REMARK    9  A    between atoms: C_17  and  N_18
REMARK   10  A    between atoms: C_24  and  N_25
REMARK                            x       y       z     vdW  Elec       q    Type
REMARK                         _______ _______ _______ _____ _____    ______ ____
ROOT
ATOM      1  C   UNL     1       1.643   7.372  20.266  0.00  0.00    +0.000 C 
ENDROOT
BRANCH   1   2
ATOM      2  N   UNL     1       1.325   8.730  20.822  0.00  0.00    +0.000 N 
ATOM      3  C   UNL     1       1.686   8.937  22.199  0.00  0.00    +0.000 C 
ATOM      4  C   UNL     1       0.604   9.517  23.070  0.00  0.00    +0.000 C 
ATOM      5  C   UNL     1      -0.497  10.224  22.357  0.00  0.00    +0.000 A 
ATOM      6  C   UNL     1      -1.517  10.723  23.167  0.00  0.00    +0.000 A 
ATOM      7  C   UNL     1      -1.998  11.982  22.909  0.00  0.00    +0.000 A 
ATOM      8  C   UNL     1      -1.481  12.732  21.835  0.00  0.00    +0.000 A 
ATOM      9  C   UNL     1      -0.778  12.022  20.809  0.00  0.00    +0.000 A 
ATOM     10  C   UNL     1      -0.266  10.716  21.072  0.00  0.00    +0.000 A 
ATOM     11  C   UNL     1       0.524   9.725  20.150  0.00  0.00    +0.000 C 
ATOM     12  O   UNL     1       0.334   9.734  18.940  0.00  0.00    +0.000 OA
BRANCH   8  13
ATOM     13  N   UNL     1      -1.610  14.129  22.010  0.00  0.00    +0.000 N 
ATOM     14  C   UNL     1      -1.450  15.086  20.906  0.00  0.00    +0.000 C 
ATOM     15  C   UNL     1      -1.831  16.525  21.388  0.00  0.00    +0.000 C 
ATOM     16  N   UNL     1      -1.068  16.999  22.562  0.00  0.00    +0.000 NA
ATOM     17  C   UNL     1      -1.226  16.027  23.653  0.00  0.00    +0.000 C 
ATOM     18  C   UNL     1      -0.861  14.583  23.237  0.00  0.00    +0.000 C 
ATOM     19  H   UNL     1      -1.440  17.899  22.867  0.00  0.00    +0.000 HD
ENDBRANCH   8  13
ENDBRANCH   1   2
BRANCH   1  21
ATOM     20  N   UNL     1       3.654   6.146  19.101  0.00  0.00    +0.000 N 
ATOM     21  C   UNL     1       2.586   7.035  18.990  0.00  0.00    +0.000 C 
ATOM     22  O   UNL     1       2.400   7.650  17.937  0.00  0.00    +0.000 OA
ATOM     23  H   UNL     1       3.756   5.681  19.993  0.00  0.00    +0.000 HD
BRANCH  20  24
ATOM     24  C   UNL     1       4.614   5.688  18.005  0.00  0.00    +0.000 C 
BRANCH  24  25
ATOM     25  C   UNL     1       6.040   5.290  18.472  0.00  0.00    +0.000 C 
BRANCH  25  27
ATOM     26  O   UNL     1       7.895   4.407  17.164  0.00  0.00    +0.000 OA
ATOM     27  C   UNL     1       7.085   5.302  17.375  0.00  0.00    +0.000 C 
BRANCH  27  28
ATOM     28  O   UNL     1       7.018   6.404  16.595  0.00  0.00    +0.000 OA
ATOM     29  H   UNL     1       7.128   6.239  15.639  0.00  0.00    +0.000 HD
ENDBRANCH  27  28
ENDBRANCH  25  27
ENDBRANCH  24  25
BRANCH  24  30
ATOM     30  C   UNL     1       4.015   4.526  17.160  0.00  0.00    +0.000 C 
BRANCH  30  31
ATOM     31  C   UNL     1       4.065   3.158  17.847  0.00  0.00    +0.000 C 
BRANCH  31  32
ATOM     32  C   UNL     1       3.087   3.056  18.992  0.00  0.00    +0.000 A 
ATOM     33  C   UNL     1       1.726   3.255  18.788  0.00  0.00    +0.000 A 
ATOM     34  C   UNL     1       0.808   3.143  19.826  0.00  0.00    +0.000 A 
ATOM     35  C   UNL     1       1.251   2.835  21.107  0.00  0.00    +0.000 A 
ATOM     36  C   UNL     1       2.610   2.650  21.349  0.00  0.00    +0.000 A 
ATOM     37  C   UNL     1       3.529   2.761  20.297  0.00  0.00    +0.000 A 
ENDBRANCH  31  32
ENDBRANCH  30  31
ENDBRANCH  24  30
ENDBRANCH  20  24
ENDBRANCH   1  21
TORSDOF 10
ENDMDL
MODEL 8
REMARK VINA RESULT:      -7.9      2.970      4.329
REMARK  Name = 
REMARK  10 active torsions:
REMARK  status: ('A' for Active; 'I' for Inactive)
REMARK    1  A    between atoms: C_2  and  O_3
REMARK    2  A    between atoms: C_2  and  C_4
REMARK    3  A    between atoms: C_4  and  C_5
REMARK    4  A    between atoms: C_5  and  C_6
REMARK    5  A    between atoms: C_5  and  N_14
REMARK    6  A    between atoms: C_6  and  C_7
REMARK    7  A    between atoms: C_7  and  C_8
REMARK    8  A    between atoms: C_15  and  C_17
REMARK    9  A    between atoms: C_17  and  N_18
REMARK   10  A    between atoms: C_24  and  N_25
REMARK                            x       y       z     vdW  Elec       q    Type
REMARK                         _______ _______ _______ _____ _____    ______ ____
ROOT
ATOM      1  C   UNL     1       1.220   6.750  20.660  0.00  0.00    +0.000 C 
ENDROOT
BRANCH   1   2
ATOM      2  N   UNL     1       1.499   8.222  20.548  0.00  0.00    +0.000 N 
ATOM      3  C   UNL     1       1.376   8.971  21.769  0.00  0.00    +0.000 C 
ATOM      4  C   UNL     1       0.542  10.221  21.679  0.00  0.00    +0.000 C 
ATOM      5  C   UNL     1       0.345  10.775  20.309  0.00  0.00    +0.000 A 
ATOM      6  C   UNL     1      -0.463  11.909  20.229  0.00  0.00    +0.000 A 
ATOM      7  C   UNL     1      -0.061  12.940  19.417  0.00  0.00    +0.000 A 
ATOM      8  C   UNL     1       1.129  12.832  18.672  0.00  0.00    +0.000 A 
ATOM      9  C   UNL     1       1.664  11.520  18.461  0.00  0.00    +0.000 A 
ATOM     10  C   UNL     1       1.258  10.445  19.308  0.00  0.00    +0.000 A 
ATOM     11  C   UNL     1       1.669   8.932  19.303  0.00  0.00    +0.000 C 
ATOM     12  O   UNL     1       1.977   8.386  18.251  0.00  0.00    +0.000 OA
BRANCH   8  13
ATOM     13  N   UNL     1       1.713  14.082  18.360  0.00  0.00    +0.000 N 
ATOM     14  C   UNL     1       3.166  14.303  18.366  0.00  0.00    +0.000 C 
ATOM     15  C   UNL     1       3.490  15.728  17.805  0.00  0.00    +0.000 C 
ATOM     16  N   UNL     1       2.823  16.835  18.522  0.00  0.00    +0.000 NA
ATOM     17  C   UNL     1       1.373  16.594  18.521  0.00  0.00    +0.000 C 
ATOM     18  C   UNL     1       0.990  15.199  19.068  0.00  0.00    +0.000 C 
ATOM     19  H   UNL     1       3.011  17.714  18.039  0.00  0.00    +0.000 HD
ENDBRANCH   8  13
ENDBRANCH   1   2
BRANCH   1  21
ATOM     20  N   UNL     1       2.393   5.424  18.719  0.00  0.00    +0.000 N 
ATOM     21  C   UNL     1       2.130   5.537  20.083  0.00  0.00    +0.000 C 
ATOM     22  O   UNL     1       2.511   4.660  20.862  0.00  0.00    +0.000 OA
ATOM     23  H   UNL     1       2.046   6.172  18.134  0.00  0.00    +0.000 HD
BRANCH  20  24
ATOM     24  C   UNL     1       3.251   4.377  18.011  0.00  0.00    +0.000 C 
BRANCH  24  25
ATOM     25  C   UNL     1       2.493   3.147  17.442  0.00  0.00    +0.000 C 
BRANCH  25  27
ATOM     26  O   UNL     1       3.750   1.254  18.320  0.00  0.00    +0.000 OA
ATOM     27  C   UNL     1       2.694   1.869  18.230  0.00  0.00    +0.000 C 
BRANCH  27  28
ATOM     28  O   UNL     1       1.578   1.471  18.882  0.00  0.00    +0.000 OA
ATOM     29  H   UNL     1       1.082   2.187  19.323  0.00  0.00    +0.000 HD
ENDBRANCH  27  28
ENDBRANCH  25  27
ENDBRANCH  24  25
BRANCH  24  30
ATOM     30  C   UNL     1       4.115   5.008  16.880  0.00  0.00    +0.000 C 
BRANCH  30  31
ATOM     31  C   UNL     1       5.571   4.534  16.860  0.00  0.00    +0.000 C 
BRANCH  31  32
ATOM     32  C   UNL     1       6.509   5.541  17.478  0.00  0.00    +0.000 A 
ATOM     33  C   UNL     1       7.226   5.236  18.630  0.00  0.00    +0.000 A 
ATOM     34  C   UNL     1       8.112   6.143  19.200  0.00  0.00    +0.000 A 
ATOM     35  C   UNL     1       8.287   7.393  18.619  0.00  0.00    +0.000 A 
ATOM     36  C   UNL     1       7.570   7.738  17.476  0.00  0.00    +0.000 A 
ATOM     37  C   UNL     1       6.681   6.817  16.905  0.00  0.00    +0.000 A 
ENDBRANCH  31  32
ENDBRANCH  30  31
ENDBRANCH  24  30
ENDBRANCH  20  24
ENDBRANCH   1  21
TORSDOF 10
ENDMDL
MODEL 9
REMARK VINA RESULT:      -7.9      2.827      4.013
REMARK  Name = 
REMARK  10 active torsions:
REMARK  status: ('A' for Active; 'I' for Inactive)
REMARK    1  A    between atoms: C_2  and  O_3
REMARK    2  A    between atoms: C_2  and  C_4
REMARK    3  A    between atoms: C_4  and  C_5
REMARK    4  A    between atoms: C_5  and  C_6
REMARK    5  A    between atoms: C_5  and  N_14
REMARK    6  A    between atoms: C_6  and  C_7
REMARK    7  A    between atoms: C_7  and  C_8
REMARK    8  A    between atoms: C_15  and  C_17
REMARK    9  A    between atoms: C_17  and  N_18
REMARK   10  A    between atoms: C_24  and  N_25
REMARK                            x       y       z     vdW  Elec       q    Type
REMARK                         _______ _______ _______ _____ _____    ______ ____
ROOT
ATOM      1  C   UNL     1       1.456   6.668  20.554  0.00  0.00    +0.000 C 
ENDROOT
BRANCH   1   2
ATOM      2  N   UNL     1       1.515   8.169  20.544  0.00  0.00    +0.000 N 
ATOM      3  C   UNL     1       1.371   8.804  21.825  0.00  0.00    +0.000 C 
ATOM      4  C   UNL     1       0.364   9.921  21.882  0.00  0.00    +0.000 C 
ATOM      5  C   UNL     1      -0.002  10.536  20.575  0.00  0.00    +0.000 A 
ATOM      6  C   UNL     1      -0.966  11.542  20.631  0.00  0.00    +0.000 A 
ATOM      7  C   UNL     1      -0.771  12.675  19.882  0.00  0.00    +0.000 A 
ATOM      8  C   UNL     1       0.370  12.796  19.064  0.00  0.00    +0.000 A 
ATOM      9  C   UNL     1       1.069  11.594  18.719  0.00  0.00    +0.000 A 
ATOM     10  C   UNL     1       0.878  10.414  19.500  0.00  0.00    +0.000 A 
ATOM     11  C   UNL     1       1.498   8.982  19.351  0.00  0.00    +0.000 C 
ATOM     12  O   UNL     1       1.807   8.563  18.243  0.00  0.00    +0.000 OA
BRANCH   8  13
ATOM     13  N   UNL     1       0.748  14.136  18.819  0.00  0.00    +0.000 N 
ATOM     14  C   UNL     1       2.008  14.708  19.313  0.00  0.00    +0.000 C 
ATOM     15  C   UNL     1       2.209  16.144  18.723  0.00  0.00    +0.000 C 
ATOM     16  N   UNL     1       1.102  17.082  19.004  0.00  0.00    +0.000 NA
ATOM     17  C   UNL     1      -0.153  16.492  18.518  0.00  0.00    +0.000 C 
ATOM     18  C   UNL     1      -0.409  15.070  19.070  0.00  0.00    +0.000 C 
ATOM     19  H   UNL     1       1.267  17.959  18.509  0.00  0.00    +0.000 HD
ENDBRANCH   8  13
ENDBRANCH   1   2
BRANCH   1  21
ATOM     20  N   UNL     1       2.970   5.769  18.604  0.00  0.00    +0.000 N 
ATOM     21  C   UNL     1       2.545   5.643  19.925  0.00  0.00    +0.000 C 
ATOM     22  O   UNL     1       2.925   4.690  20.609  0.00  0.00    +0.000 OA
ATOM     23  H   UNL     1       2.616   6.568  18.095  0.00  0.00    +0.000 HD
BRANCH  20  24
ATOM     24  C   UNL     1       4.006   4.924  17.865  0.00  0.00    +0.000 C 
BRANCH  24  25
ATOM     25  C   UNL     1       3.545   3.505  17.434  0.00  0.00    +0.000 C 
BRANCH  25  27
ATOM     26  O   UNL     1       3.568   1.238  18.324  0.00  0.00    +0.000 OA
ATOM     27  C   UNL     1       3.962   2.397  18.379  0.00  0.00    +0.000 C 
BRANCH  27  28
ATOM     28  O   UNL     1       4.870   2.801  19.296  0.00  0.00    +0.000 OA
ATOM     29  H   UNL     1       5.661   2.233  19.369  0.00  0.00    +0.000 HD
ENDBRANCH  27  28
ENDBRANCH  25  27
ENDBRANCH  24  25
BRANCH  24  30
ATOM     30  C   UNL     1       4.581   5.669  16.625  0.00  0.00    +0.000 C 
BRANCH  30  31
ATOM     31  C   UNL     1       6.060   5.386  16.349  0.00  0.00    +0.000 C 
BRANCH  31  32
ATOM     32  C   UNL     1       6.299   4.918  14.934  0.00  0.00    +0.000 A 
ATOM     33  C   UNL     1       7.392   5.377  14.206  0.00  0.00    +0.000 A 
ATOM     34  C   UNL     1       7.641   4.939  12.910  0.00  0.00    +0.000 A 
ATOM     35  C   UNL     1       6.778   4.030  12.312  0.00  0.00    +0.000 A 
ATOM     36  C   UNL     1       5.663   3.566  13.006  0.00  0.00    +0.000 A 
ATOM     37  C   UNL     1       5.420   4.008  14.314  0.00  0.00    +0.000 A 
ENDBRANCH  31  32
ENDBRANCH  30  31
ENDBRANCH  24  30
ENDBRANCH  20  24
ENDBRANCH   1  21
TORSDOF 10
ENDMDL
