MODEL 1
REMARK VINA RESULT:      -7.7      0.000      0.000
REMARK  Name = 
REMARK  3 active torsions:
REMARK  status: ('A' for Active; 'I' for Inactive)
REMARK    1  A    between atoms: C_2  and  C_17
REMARK    2  A    between atoms: C_7  and  C_8
REMARK    3  A    between atoms: C_8  and  C_9
REMARK                            x       y       z     vdW  Elec       q    Type
REMARK                         _______ _______ _______ _____ _____    ______ ____
ROOT
ATOM      1  O   UNL     1       7.750  10.038  17.534  0.00  0.00    +0.000 OA
ATOM      2  C   UNL     1       8.567   9.613  18.351  0.00  0.00    +0.000 C 
ATOM      3  N   UNL     1       8.663   8.291  18.748  0.00  0.00    +0.000 N 
ATOM      4  C   UNL     1       7.830   7.353  18.201  0.00  0.00    +0.000 A 
ATOM      5  N   UNL     1       7.114   7.468  17.114  0.00  0.00    +0.000 NA
ATOM      6  C   UNL     1       6.334   6.349  16.952  0.00  0.00    +0.000 A 
ATOM      7  C   UNL     1       6.464   5.381  17.927  0.00  0.00    +0.000 A 
ATOM      8  S   UNL     1       7.692   5.873  19.038  0.00  0.00    +0.000 S 
ATOM      9  H   UNL     1       9.253   8.029  19.521  0.00  0.00    +0.000 HD
ENDROOT
BRANCH   2  10
ATOM     10  C   UNL     1       9.476  10.545  19.004  0.00  0.00    +0.000 A 
ATOM     11  C   UNL     1       9.515  10.793  20.366  0.00  0.00    +0.000 A 
ATOM     12  C   UNL     1      10.454  11.801  20.716  0.00  0.00    +0.000 A 
ATOM     13  C   UNL     1      11.112  12.288  19.611  0.00  0.00    +0.000 A 
ATOM     14  S   UNL     1      10.624  11.499  18.169  0.00  0.00    +0.000 S 
ENDBRANCH   2  10
BRANCH   7  15
ATOM     15  C   UNL     1       5.709   4.092  18.069  0.00  0.00    +0.000 C 
BRANCH  15  16
ATOM     16  C   UNL     1       4.355   4.282  18.727  0.00  0.00    +0.000 A 
ATOM     17  C   UNL     1       4.094   5.486  19.407  0.00  0.00    +0.000 A 
ATOM     18  C   UNL     1       2.827   5.757  19.930  0.00  0.00    +0.000 A 
ATOM     19  C   UNL     1       1.796   4.837  19.775  0.00  0.00    +0.000 A 
ATOM     20  C   UNL     1       2.044   3.624  19.136  0.00  0.00    +0.000 A 
ATOM     21  C   UNL     1       3.316   3.339  18.629  0.00  0.00    +0.000 A 
ATOM     22 CL   UNL     1       3.545   1.788  17.903  0.00  0.00    +0.000 Cl
ENDBRANCH  15  16
ENDBRANCH   7  15
TORSDOF 3
ENDMDL
MODEL 2
REMARK VINA RESULT:      -7.6      0.998      1.139
REMARK  Name = 
REMARK  3 active torsions:
REMARK  status: ('A' for Active; 'I' for Inactive)
REMARK    1  A    between atoms: C_2  and  C_17
REMARK    2  A    between atoms: C_7  and  C_8
REMARK    3  A    between atoms: C_8  and  C_9
REMARK                            x       y       z     vdW  Elec       q    Type
REMARK                         _______ _______ _______ _____ _____    ______ ____
ROOT
ATOM      1  O   UNL     1       7.948  10.158  17.502  0.00  0.00    +0.000 OA
ATOM      2  C   UNL     1       8.691   9.717  18.378  0.00  0.00    +0.000 C 
ATOM      3  N   UNL     1       8.693   8.404  18.816  0.00  0.00    +0.000 N 
ATOM      4  C   UNL     1       7.845   7.494  18.244  0.00  0.00    +0.000 A 
ATOM      5  N   UNL     1       7.203   7.613  17.112  0.00  0.00    +0.000 NA
ATOM      6  C   UNL     1       6.375   6.532  16.932  0.00  0.00    +0.000 A 
ATOM      7  C   UNL     1       6.395   5.587  17.939  0.00  0.00    +0.000 A 
ATOM      8  S   UNL     1       7.579   6.049  19.109  0.00  0.00    +0.000 S 
ATOM      9  H   UNL     1       9.221   8.135  19.630  0.00  0.00    +0.000 HD
ENDROOT
BRANCH   2  10
ATOM     10  C   UNL     1       9.607  10.620  19.061  0.00  0.00    +0.000 A 
ATOM     11  C   UNL     1      10.770  11.135  18.514  0.00  0.00    +0.000 A 
ATOM     12  C   UNL     1      11.504  11.935  19.431  0.00  0.00    +0.000 A 
ATOM     13  C   UNL     1      10.876  12.014  20.651  0.00  0.00    +0.000 A 
ATOM     14  S   UNL     1       9.389  11.160  20.669  0.00  0.00    +0.000 S 
ENDBRANCH   2  10
BRANCH   7  15
ATOM     15  C   UNL     1       5.565   4.344  18.068  0.00  0.00    +0.000 C 
BRANCH  15  16
ATOM     16  C   UNL     1       4.360   4.542  18.969  0.00  0.00    +0.000 A 
ATOM     17  C   UNL     1       3.716   5.792  18.975  0.00  0.00    +0.000 A 
ATOM     18  C   UNL     1       2.536   5.990  19.697  0.00  0.00    +0.000 A 
ATOM     19  C   UNL     1       1.975   4.941  20.419  0.00  0.00    +0.000 A 
ATOM     20  C   UNL     1       2.617   3.706  20.454  0.00  0.00    +0.000 A 
ATOM     21  C   UNL     1       3.809   3.509  19.748  0.00  0.00    +0.000 A 
ATOM     22 CL   UNL     1       4.565   1.962  19.896  0.00  0.00    +0.000 Cl
ENDBRANCH  15  16
ENDBRANCH   7  15
TORSDOF 3
ENDMDL
MODEL 3
REMARK VINA RESULT:      -7.2      5.104      7.205
REMARK  Name = 
REMARK  3 active torsions:
REMARK  status: ('A' for Active; 'I' for Inactive)
REMARK    1  A    between atoms: C_2  and  C_17
REMARK    2  A    between atoms: C_7  and  C_8
REMARK    3  A    between atoms: C_8  and  C_9
REMARK                            x       y       z     vdW  Elec       q    Type
REMARK                         _______ _______ _______ _____ _____    ______ ____
ROOT
ATOM      1  O   UNL     1       0.792   9.813  18.947  0.00  0.00    +0.000 OA
ATOM      2  C   UNL     1       0.780   9.395  20.105  0.00  0.00    +0.000 C 
ATOM      3  N   UNL     1       1.412   8.238  20.527  0.00  0.00    +0.000 N 
ATOM      4  C   UNL     1       2.134   7.492  19.635  0.00  0.00    +0.000 A 
ATOM      5  N   UNL     1       2.567   7.864  18.460  0.00  0.00    +0.000 NA
ATOM      6  C   UNL     1       3.163   6.801  17.827  0.00  0.00    +0.000 A 
ATOM      7  C   UNL     1       3.181   5.615  18.534  0.00  0.00    +0.000 A 
ATOM      8  S   UNL     1       2.496   5.890  20.096  0.00  0.00    +0.000 S 
ATOM      9  H   UNL     1       1.249   7.872  21.451  0.00  0.00    +0.000 HD
ENDROOT
BRANCH   2  10
ATOM     10  C   UNL     1       0.014  10.110  21.116  0.00  0.00    +0.000 A 
ATOM     11  C   UNL     1      -0.461  11.404  20.984  0.00  0.00    +0.000 A 
ATOM     12  C   UNL     1      -1.117  11.873  22.154  0.00  0.00    +0.000 A 
ATOM     13  C   UNL     1      -1.130  10.919  23.145  0.00  0.00    +0.000 A 
ATOM     14  S   UNL     1      -0.392   9.455  22.643  0.00  0.00    +0.000 S 
ENDBRANCH   2  10
BRANCH   7  15
ATOM     15  C   UNL     1       3.691   4.274  18.095  0.00  0.00    +0.000 C 
BRANCH  15  16
ATOM     16  C   UNL     1       4.934   4.381  17.230  0.00  0.00    +0.000 A 
ATOM     17  C   UNL     1       4.843   4.050  15.866  0.00  0.00    +0.000 A 
ATOM     18  C   UNL     1       5.927   4.242  15.005  0.00  0.00    +0.000 A 
ATOM     19  C   UNL     1       7.117   4.776  15.489  0.00  0.00    +0.000 A 
ATOM     20  C   UNL     1       7.238   5.077  16.843  0.00  0.00    +0.000 A 
ATOM     21  C   UNL     1       6.162   4.868  17.713  0.00  0.00    +0.000 A 
ATOM     22 CL   UNL     1       6.423   5.217  19.386  0.00  0.00    +0.000 Cl
ENDBRANCH  15  16
ENDBRANCH   7  15
TORSDOF 3
ENDMDL
MODEL 4
REMARK VINA RESULT:      -7.0      6.397      9.002
REMARK  Name = 
REMARK  3 active torsions:
REMARK  status: ('A' for Active; 'I' for Inactive)
REMARK    1  A    between atoms: C_2  and  C_17
REMARK    2  A    between atoms: C_7  and  C_8
REMARK    3  A    between atoms: C_8  and  C_9
REMARK                            x       y       z     vdW  Elec       q    Type
REMARK                         _______ _______ _______ _____ _____    ______ ____
ROOT
ATOM      1  O   UNL     1       1.731   5.463  20.808  0.00  0.00    +0.000 OA
ATOM      2  C   UNL     1       2.358   5.455  19.748  0.00  0.00    +0.000 C 
ATOM      3  N   UNL     1       2.510   6.552  18.919  0.00  0.00    +0.000 N 
ATOM      4  C   UNL     1       1.966   7.757  19.277  0.00  0.00    +0.000 A 
ATOM      5  N   UNL     1       1.544   8.114  20.461  0.00  0.00    +0.000 NA
ATOM      6  C   UNL     1       0.975   9.362  20.393  0.00  0.00    +0.000 A 
ATOM      7  C   UNL     1       0.968   9.951  19.145  0.00  0.00    +0.000 A 
ATOM      8  S   UNL     1       1.801   8.918  18.039  0.00  0.00    +0.000 S 
ATOM      9  H   UNL     1       2.909   6.450  18.001  0.00  0.00    +0.000 HD
ENDROOT
BRANCH   2  10
ATOM     10  C   UNL     1       2.947   4.209  19.275  0.00  0.00    +0.000 A 
ATOM     11  C   UNL     1       3.401   3.985  17.987  0.00  0.00    +0.000 A 
ATOM     12  C   UNL     1       3.865   2.657  17.789  0.00  0.00    +0.000 A 
ATOM     13  C   UNL     1       3.759   1.906  18.936  0.00  0.00    +0.000 A 
ATOM     14  S   UNL     1       3.143   2.818  20.251  0.00  0.00    +0.000 S 
ENDBRANCH   2  10
BRANCH   7  15
ATOM     15  C   UNL     1       0.366  11.263  18.735  0.00  0.00    +0.000 C 
BRANCH  15  16
ATOM     16  C   UNL     1      -1.104  11.140  18.376  0.00  0.00    +0.000 A 
ATOM     17  C   UNL     1      -1.503  10.121  17.492  0.00  0.00    +0.000 A 
ATOM     18  C   UNL     1      -2.854   9.892  17.220  0.00  0.00    +0.000 A 
ATOM     19  C   UNL     1      -3.831  10.671  17.833  0.00  0.00    +0.000 A 
ATOM     20  C   UNL     1      -3.454  11.707  18.684  0.00  0.00    +0.000 A 
ATOM     21  C   UNL     1      -2.102  11.953  18.943  0.00  0.00    +0.000 A 
ATOM     22 CL   UNL     1      -1.726  13.295  19.965  0.00  0.00    +0.000 Cl
ENDBRANCH  15  16
ENDBRANCH   7  15
TORSDOF 3
ENDMDL
MODEL 5
REMARK VINA RESULT:      -6.9      5.824      7.345
REMARK  Name = 
REMARK  3 active torsions:
REMARK  status: ('A' for Active; 'I' for Inactive)
REMARK    1  A    between atoms: C_2  and  C_17
REMARK    2  A    between atoms: C_7  and  C_8
REMARK    3  A    between atoms: C_8  and  C_9
REMARK                            x       y       z     vdW  Elec       q    Type
REMARK                         _______ _______ _______ _____ _____    ______ ____
ROOT
ATOM      1  O   UNL     1       0.790  10.035  22.262  0.00  0.00    +0.000 OA
ATOM      2  C   UNL     1       0.386  10.642  21.270  0.00  0.00    +0.000 C 
ATOM      3  N   UNL     1       0.569  10.221  19.965  0.00  0.00    +0.000 N 
ATOM      4  C   UNL     1       1.214   9.039  19.715  0.00  0.00    +0.000 A 
ATOM      5  N   UNL     1       1.450   8.072  20.561  0.00  0.00    +0.000 NA
ATOM      6  C   UNL     1       2.209   7.101  19.954  0.00  0.00    +0.000 A 
ATOM      7  C   UNL     1       2.548   7.339  18.637  0.00  0.00    +0.000 A 
ATOM      8  S   UNL     1       1.793   8.807  18.128  0.00  0.00    +0.000 S 
ATOM      9  H   UNL     1       0.343  10.827  19.194  0.00  0.00    +0.000 HD
ENDROOT
BRANCH   2  10
ATOM     10  C   UNL     1      -0.288  11.922  21.441  0.00  0.00    +0.000 A 
ATOM     11  C   UNL     1      -0.836  12.380  22.627  0.00  0.00    +0.000 A 
ATOM     12  C   UNL     1      -1.491  13.632  22.486  0.00  0.00    +0.000 A 
ATOM     13  C   UNL     1      -1.417  14.101  21.195  0.00  0.00    +0.000 A 
ATOM     14  S   UNL     1      -0.524  13.049  20.176  0.00  0.00    +0.000 S 
ENDBRANCH   2  10
BRANCH   7  15
ATOM     15  C   UNL     1       3.414   6.513  17.732  0.00  0.00    +0.000 C 
BRANCH  15  16
ATOM     16  C   UNL     1       3.313   5.028  18.029  0.00  0.00    +0.000 A 
ATOM     17  C   UNL     1       2.167   4.329  17.609  0.00  0.00    +0.000 A 
ATOM     18  C   UNL     1       2.076   2.942  17.754  0.00  0.00    +0.000 A 
ATOM     19  C   UNL     1       3.131   2.229  18.314  0.00  0.00    +0.000 A 
ATOM     20  C   UNL     1       4.259   2.907  18.769  0.00  0.00    +0.000 A 
ATOM     21  C   UNL     1       4.346   4.298  18.643  0.00  0.00    +0.000 A 
ATOM     22 CL   UNL     1       5.757   5.060  19.287  0.00  0.00    +0.000 Cl
ENDBRANCH  15  16
ENDBRANCH   7  15
TORSDOF 3
ENDMDL
MODEL 6
REMARK VINA RESULT:      -6.8      5.028      6.941
REMARK  Name = 
REMARK  3 active torsions:
REMARK  status: ('A' for Active; 'I' for Inactive)
REMARK    1  A    between atoms: C_2  and  C_17
REMARK    2  A    between atoms: C_7  and  C_8
REMARK    3  A    between atoms: C_8  and  C_9
REMARK                            x       y       z     vdW  Elec       q    Type
REMARK                         _______ _______ _______ _____ _____    ______ ____
ROOT
ATOM      1  O   UNL     1       0.833   8.766  20.826  0.00  0.00    +0.000 OA
ATOM      2  C   UNL     1       1.032   9.171  19.681  0.00  0.00    +0.000 C 
ATOM      3  N   UNL     1       1.808   8.515  18.741  0.00  0.00    +0.000 N 
ATOM      4  C   UNL     1       2.391   7.317  19.056  0.00  0.00    +0.000 A 
ATOM      5  N   UNL     1       2.090   6.528  20.053  0.00  0.00    +0.000 NA
ATOM      6  C   UNL     1       2.966   5.471  20.089  0.00  0.00    +0.000 A 
ATOM      7  C   UNL     1       3.937   5.463  19.108  0.00  0.00    +0.000 A 
ATOM      8  S   UNL     1       3.665   6.800  18.048  0.00  0.00    +0.000 S 
ATOM      9  H   UNL     1       2.050   8.963  17.873  0.00  0.00    +0.000 HD
ENDROOT
BRANCH   2  10
ATOM     10  C   UNL     1       0.473  10.451  19.267  0.00  0.00    +0.000 A 
ATOM     11  C   UNL     1      -0.761  10.621  18.663  0.00  0.00    +0.000 A 
ATOM     12  C   UNL     1      -1.019  11.972  18.307  0.00  0.00    +0.000 A 
ATOM     13  C   UNL     1       0.023  12.798  18.657  0.00  0.00    +0.000 A 
ATOM     14  S   UNL     1       1.284  11.946  19.449  0.00  0.00    +0.000 S 
ENDBRANCH   2  10
BRANCH   7  15
ATOM     15  C   UNL     1       5.068   4.494  18.921  0.00  0.00    +0.000 C 
BRANCH  15  16
ATOM     16  C   UNL     1       5.675   4.572  17.532  0.00  0.00    +0.000 A 
ATOM     17  C   UNL     1       5.049   3.881  16.479  0.00  0.00    +0.000 A 
ATOM     18  C   UNL     1       5.500   4.014  15.163  0.00  0.00    +0.000 A 
ATOM     19  C   UNL     1       6.578   4.844  14.875  0.00  0.00    +0.000 A 
ATOM     20  C   UNL     1       7.233   5.509  15.909  0.00  0.00    +0.000 A 
ATOM     21  C   UNL     1       6.797   5.364  17.231  0.00  0.00    +0.000 A 
ATOM     22 CL   UNL     1       7.704   6.181  18.454  0.00  0.00    +0.000 Cl
ENDBRANCH  15  16
ENDBRANCH   7  15
TORSDOF 3
ENDMDL
MODEL 7
REMARK VINA RESULT:      -6.8      5.667      7.337
REMARK  Name = 
REMARK  3 active torsions:
REMARK  status: ('A' for Active; 'I' for Inactive)
REMARK    1  A    between atoms: C_2  and  C_17
REMARK    2  A    between atoms: C_7  and  C_8
REMARK    3  A    between atoms: C_8  and  C_9
REMARK                            x       y       z     vdW  Elec       q    Type
REMARK                         _______ _______ _______ _____ _____    ______ ____
ROOT
ATOM      1  O   UNL     1      -0.106  10.856  18.921  0.00  0.00    +0.000 OA
ATOM      2  C   UNL     1       0.024  10.398  20.057  0.00  0.00    +0.000 C 
ATOM      3  N   UNL     1       0.837   9.327  20.380  0.00  0.00    +0.000 N 
ATOM      4  C   UNL     1       1.587   8.722  19.407  0.00  0.00    +0.000 A 
ATOM      5  N   UNL     1       1.877   9.194  18.224  0.00  0.00    +0.000 NA
ATOM      6  C   UNL     1       2.565   8.248  17.503  0.00  0.00    +0.000 A 
ATOM      7  C   UNL     1       2.796   7.051  18.151  0.00  0.00    +0.000 A 
ATOM      8  S   UNL     1       2.197   7.170  19.767  0.00  0.00    +0.000 S 
ATOM      9  H   UNL     1       0.795   8.908  21.295  0.00  0.00    +0.000 HD
ENDROOT
BRANCH   2  10
ATOM     10  C   UNL     1      -0.756  10.962  21.150  0.00  0.00    +0.000 A 
ATOM     11  C   UNL     1      -1.635  12.025  21.032  0.00  0.00    +0.000 A 
ATOM     12  C   UNL     1      -2.207  12.408  22.274  0.00  0.00    +0.000 A 
ATOM     13  C   UNL     1      -1.754  11.621  23.307  0.00  0.00    +0.000 A 
ATOM     14  S   UNL     1      -0.677  10.402  22.763  0.00  0.00    +0.000 S 
ENDBRANCH   2  10
BRANCH   7  15
ATOM     15  C   UNL     1       3.451   5.811  17.616  0.00  0.00    +0.000 C 
BRANCH  15  16
ATOM     16  C   UNL     1       2.901   4.546  18.249  0.00  0.00    +0.000 A 
ATOM     17  C   UNL     1       1.562   4.192  18.006  0.00  0.00    +0.000 A 
ATOM     18  C   UNL     1       1.042   2.980  18.469  0.00  0.00    +0.000 A 
ATOM     19  C   UNL     1       1.853   2.098  19.176  0.00  0.00    +0.000 A 
ATOM     20  C   UNL     1       3.171   2.446  19.457  0.00  0.00    +0.000 A 
ATOM     21  C   UNL     1       3.690   3.667  19.012  0.00  0.00    +0.000 A 
ATOM     22 CL   UNL     1       5.318   4.040  19.457  0.00  0.00    +0.000 Cl
ENDBRANCH  15  16
ENDBRANCH   7  15
TORSDOF 3
ENDMDL
MODEL 8
REMARK VINA RESULT:      -6.8      5.908      7.892
REMARK  Name = 
REMARK  3 active torsions:
REMARK  status: ('A' for Active; 'I' for Inactive)
REMARK    1  A    between atoms: C_2  and  C_17
REMARK    2  A    between atoms: C_7  and  C_8
REMARK    3  A    between atoms: C_8  and  C_9
REMARK                            x       y       z     vdW  Elec       q    Type
REMARK                         _______ _______ _______ _____ _____    ______ ____
ROOT
ATOM      1  O   UNL     1      -0.795  10.467  17.842  0.00  0.00    +0.000 OA
ATOM      2  C   UNL     1      -0.783  10.617  19.064  0.00  0.00    +0.000 C 
ATOM      3  N   UNL     1       0.079   9.960  19.925  0.00  0.00    +0.000 N 
ATOM      4  C   UNL     1       1.016   9.097  19.424  0.00  0.00    +0.000 A 
ATOM      5  N   UNL     1       1.423   9.003  18.186  0.00  0.00    +0.000 NA
ATOM      6  C   UNL     1       2.298   7.951  18.065  0.00  0.00    +0.000 A 
ATOM      7  C   UNL     1       2.552   7.245  19.224  0.00  0.00    +0.000 A 
ATOM      8  S   UNL     1       1.721   8.008  20.532  0.00  0.00    +0.000 S 
ATOM      9  H   UNL     1      -0.052  10.014  20.922  0.00  0.00    +0.000 HD
ENDROOT
BRANCH   2  10
ATOM     10  C   UNL     1      -1.763  11.495  19.687  0.00  0.00    +0.000 A 
ATOM     11  C   UNL     1      -2.971  11.866  19.121  0.00  0.00    +0.000 A 
ATOM     12  C   UNL     1      -3.697  12.787  19.923  0.00  0.00    +0.000 A 
ATOM     13  C   UNL     1      -3.026  13.087  21.085  0.00  0.00    +0.000 A 
ATOM     14  S   UNL     1      -1.549  12.226  21.219  0.00  0.00    +0.000 S 
ENDBRANCH   2  10
BRANCH   7  15
ATOM     15  C   UNL     1       3.398   6.018  19.403  0.00  0.00    +0.000 C 
BRANCH  15  16
ATOM     16  C   UNL     1       2.604   4.737  19.223  0.00  0.00    +0.000 A 
ATOM     17  C   UNL     1       1.622   4.407  20.174  0.00  0.00    +0.000 A 
ATOM     18  C   UNL     1       0.787   3.301  19.993  0.00  0.00    +0.000 A 
ATOM     19  C   UNL     1       0.913   2.511  18.855  0.00  0.00    +0.000 A 
ATOM     20  C   UNL     1       1.903   2.800  17.919  0.00  0.00    +0.000 A 
ATOM     21  C   UNL     1       2.754   3.895  18.106  0.00  0.00    +0.000 A 
ATOM     22 CL   UNL     1       3.988   4.144  16.922  0.00  0.00    +0.000 Cl
ENDBRANCH  15  16
ENDBRANCH   7  15
TORSDOF 3
ENDMDL
MODEL 9
REMARK VINA RESULT:      -6.8      5.079      6.876
REMARK  Name = 
REMARK  3 active torsions:
REMARK  status: ('A' for Active; 'I' for Inactive)
REMARK    1  A    between atoms: C_2  and  C_17
REMARK    2  A    between atoms: C_7  and  C_8
REMARK    3  A    between atoms: C_8  and  C_9
REMARK                            x       y       z     vdW  Elec       q    Type
REMARK                         _______ _______ _______ _____ _____    ______ ____
ROOT
ATOM      1  O   UNL     1       0.921   8.265  21.597  0.00  0.00    +0.000 OA
ATOM      2  C   UNL     1       1.117   8.799  20.505  0.00  0.00    +0.000 C 
ATOM      3  N   UNL     1       1.805   8.212  19.458  0.00  0.00    +0.000 N 
ATOM      4  C   UNL     1       2.295   6.941  19.593  0.00  0.00    +0.000 A 
ATOM      5  N   UNL     1       1.961   6.055  20.494  0.00  0.00    +0.000 NA
ATOM      6  C   UNL     1       2.747   4.937  20.358  0.00  0.00    +0.000 A 
ATOM      7  C   UNL     1       3.682   4.980  19.344  0.00  0.00    +0.000 A 
ATOM      8  S   UNL     1       3.489   6.460  18.475  0.00  0.00    +0.000 S 
ATOM      9  H   UNL     1       2.056   8.749  18.644  0.00  0.00    +0.000 HD
ENDROOT
BRANCH   2  10
ATOM     10  C   UNL     1       0.654  10.162  20.282  0.00  0.00    +0.000 A 
ATOM     11  C   UNL     1       0.773  10.856  19.090  0.00  0.00    +0.000 A 
ATOM     12  C   UNL     1       0.296  12.191  19.178  0.00  0.00    +0.000 A 
ATOM     13  C   UNL     1      -0.180  12.478  20.436  0.00  0.00    +0.000 A 
ATOM     14  S   UNL     1      -0.089  11.124  21.485  0.00  0.00    +0.000 S 
ENDBRANCH   2  10
BRANCH   7  15
ATOM     15  C   UNL     1       4.721   3.958  18.989  0.00  0.00    +0.000 C 
BRANCH  15  16
ATOM     16  C   UNL     1       5.448   4.294  17.699  0.00  0.00    +0.000 A 
ATOM     17  C   UNL     1       4.899   3.862  16.478  0.00  0.00    +0.000 A 
ATOM     18  C   UNL     1       5.465   4.243  15.259  0.00  0.00    +0.000 A 
ATOM     19  C   UNL     1       6.585   5.069  15.238  0.00  0.00    +0.000 A 
ATOM     20  C   UNL     1       7.164   5.478  16.436  0.00  0.00    +0.000 A 
ATOM     21  C   UNL     1       6.612   5.083  17.659  0.00  0.00    +0.000 A 
ATOM     22 CL   UNL     1       7.431   5.591  19.094  0.00  0.00    +0.000 Cl
ENDBRANCH  15  16
ENDBRANCH   7  15
TORSDOF 3
ENDMDL
