MODEL 1
REMARK VINA RESULT:      -6.1      0.000      0.000
REMARK  Name = 
REMARK  1 active torsions:
REMARK  status: ('A' for Active; 'I' for Inactive)
REMARK    1  A    between atoms: C_8  and  C_9
REMARK                            x       y       z     vdW  Elec       q    Type
REMARK                         _______ _______ _______ _____ _____    ______ ____
ROOT
ATOM      1  O   UNL     1       6.415   4.202  18.856  0.00  0.00    +0.000 OA
ATOM      2  C   UNL     1       6.802   5.166  18.224  0.00  0.00    +0.000 C 
ATOM      3  N   UNL     1       7.213   6.384  18.700  0.00  0.00    +0.000 N 
ATOM      4  C   UNL     1       7.585   7.217  17.677  0.00  0.00    +0.000 C 
ATOM      5  S   UNL     1       8.131   8.764  17.837  0.00  0.00    +0.000 S 
ATOM      6  N   UNL     1       7.422   6.536  16.488  0.00  0.00    +0.000 N 
ATOM      7  C   UNL     1       6.948   5.277  16.740  0.00  0.00    +0.000 C 
ATOM      8  C   UNL     1       6.668   4.306  15.868  0.00  0.00    +0.000 C 
ATOM      9  H   UNL     1       7.240   6.621  19.679  0.00  0.00    +0.000 HD
ATOM     10  H   UNL     1       7.617   6.895  15.561  0.00  0.00    +0.000 HD
ENDROOT
BRANCH   8  11
ATOM     11  C   UNL     1       6.877   4.454  14.468  0.00  0.00    +0.000 A 
ATOM     12  C   UNL     1       6.279   3.763  13.420  0.00  0.00    +0.000 A 
ATOM     13  C   UNL     1       6.833   4.240  12.208  0.00  0.00    +0.000 A 
ATOM     14  C   UNL     1       7.738   5.204  12.564  0.00  0.00    +0.000 A 
ATOM     15  O   UNL     1       7.772   5.345  13.910  0.00  0.00    +0.000 OA
ENDBRANCH   8  11
TORSDOF 1
ENDMDL
MODEL 2
REMARK VINA RESULT:      -6.1      3.589      5.337
REMARK  Name = 
REMARK  1 active torsions:
REMARK  status: ('A' for Active; 'I' for Inactive)
REMARK    1  A    between atoms: C_8  and  C_9
REMARK                            x       y       z     vdW  Elec       q    Type
REMARK                         _______ _______ _______ _____ _____    ______ ____
ROOT
ATOM      1  O   UNL     1       7.996   4.909  18.762  0.00  0.00    +0.000 OA
ATOM      2  C   UNL     1       7.243   4.708  17.829  0.00  0.00    +0.000 C 
ATOM      3  N   UNL     1       7.553   4.583  16.500  0.00  0.00    +0.000 N 
ATOM      4  C   UNL     1       6.431   4.352  15.748  0.00  0.00    +0.000 C 
ATOM      5  S   UNL     1       6.384   4.152  14.112  0.00  0.00    +0.000 S 
ATOM      6  N   UNL     1       5.344   4.319  16.598  0.00  0.00    +0.000 N 
ATOM      7  C   UNL     1       5.760   4.527  17.885  0.00  0.00    +0.000 C 
ATOM      8  C   UNL     1       5.025   4.560  18.999  0.00  0.00    +0.000 C 
ATOM      9  H   UNL     1       8.490   4.646  16.136  0.00  0.00    +0.000 HD
ATOM     10  H   UNL     1       4.379   4.166  16.330  0.00  0.00    +0.000 HD
ENDROOT
BRANCH   8  11
ATOM     11  C   UNL     1       3.621   4.330  18.995  0.00  0.00    +0.000 A 
ATOM     12  C   UNL     1       2.809   3.879  20.029  0.00  0.00    +0.000 A 
ATOM     13  C   UNL     1       1.487   3.778  19.535  0.00  0.00    +0.000 A 
ATOM     14  C   UNL     1       1.544   4.175  18.226  0.00  0.00    +0.000 A 
ATOM     15  O   UNL     1       2.812   4.511  17.890  0.00  0.00    +0.000 OA
ENDBRANCH   8  11
TORSDOF 1
ENDMDL
MODEL 3
REMARK VINA RESULT:      -6.1      3.783      5.206
REMARK  Name = 
REMARK  1 active torsions:
REMARK  status: ('A' for Active; 'I' for Inactive)
REMARK    1  A    between atoms: C_8  and  C_9
REMARK                            x       y       z     vdW  Elec       q    Type
REMARK                         _______ _______ _______ _____ _____    ______ ____
ROOT
ATOM      1  O   UNL     1       7.576   6.312  16.390  0.00  0.00    +0.000 OA
ATOM      2  C   UNL     1       6.950   5.542  15.687  0.00  0.00    +0.000 C 
ATOM      3  N   UNL     1       7.261   5.099  14.428  0.00  0.00    +0.000 N 
ATOM      4  C   UNL     1       6.311   4.229  13.959  0.00  0.00    +0.000 C 
ATOM      5  S   UNL     1       6.320   3.484  12.489  0.00  0.00    +0.000 S 
ATOM      6  N   UNL     1       5.344   4.084  14.933  0.00  0.00    +0.000 N 
ATOM      7  C   UNL     1       5.664   4.855  16.018  0.00  0.00    +0.000 C 
ATOM      8  C   UNL     1       4.997   4.988  17.166  0.00  0.00    +0.000 C 
ATOM      9  H   UNL     1       8.088   5.378  13.925  0.00  0.00    +0.000 HD
ATOM     10  H   UNL     1       4.516   3.503  14.873  0.00  0.00    +0.000 HD
ENDROOT
BRANCH   8  11
ATOM     11  C   UNL     1       3.803   4.267  17.444  0.00  0.00    +0.000 A 
ATOM     12  C   UNL     1       2.550   4.757  17.794  0.00  0.00    +0.000 A 
ATOM     13  C   UNL     1       1.689   3.653  18.000  0.00  0.00    +0.000 A 
ATOM     14  C   UNL     1       2.447   2.537  17.762  0.00  0.00    +0.000 A 
ATOM     15  O   UNL     1       3.710   2.889  17.425  0.00  0.00    +0.000 OA
ENDBRANCH   8  11
TORSDOF 1
ENDMDL
MODEL 4
REMARK VINA RESULT:      -6.0      1.144      1.360
REMARK  Name = 
REMARK  1 active torsions:
REMARK  status: ('A' for Active; 'I' for Inactive)
REMARK    1  A    between atoms: C_8  and  C_9
REMARK                            x       y       z     vdW  Elec       q    Type
REMARK                         _______ _______ _______ _____ _____    ______ ____
ROOT
ATOM      1  O   UNL     1       7.977   5.130  19.923  0.00  0.00    +0.000 OA
ATOM      2  C   UNL     1       7.937   5.987  19.062  0.00  0.00    +0.000 C 
ATOM      3  N   UNL     1       8.239   7.319  19.177  0.00  0.00    +0.000 N 
ATOM      4  C   UNL     1       8.079   7.969  17.980  0.00  0.00    +0.000 C 
ATOM      5  S   UNL     1       8.336   9.575  17.707  0.00  0.00    +0.000 S 
ATOM      6  N   UNL     1       7.662   7.046  17.043  0.00  0.00    +0.000 N 
ATOM      7  C   UNL     1       7.553   5.813  17.628  0.00  0.00    +0.000 C 
ATOM      8  C   UNL     1       7.191   4.658  17.066  0.00  0.00    +0.000 C 
ATOM      9  H   UNL     1       8.546   7.752  20.033  0.00  0.00    +0.000 HD
ATOM     10  H   UNL     1       7.462   7.232  16.067  0.00  0.00    +0.000 HD
ENDROOT
BRANCH   8  11
ATOM     11  C   UNL     1       6.886   4.545  15.681  0.00  0.00    +0.000 A 
ATOM     12  C   UNL     1       5.936   3.741  15.061  0.00  0.00    +0.000 A 
ATOM     13  C   UNL     1       6.028   3.953  13.664  0.00  0.00    +0.000 A 
ATOM     14  C   UNL     1       7.023   4.878  13.490  0.00  0.00    +0.000 A 
ATOM     15  O   UNL     1       7.541   5.243  14.686  0.00  0.00    +0.000 OA
ENDBRANCH   8  11
TORSDOF 1
ENDMDL
MODEL 5
REMARK VINA RESULT:      -5.9      2.981      4.827
REMARK  Name = 
REMARK  1 active torsions:
REMARK  status: ('A' for Active; 'I' for Inactive)
REMARK    1  A    between atoms: C_8  and  C_9
REMARK                            x       y       z     vdW  Elec       q    Type
REMARK                         _______ _______ _______ _____ _____    ______ ____
ROOT
ATOM      1  O   UNL     1       6.573   3.949  14.606  0.00  0.00    +0.000 OA
ATOM      2  C   UNL     1       6.503   4.724  15.541  0.00  0.00    +0.000 C 
ATOM      3  N   UNL     1       7.346   5.760  15.848  0.00  0.00    +0.000 N 
ATOM      4  C   UNL     1       6.935   6.415  16.980  0.00  0.00    +0.000 C 
ATOM      5  S   UNL     1       7.681   7.709  17.677  0.00  0.00    +0.000 S 
ATOM      6  N   UNL     1       5.786   5.802  17.437  0.00  0.00    +0.000 N 
ATOM      7  C   UNL     1       5.460   4.761  16.610  0.00  0.00    +0.000 C 
ATOM      8  C   UNL     1       4.421   3.926  16.698  0.00  0.00    +0.000 C 
ATOM      9  H   UNL     1       8.155   6.004  15.301  0.00  0.00    +0.000 HD
ATOM     10  H   UNL     1       5.252   6.066  18.257  0.00  0.00    +0.000 HD
ENDROOT
BRANCH   8  11
ATOM     11  C   UNL     1       3.431   4.044  17.712  0.00  0.00    +0.000 A 
ATOM     12  C   UNL     1       2.056   3.865  17.612  0.00  0.00    +0.000 A 
ATOM     13  C   UNL     1       1.487   4.123  18.882  0.00  0.00    +0.000 A 
ATOM     14  C   UNL     1       2.534   4.441  19.705  0.00  0.00    +0.000 A 
ATOM     15  O   UNL     1       3.701   4.395  19.020  0.00  0.00    +0.000 OA
ENDBRANCH   8  11
TORSDOF 1
ENDMDL
MODEL 6
REMARK VINA RESULT:      -5.9      3.639      5.184
REMARK  Name = 
REMARK  1 active torsions:
REMARK  status: ('A' for Active; 'I' for Inactive)
REMARK    1  A    between atoms: C_8  and  C_9
REMARK                            x       y       z     vdW  Elec       q    Type
REMARK                         _______ _______ _______ _____ _____    ______ ____
ROOT
ATOM      1  O   UNL     1       7.543   6.355  16.665  0.00  0.00    +0.000 OA
ATOM      2  C   UNL     1       6.978   5.533  15.969  0.00  0.00    +0.000 C 
ATOM      3  N   UNL     1       7.216   5.226  14.655  0.00  0.00    +0.000 N 
ATOM      4  C   UNL     1       6.375   4.236  14.216  0.00  0.00    +0.000 C 
ATOM      5  S   UNL     1       6.343   3.593  12.698  0.00  0.00    +0.000 S 
ATOM      6  N   UNL     1       5.557   3.871  15.266  0.00  0.00    +0.000 N 
ATOM      7  C   UNL     1       5.865   4.619  16.371  0.00  0.00    +0.000 C 
ATOM      8  C   UNL     1       5.316   4.568  17.586  0.00  0.00    +0.000 C 
ATOM      9  H   UNL     1       7.926   5.671  14.096  0.00  0.00    +0.000 HD
ATOM     10  H   UNL     1       4.833   3.163  15.243  0.00  0.00    +0.000 HD
ENDROOT
BRANCH   8  11
ATOM     11  C   UNL     1       4.293   3.638  17.923  0.00  0.00    +0.000 A 
ATOM     12  C   UNL     1       4.157   2.872  19.075  0.00  0.00    +0.000 A 
ATOM     13  C   UNL     1       2.996   2.075  18.937  0.00  0.00    +0.000 A 
ATOM     14  C   UNL     1       2.468   2.390  17.713  0.00  0.00    +0.000 A 
ATOM     15  O   UNL     1       3.231   3.325  17.098  0.00  0.00    +0.000 OA
ENDBRANCH   8  11
TORSDOF 1
ENDMDL
MODEL 7
REMARK VINA RESULT:      -5.8      2.554      2.784
REMARK  Name = 
REMARK  1 active torsions:
REMARK  status: ('A' for Active; 'I' for Inactive)
REMARK    1  A    between atoms: C_8  and  C_9
REMARK                            x       y       z     vdW  Elec       q    Type
REMARK                         _______ _______ _______ _____ _____    ______ ____
ROOT
ATOM      1  O   UNL     1       6.975   5.336  19.859  0.00  0.00    +0.000 OA
ATOM      2  C   UNL     1       5.991   5.218  19.155  0.00  0.00    +0.000 C 
ATOM      3  N   UNL     1       4.672   5.286  19.523  0.00  0.00    +0.000 N 
ATOM      4  C   UNL     1       3.846   5.110  18.443  0.00  0.00    +0.000 C 
ATOM      5  S   UNL     1       2.198   5.117  18.472  0.00  0.00    +0.000 S 
ATOM      6  N   UNL     1       4.635   4.925  17.325  0.00  0.00    +0.000 N 
ATOM      7  C   UNL     1       5.956   4.978  17.680  0.00  0.00    +0.000 C 
ATOM      8  C   UNL     1       7.030   4.856  16.897  0.00  0.00    +0.000 C 
ATOM      9  H   UNL     1       4.362   5.451  20.467  0.00  0.00    +0.000 HD
ATOM     10  H   UNL     1       4.305   4.770  16.380  0.00  0.00    +0.000 HD
ENDROOT
BRANCH   8  11
ATOM     11  C   UNL     1       6.932   4.679  15.489  0.00  0.00    +0.000 A 
ATOM     12  C   UNL     1       6.143   3.784  14.776  0.00  0.00    +0.000 A 
ATOM     13  C   UNL     1       6.414   3.962  13.398  0.00  0.00    +0.000 A 
ATOM     14  C   UNL     1       7.350   4.959  13.326  0.00  0.00    +0.000 A 
ATOM     15  O   UNL     1       7.666   5.399  14.567  0.00  0.00    +0.000 OA
ENDBRANCH   8  11
TORSDOF 1
ENDMDL
MODEL 8
REMARK VINA RESULT:      -5.8      3.146      5.386
REMARK  Name = 
REMARK  1 active torsions:
REMARK  status: ('A' for Active; 'I' for Inactive)
REMARK    1  A    between atoms: C_8  and  C_9
REMARK                            x       y       z     vdW  Elec       q    Type
REMARK                         _______ _______ _______ _____ _____    ______ ____
ROOT
ATOM      1  O   UNL     1       7.781   7.164  17.806  0.00  0.00    +0.000 OA
ATOM      2  C   UNL     1       7.197   6.286  17.200  0.00  0.00    +0.000 C 
ATOM      3  N   UNL     1       7.357   5.906  15.893  0.00  0.00    +0.000 N 
ATOM      4  C   UNL     1       6.521   4.868  15.572  0.00  0.00    +0.000 C 
ATOM      5  S   UNL     1       6.408   4.133  14.100  0.00  0.00    +0.000 S 
ATOM      6  N   UNL     1       5.787   4.545  16.696  0.00  0.00    +0.000 N 
ATOM      7  C   UNL     1       6.145   5.366  17.731  0.00  0.00    +0.000 C 
ATOM      8  C   UNL     1       5.680   5.373  18.982  0.00  0.00    +0.000 C 
ATOM      9  H   UNL     1       8.012   6.337  15.261  0.00  0.00    +0.000 HD
ATOM     10  H   UNL     1       5.087   3.815  16.764  0.00  0.00    +0.000 HD
ENDROOT
BRANCH   8  11
ATOM     11  C   UNL     1       4.713   4.437  19.443  0.00  0.00    +0.000 A 
ATOM     12  C   UNL     1       3.403   4.666  19.847  0.00  0.00    +0.000 A 
ATOM     13  C   UNL     1       2.846   3.428  20.249  0.00  0.00    +0.000 A 
ATOM     14  C   UNL     1       3.833   2.497  20.070  0.00  0.00    +0.000 A 
ATOM     15  O   UNL     1       4.953   3.084  19.585  0.00  0.00    +0.000 OA
ENDBRANCH   8  11
TORSDOF 1
ENDMDL
MODEL 9
REMARK VINA RESULT:      -5.8      3.469      5.041
REMARK  Name = 
REMARK  1 active torsions:
REMARK  status: ('A' for Active; 'I' for Inactive)
REMARK    1  A    between atoms: C_8  and  C_9
REMARK                            x       y       z     vdW  Elec       q    Type
REMARK                         _______ _______ _______ _____ _____    ______ ____
ROOT
ATOM      1  O   UNL     1       6.534   3.990  14.848  0.00  0.00    +0.000 OA
ATOM      2  C   UNL     1       6.492   4.304  16.022  0.00  0.00    +0.000 C 
ATOM      3  N   UNL     1       7.477   4.880  16.782  0.00  0.00    +0.000 N 
ATOM      4  C   UNL     1       7.051   5.092  18.068  0.00  0.00    +0.000 C 
ATOM      5  S   UNL     1       7.940   5.758  19.286  0.00  0.00    +0.000 S 
ATOM      6  N   UNL     1       5.748   4.648  18.167  0.00  0.00    +0.000 N 
ATOM      7  C   UNL     1       5.337   4.154  16.959  0.00  0.00    +0.000 C 
ATOM      8  C   UNL     1       4.148   3.641  16.634  0.00  0.00    +0.000 C 
ATOM      9  H   UNL     1       8.388   5.119  16.428  0.00  0.00    +0.000 HD
ATOM     10  H   UNL     1       5.168   4.675  18.998  0.00  0.00    +0.000 HD
ENDROOT
BRANCH   8  11
ATOM     11  C   UNL     1       3.068   3.572  17.558  0.00  0.00    +0.000 A 
ATOM     12  C   UNL     1       2.213   2.508  17.820  0.00  0.00    +0.000 A 
ATOM     13  C   UNL     1       1.278   2.928  18.796  0.00  0.00    +0.000 A 
ATOM     14  C   UNL     1       1.603   4.225  19.094  0.00  0.00    +0.000 A 
ATOM     15  O   UNL     1       2.672   4.622  18.364  0.00  0.00    +0.000 OA
ENDBRANCH   8  11
TORSDOF 1
ENDMDL
