MODEL 1
REMARK VINA RESULT:      -7.4      0.000      0.000
REMARK  Name = 
REMARK  12 active torsions:
REMARK  status: ('A' for Active; 'I' for Inactive)
REMARK    1  A    between atoms: C_1  and  C_2
REMARK    2  A    between atoms: C_2  and  C_3
REMARK    3  A    between atoms: C_3  and  N_4
REMARK    4  A    between atoms: N_4  and  C_20
REMARK    5  A    between atoms: C_7  and  C_8
REMARK    6  A    between atoms: C_14  and  O_15
REMARK    7  A    between atoms: O_15  and  C_16
REMARK    8  A    between atoms: N_17  and  C_18
REMARK    9  A    between atoms: C_20  and  C_21
REMARK   10  A    between atoms: C_20  and  C_23
REMARK   11  A    between atoms: C_21  and  C_22
REMARK   12  A    between atoms: C_26  and  C_27
REMARK                            x       y       z     vdW  Elec       q    Type
REMARK                         _______ _______ _______ _____ _____    ______ ____
ROOT
ATOM      1  N   UNL     1       1.114   9.410  19.299  0.00  0.00    +0.000 N 
ATOM      2  C   UNL     1       1.902   8.470  18.706  0.00  0.00    +0.000 A 
ATOM      3  N   UNL     1       1.872   7.149  19.074  0.00  0.00    +0.000 NA
ATOM      4  C   UNL     1       2.839   6.565  18.380  0.00  0.00    +0.000 A 
ATOM      5  N   UNL     1       3.459   7.556  17.655  0.00  0.00    +0.000 N 
ATOM      6  C   UNL     1       4.679   7.567  16.891  0.00  0.00    +0.000 C 
ATOM      7  N   UNL     1       2.800   8.719  17.758  0.00  0.00    +0.000 NA
ENDROOT
BRANCH   4   8
ATOM      8  C   UNL     1       3.171   5.121  18.365  0.00  0.00    +0.000 A 
ATOM      9  C   UNL     1       2.340   4.205  17.689  0.00  0.00    +0.000 A 
ATOM     10  C   UNL     1       2.544   2.824  17.785  0.00  0.00    +0.000 A 
ATOM     11  C   UNL     1       3.620   2.338  18.510  0.00  0.00    +0.000 A 
ATOM     12 CL   UNL     1       3.852   0.640  18.670  0.00  0.00    +0.000 Cl
ATOM     13  C   UNL     1       4.511   3.217  19.116  0.00  0.00    +0.000 A 
ATOM     14  C   UNL     1       4.305   4.607  19.037  0.00  0.00    +0.000 A 
BRANCH  14  15
ATOM     15  O   UNL     1       5.140   5.487  19.683  0.00  0.00    +0.000 OA
ATOM     16  C   UNL     1       6.516   5.424  19.310  0.00  0.00    +0.000 C 
ENDBRANCH  14  15
ENDBRANCH   4   8
BRANCH   1  17
ATOM     17  C   UNL     1       0.453   9.156  20.581  0.00  0.00    +0.000 C 
BRANCH  17  19
ATOM     18  C   UNL     1      -0.294  10.627  22.480  0.00  0.00    +0.000 C 
ATOM     19  C   UNL     1       0.908  10.046  21.746  0.00  0.00    +0.000 C 
ENDBRANCH  17  19
ENDBRANCH   1  17
BRANCH   1  20
ATOM     20  C   UNL     1       0.710  10.592  18.487  0.00  0.00    +0.000 C 
BRANCH  20  21
ATOM     21  C   UNL     1      -0.833  10.764  18.377  0.00  0.00    +0.000 A 
ATOM     22  C   UNL     1      -1.633   9.934  17.569  0.00  0.00    +0.000 A 
ATOM     23  C   UNL     1      -3.022  10.101  17.484  0.00  0.00    +0.000 A 
ATOM     24  C   UNL     1      -3.664  11.109  18.205  0.00  0.00    +0.000 A 
ATOM     25  C   UNL     1      -2.884  11.939  19.023  0.00  0.00    +0.000 A 
ATOM     26  C   UNL     1      -1.495  11.754  19.125  0.00  0.00    +0.000 A 
BRANCH  24  27
ATOM     27  C   UNL     1      -5.156  11.296  18.099  0.00  0.00    +0.000 C 
ATOM     28  F   UNL     1      -5.629  12.341  18.839  0.00  0.00    +0.000 F 
ATOM     29  F   UNL     1      -5.564  11.537  16.823  0.00  0.00    +0.000 F 
ATOM     30  F   UNL     1      -5.854  10.204  18.517  0.00  0.00    +0.000 F 
ENDBRANCH  24  27
ENDBRANCH  20  21
BRANCH  20  31
ATOM     31  C   UNL     1       1.390  11.891  18.994  0.00  0.00    +0.000 C 
ATOM     32  C   UNL     1       2.520  12.473  18.160  0.00  0.00    +0.000 C 
ENDBRANCH  20  31
ENDBRANCH   1  20
TORSDOF 8
ENDMDL
MODEL 2
REMARK VINA RESULT:      -6.8      3.184      4.679
REMARK  Name = 
REMARK  12 active torsions:
REMARK  status: ('A' for Active; 'I' for Inactive)
REMARK    1  A    between atoms: C_1  and  C_2
REMARK    2  A    between atoms: C_2  and  C_3
REMARK    3  A    between atoms: C_3  and  N_4
REMARK    4  A    between atoms: N_4  and  C_20
REMARK    5  A    between atoms: C_7  and  C_8
REMARK    6  A    between atoms: C_14  and  O_15
REMARK    7  A    between atoms: O_15  and  C_16
REMARK    8  A    between atoms: N_17  and  C_18
REMARK    9  A    between atoms: C_20  and  C_21
REMARK   10  A    between atoms: C_20  and  C_23
REMARK   11  A    between atoms: C_21  and  C_22
REMARK   12  A    between atoms: C_26  and  C_27
REMARK                            x       y       z     vdW  Elec       q    Type
REMARK                         _______ _______ _______ _____ _____    ______ ____
ROOT
ATOM      1  N   UNL     1       0.787   9.657  19.476  0.00  0.00    +0.000 N 
ATOM      2  C   UNL     1       1.544   8.524  19.492  0.00  0.00    +0.000 A 
ATOM      3  N   UNL     1       2.202   8.065  18.380  0.00  0.00    +0.000 NA
ATOM      4  C   UNL     1       2.725   6.899  18.733  0.00  0.00    +0.000 A 
ATOM      5  N   UNL     1       2.327   6.663  20.028  0.00  0.00    +0.000 N 
ATOM      6  C   UNL     1       2.411   5.491  20.860  0.00  0.00    +0.000 C 
ATOM      7  N   UNL     1       1.697   7.727  20.545  0.00  0.00    +0.000 NA
ENDROOT
BRANCH   4   8
ATOM      8  C   UNL     1       3.596   6.032  17.905  0.00  0.00    +0.000 A 
ATOM      9  C   UNL     1       4.878   6.470  17.516  0.00  0.00    +0.000 A 
ATOM     10  C   UNL     1       5.659   5.741  16.613  0.00  0.00    +0.000 A 
ATOM     11  C   UNL     1       5.194   4.528  16.129  0.00  0.00    +0.000 A 
ATOM     12 CL   UNL     1       6.127   3.645  14.984  0.00  0.00    +0.000 Cl
ATOM     13  C   UNL     1       3.972   4.023  16.561  0.00  0.00    +0.000 A 
ATOM     14  C   UNL     1       3.174   4.758  17.457  0.00  0.00    +0.000 A 
BRANCH  14  15
ATOM     15  O   UNL     1       1.936   4.303  17.843  0.00  0.00    +0.000 OA
ATOM     16  C   UNL     1       1.854   2.911  18.148  0.00  0.00    +0.000 C 
ENDBRANCH  14  15
ENDBRANCH   4   8
BRANCH   1  17
ATOM     17  C   UNL     1       0.336  10.258  18.218  0.00  0.00    +0.000 C 
BRANCH  17  19
ATOM     18  C   UNL     1      -1.841  11.410  17.709  0.00  0.00    +0.000 C 
ATOM     19  C   UNL     1      -1.149  10.064  17.888  0.00  0.00    +0.000 C 
ENDBRANCH  17  19
ENDBRANCH   1  17
BRANCH   1  20
ATOM     20  C   UNL     1       0.661  10.429  20.744  0.00  0.00    +0.000 C 
BRANCH  20  21
ATOM     21  C   UNL     1       0.662  11.970  20.528  0.00  0.00    +0.000 A 
ATOM     22  C   UNL     1       1.783  12.666  20.038  0.00  0.00    +0.000 A 
ATOM     23  C   UNL     1       1.766  14.054  19.847  0.00  0.00    +0.000 A 
ATOM     24  C   UNL     1       0.623  14.800  20.141  0.00  0.00    +0.000 A 
ATOM     25  C   UNL     1      -0.506  14.122  20.621  0.00  0.00    +0.000 A 
ATOM     26  C   UNL     1      -0.494  12.727  20.789  0.00  0.00    +0.000 A 
BRANCH  24  27
ATOM     27  C   UNL     1       0.613  16.296  19.949  0.00  0.00    +0.000 C 
ATOM     28  F   UNL     1       1.474  16.958  20.776  0.00  0.00    +0.000 F 
ATOM     29  F   UNL     1       0.962  16.663  18.686  0.00  0.00    +0.000 F 
ATOM     30  F   UNL     1      -0.611  16.847  20.175  0.00  0.00    +0.000 F 
ENDBRANCH  24  27
ENDBRANCH  20  21
BRANCH  20  31
ATOM     31  C   UNL     1      -0.572   9.973  21.569  0.00  0.00    +0.000 C 
ATOM     32  C   UNL     1      -0.363   9.656  23.042  0.00  0.00    +0.000 C 
ENDBRANCH  20  31
ENDBRANCH   1  20
TORSDOF 8
ENDMDL
MODEL 3
REMARK VINA RESULT:      -6.7      3.428      4.584
REMARK  Name = 
REMARK  12 active torsions:
REMARK  status: ('A' for Active; 'I' for Inactive)
REMARK    1  A    between atoms: C_1  and  C_2
REMARK    2  A    between atoms: C_2  and  C_3
REMARK    3  A    between atoms: C_3  and  N_4
REMARK    4  A    between atoms: N_4  and  C_20
REMARK    5  A    between atoms: C_7  and  C_8
REMARK    6  A    between atoms: C_14  and  O_15
REMARK    7  A    between atoms: O_15  and  C_16
REMARK    8  A    between atoms: N_17  and  C_18
REMARK    9  A    between atoms: C_20  and  C_21
REMARK   10  A    between atoms: C_20  and  C_23
REMARK   11  A    between atoms: C_21  and  C_22
REMARK   12  A    between atoms: C_26  and  C_27
REMARK                            x       y       z     vdW  Elec       q    Type
REMARK                         _______ _______ _______ _____ _____    ______ ____
ROOT
ATOM      1  N   UNL     1       1.176   9.274  20.281  0.00  0.00    +0.000 N 
ATOM      2  C   UNL     1       1.788   8.372  19.463  0.00  0.00    +0.000 A 
ATOM      3  N   UNL     1       1.940   7.053  19.808  0.00  0.00    +0.000 NA
ATOM      4  C   UNL     1       2.672   6.516  18.842  0.00  0.00    +0.000 A 
ATOM      5  N   UNL     1       2.985   7.533  17.971  0.00  0.00    +0.000 N 
ATOM      6  C   UNL     1       3.906   7.602  16.866  0.00  0.00    +0.000 C 
ATOM      7  N   UNL     1       2.334   8.661  18.286  0.00  0.00    +0.000 NA
ENDROOT
BRANCH   4   8
ATOM      8  C   UNL     1       3.055   5.091  18.710  0.00  0.00    +0.000 A 
ATOM      9  C   UNL     1       2.159   4.160  18.146  0.00  0.00    +0.000 A 
ATOM     10  C   UNL     1       2.431   2.788  18.146  0.00  0.00    +0.000 A 
ATOM     11  C   UNL     1       3.635   2.328  18.658  0.00  0.00    +0.000 A 
ATOM     12 CL   UNL     1       3.960   0.639  18.704  0.00  0.00    +0.000 Cl
ATOM     13  C   UNL     1       4.579   3.227  19.141  0.00  0.00    +0.000 A 
ATOM     14  C   UNL     1       4.306   4.607  19.158  0.00  0.00    +0.000 A 
BRANCH  14  15
ATOM     15  O   UNL     1       5.204   5.502  19.690  0.00  0.00    +0.000 OA
ATOM     16  C   UNL     1       6.505   5.499  19.106  0.00  0.00    +0.000 C 
ENDBRANCH  14  15
ENDBRANCH   4   8
BRANCH   1  17
ATOM     17  C   UNL     1       0.960   8.994  21.702  0.00  0.00    +0.000 C 
BRANCH  17  19
ATOM     18  C   UNL     1      -0.748  10.122  23.165  0.00  0.00    +0.000 C 
ATOM     19  C   UNL     1      -0.504   9.002  22.161  0.00  0.00    +0.000 C 
ENDBRANCH  17  19
ENDBRANCH   1  17
BRANCH   1  20
ATOM     20  C   UNL     1       0.481  10.429  19.648  0.00  0.00    +0.000 C 
BRANCH  20  21
ATOM     21  C   UNL     1       1.376  11.697  19.532  0.00  0.00    +0.000 A 
ATOM     22  C   UNL     1       1.987  12.087  18.325  0.00  0.00    +0.000 A 
ATOM     23  C   UNL     1       2.788  13.233  18.238  0.00  0.00    +0.000 A 
ATOM     24  C   UNL     1       3.010  14.034  19.359  0.00  0.00    +0.000 A 
ATOM     25  C   UNL     1       2.401  13.667  20.568  0.00  0.00    +0.000 A 
ATOM     26  C   UNL     1       1.579  12.531  20.647  0.00  0.00    +0.000 A 
BRANCH  24  27
ATOM     27  C   UNL     1       3.885  15.259  19.266  0.00  0.00    +0.000 C 
ATOM     28  F   UNL     1       3.902  15.824  18.024  0.00  0.00    +0.000 F 
ATOM     29  F   UNL     1       3.491  16.249  20.114  0.00  0.00    +0.000 F 
ATOM     30  F   UNL     1       5.186  15.000  19.570  0.00  0.00    +0.000 F 
ENDBRANCH  24  27
ENDBRANCH  20  21
BRANCH  20  31
ATOM     31  C   UNL     1      -0.134  10.042  18.276  0.00  0.00    +0.000 C 
ATOM     32  C   UNL     1      -1.609  10.337  18.051  0.00  0.00    +0.000 C 
ENDBRANCH  20  31
ENDBRANCH   1  20
TORSDOF 8
ENDMDL
MODEL 4
REMARK VINA RESULT:      -6.7      0.861      1.228
REMARK  Name = 
REMARK  12 active torsions:
REMARK  status: ('A' for Active; 'I' for Inactive)
REMARK    1  A    between atoms: C_1  and  C_2
REMARK    2  A    between atoms: C_2  and  C_3
REMARK    3  A    between atoms: C_3  and  N_4
REMARK    4  A    between atoms: N_4  and  C_20
REMARK    5  A    between atoms: C_7  and  C_8
REMARK    6  A    between atoms: C_14  and  O_15
REMARK    7  A    between atoms: O_15  and  C_16
REMARK    8  A    between atoms: N_17  and  C_18
REMARK    9  A    between atoms: C_20  and  C_21
REMARK   10  A    between atoms: C_20  and  C_23
REMARK   11  A    between atoms: C_21  and  C_22
REMARK   12  A    between atoms: C_26  and  C_27
REMARK                            x       y       z     vdW  Elec       q    Type
REMARK                         _______ _______ _______ _____ _____    ______ ____
ROOT
ATOM      1  N   UNL     1       1.418   9.952  20.108  0.00  0.00    +0.000 N 
ATOM      2  C   UNL     1       1.908   8.942  19.337  0.00  0.00    +0.000 A 
ATOM      3  N   UNL     1       1.813   7.624  19.705  0.00  0.00    +0.000 NA
ATOM      4  C   UNL     1       2.493   6.949  18.789  0.00  0.00    +0.000 A 
ATOM      5  N   UNL     1       3.022   7.879  17.924  0.00  0.00    +0.000 N 
ATOM      6  C   UNL     1       3.998   7.767  16.872  0.00  0.00    +0.000 C 
ATOM      7  N   UNL     1       2.557   9.109  18.188  0.00  0.00    +0.000 NA
ENDROOT
BRANCH   4   8
ATOM      8  C   UNL     1       2.633   5.477  18.695  0.00  0.00    +0.000 A 
ATOM      9  C   UNL     1       1.583   4.692  18.177  0.00  0.00    +0.000 A 
ATOM     10  C   UNL     1       1.625   3.294  18.217  0.00  0.00    +0.000 A 
ATOM     11  C   UNL     1       2.748   2.657  18.721  0.00  0.00    +0.000 A 
ATOM     12 CL   UNL     1       2.791   0.939  18.815  0.00  0.00    +0.000 Cl
ATOM     13  C   UNL     1       3.839   3.400  19.158  0.00  0.00    +0.000 A 
ATOM     14  C   UNL     1       3.798   4.806  19.135  0.00  0.00    +0.000 A 
BRANCH  14  15
ATOM     15  O   UNL     1       4.842   5.556  19.622  0.00  0.00    +0.000 OA
ATOM     16  C   UNL     1       6.122   5.278  19.057  0.00  0.00    +0.000 C 
ENDBRANCH  14  15
ENDBRANCH   4   8
BRANCH   1  17
ATOM     17  C   UNL     1       1.081   9.744  21.518  0.00  0.00    +0.000 C 
BRANCH  17  19
ATOM     18  C   UNL     1      -0.891  10.164  23.022  0.00  0.00    +0.000 C 
ATOM     19  C   UNL     1      -0.387   9.401  21.803  0.00  0.00    +0.000 C 
ENDBRANCH  17  19
ENDBRANCH   1  17
BRANCH   1  20
ATOM     20  C   UNL     1       0.965  11.195  19.423  0.00  0.00    +0.000 C 
BRANCH  20  21
ATOM     21  C   UNL     1      -0.534  11.158  19.007  0.00  0.00    +0.000 A 
ATOM     22  C   UNL     1      -1.491  12.042  19.540  0.00  0.00    +0.000 A 
ATOM     23  C   UNL     1      -2.837  11.996  19.153  0.00  0.00    +0.000 A 
ATOM     24  C   UNL     1      -3.277  11.059  18.217  0.00  0.00    +0.000 A 
ATOM     25  C   UNL     1      -2.336  10.176  17.668  0.00  0.00    +0.000 A 
ATOM     26  C   UNL     1      -0.983  10.240  18.040  0.00  0.00    +0.000 A 
BRANCH  24  27
ATOM     27  C   UNL     1      -4.729  11.002  17.813  0.00  0.00    +0.000 C 
ATOM     28  F   UNL     1      -5.431  12.126  18.141  0.00  0.00    +0.000 F 
ATOM     29  F   UNL     1      -4.894  10.845  16.471  0.00  0.00    +0.000 F 
ATOM     30  F   UNL     1      -5.397   9.969  18.396  0.00  0.00    +0.000 F 
ENDBRANCH  24  27
ENDBRANCH  20  21
BRANCH  20  31
ATOM     31  C   UNL     1       1.290  12.459  20.263  0.00  0.00    +0.000 C 
ATOM     32  C   UNL     1       1.961  13.628  19.557  0.00  0.00    +0.000 C 
ENDBRANCH  20  31
ENDBRANCH   1  20
TORSDOF 8
ENDMDL
MODEL 5
REMARK VINA RESULT:      -6.6      3.406      4.649
REMARK  Name = 
REMARK  12 active torsions:
REMARK  status: ('A' for Active; 'I' for Inactive)
REMARK    1  A    between atoms: C_1  and  C_2
REMARK    2  A    between atoms: C_2  and  C_3
REMARK    3  A    between atoms: C_3  and  N_4
REMARK    4  A    between atoms: N_4  and  C_20
REMARK    5  A    between atoms: C_7  and  C_8
REMARK    6  A    between atoms: C_14  and  O_15
REMARK    7  A    between atoms: O_15  and  C_16
REMARK    8  A    between atoms: N_17  and  C_18
REMARK    9  A    between atoms: C_20  and  C_21
REMARK   10  A    between atoms: C_20  and  C_23
REMARK   11  A    between atoms: C_21  and  C_22
REMARK   12  A    between atoms: C_26  and  C_27
REMARK                            x       y       z     vdW  Elec       q    Type
REMARK                         _______ _______ _______ _____ _____    ______ ____
ROOT
ATOM      1  N   UNL     1       1.110   9.391  20.437  0.00  0.00    +0.000 N 
ATOM      2  C   UNL     1       1.696   8.494  19.596  0.00  0.00    +0.000 A 
ATOM      3  N   UNL     1       1.848   7.171  19.923  0.00  0.00    +0.000 NA
ATOM      4  C   UNL     1       2.554   6.639  18.935  0.00  0.00    +0.000 A 
ATOM      5  N   UNL     1       2.853   7.664  18.067  0.00  0.00    +0.000 N 
ATOM      6  C   UNL     1       3.748   7.739  16.942  0.00  0.00    +0.000 C 
ATOM      7  N   UNL     1       2.216   8.793  18.409  0.00  0.00    +0.000 NA
ENDROOT
BRANCH   4   8
ATOM      8  C   UNL     1       2.925   5.214  18.779  0.00  0.00    +0.000 A 
ATOM      9  C   UNL     1       1.973   4.273  18.335  0.00  0.00    +0.000 A 
ATOM     10  C   UNL     1       2.249   2.901  18.323  0.00  0.00    +0.000 A 
ATOM     11  C   UNL     1       3.506   2.452  18.698  0.00  0.00    +0.000 A 
ATOM     12 CL   UNL     1       3.841   0.764  18.730  0.00  0.00    +0.000 Cl
ATOM     13  C   UNL     1       4.497   3.360  19.056  0.00  0.00    +0.000 A 
ATOM     14  C   UNL     1       4.222   4.739  19.085  0.00  0.00    +0.000 A 
BRANCH  14  15
ATOM     15  O   UNL     1       5.171   5.644  19.498  0.00  0.00    +0.000 OA
ATOM     16  C   UNL     1       6.517   5.342  19.132  0.00  0.00    +0.000 C 
ENDBRANCH  14  15
ENDBRANCH   4   8
BRANCH   1  17
ATOM     17  C   UNL     1       0.924   9.098  21.860  0.00  0.00    +0.000 C 
BRANCH  17  19
ATOM     18  C   UNL     1      -0.843  10.281  23.202  0.00  0.00    +0.000 C 
ATOM     19  C   UNL     1      -0.531   9.062  22.343  0.00  0.00    +0.000 C 
ENDBRANCH  17  19
ENDBRANCH   1  17
BRANCH   1  20
ATOM     20  C   UNL     1       0.407  10.557  19.832  0.00  0.00    +0.000 C 
BRANCH  20  21
ATOM     21  C   UNL     1       1.321  11.806  19.664  0.00  0.00    +0.000 A 
ATOM     22  C   UNL     1       1.632  12.668  20.733  0.00  0.00    +0.000 A 
ATOM     23  C   UNL     1       2.459  13.786  20.564  0.00  0.00    +0.000 A 
ATOM     24  C   UNL     1       3.005  14.086  19.316  0.00  0.00    +0.000 A 
ATOM     25  C   UNL     1       2.714  13.234  18.241  0.00  0.00    +0.000 A 
ATOM     26  C   UNL     1       1.905  12.100  18.418  0.00  0.00    +0.000 A 
BRANCH  24  27
ATOM     27  C   UNL     1       3.882  15.300  19.134  0.00  0.00    +0.000 C 
ATOM     28  F   UNL     1       5.214  15.034  19.261  0.00  0.00    +0.000 F 
ATOM     29  F   UNL     1       3.737  15.871  17.907  0.00  0.00    +0.000 F 
ATOM     30  F   UNL     1       3.615  16.282  20.039  0.00  0.00    +0.000 F 
ENDBRANCH  24  27
ENDBRANCH  20  21
BRANCH  20  31
ATOM     31  C   UNL     1      -0.284  10.176  18.496  0.00  0.00    +0.000 C 
ATOM     32  C   UNL     1      -1.770  10.469  18.356  0.00  0.00    +0.000 C 
ENDBRANCH  20  31
ENDBRANCH   1  20
TORSDOF 8
ENDMDL
MODEL 6
REMARK VINA RESULT:      -6.6      3.262      4.852
REMARK  Name = 
REMARK  12 active torsions:
REMARK  status: ('A' for Active; 'I' for Inactive)
REMARK    1  A    between atoms: C_1  and  C_2
REMARK    2  A    between atoms: C_2  and  C_3
REMARK    3  A    between atoms: C_3  and  N_4
REMARK    4  A    between atoms: N_4  and  C_20
REMARK    5  A    between atoms: C_7  and  C_8
REMARK    6  A    between atoms: C_14  and  O_15
REMARK    7  A    between atoms: O_15  and  C_16
REMARK    8  A    between atoms: N_17  and  C_18
REMARK    9  A    between atoms: C_20  and  C_21
REMARK   10  A    between atoms: C_20  and  C_23
REMARK   11  A    between atoms: C_21  and  C_22
REMARK   12  A    between atoms: C_26  and  C_27
REMARK                            x       y       z     vdW  Elec       q    Type
REMARK                         _______ _______ _______ _____ _____    ______ ____
ROOT
ATOM      1  N   UNL     1       0.729   9.708  19.626  0.00  0.00    +0.000 N 
ATOM      2  C   UNL     1       1.483   8.574  19.625  0.00  0.00    +0.000 A 
ATOM      3  N   UNL     1       2.117   8.115  18.500  0.00  0.00    +0.000 NA
ATOM      4  C   UNL     1       2.645   6.947  18.840  0.00  0.00    +0.000 A 
ATOM      5  N   UNL     1       2.271   6.710  20.143  0.00  0.00    +0.000 N 
ATOM      6  C   UNL     1       2.369   5.536  20.971  0.00  0.00    +0.000 C 
ATOM      7  N   UNL     1       1.655   7.775  20.674  0.00  0.00    +0.000 NA
ENDROOT
BRANCH   4   8
ATOM      8  C   UNL     1       3.496   6.079  17.994  0.00  0.00    +0.000 A 
ATOM      9  C   UNL     1       4.783   6.503  17.604  0.00  0.00    +0.000 A 
ATOM     10  C   UNL     1       5.546   5.775  16.685  0.00  0.00    +0.000 A 
ATOM     11  C   UNL     1       5.059   4.577  16.185  0.00  0.00    +0.000 A 
ATOM     12 CL   UNL     1       5.971   3.697  15.021  0.00  0.00    +0.000 Cl
ATOM     13  C   UNL     1       3.832   4.085  16.617  0.00  0.00    +0.000 A 
ATOM     14  C   UNL     1       3.052   4.819  17.529  0.00  0.00    +0.000 A 
BRANCH  14  15
ATOM     15  O   UNL     1       1.809   4.377  17.917  0.00  0.00    +0.000 OA
ATOM     16  C   UNL     1       1.711   2.987  18.221  0.00  0.00    +0.000 C 
ENDBRANCH  14  15
ENDBRANCH   4   8
BRANCH   1  17
ATOM     17  C   UNL     1       0.255  10.313  18.379  0.00  0.00    +0.000 C 
BRANCH  17  19
ATOM     18  C   UNL     1      -1.790   9.809  17.005  0.00  0.00    +0.000 C 
ATOM     19  C   UNL     1      -1.265  10.487  18.265  0.00  0.00    +0.000 C 
ENDBRANCH  17  19
ENDBRANCH   1  17
BRANCH   1  20
ATOM     20  C   UNL     1       0.630  10.479  20.898  0.00  0.00    +0.000 C 
BRANCH  20  21
ATOM     21  C   UNL     1       0.687  12.020  20.689  0.00  0.00    +0.000 A 
ATOM     22  C   UNL     1      -0.422  12.857  20.913  0.00  0.00    +0.000 A 
ATOM     23  C   UNL     1      -0.353  14.244  20.723  0.00  0.00    +0.000 A 
ATOM     24  C   UNL     1       0.832  14.846  20.297  0.00  0.00    +0.000 A 
ATOM     25  C   UNL     1       1.950  14.029  20.078  0.00  0.00    +0.000 A 
ATOM     26  C   UNL     1       1.885  12.642  20.293  0.00  0.00    +0.000 A 
BRANCH  24  27
ATOM     27  C   UNL     1       0.899  16.336  20.079  0.00  0.00    +0.000 C 
ATOM     28  F   UNL     1       0.612  16.713  18.799  0.00  0.00    +0.000 F 
ATOM     29  F   UNL     1       0.026  17.021  20.867  0.00  0.00    +0.000 F 
ATOM     30  F   UNL     1       2.130  16.853  20.347  0.00  0.00    +0.000 F 
ENDBRANCH  24  27
ENDBRANCH  20  21
BRANCH  20  31
ATOM     31  C   UNL     1      -0.619  10.064  21.720  0.00  0.00    +0.000 C 
ATOM     32  C   UNL     1      -0.446   9.855  23.217  0.00  0.00    +0.000 C 
ENDBRANCH  20  31
ENDBRANCH   1  20
TORSDOF 8
ENDMDL
MODEL 7
REMARK VINA RESULT:      -6.6      5.873      9.691
REMARK  Name = 
REMARK  12 active torsions:
REMARK  status: ('A' for Active; 'I' for Inactive)
REMARK    1  A    between atoms: C_1  and  C_2
REMARK    2  A    between atoms: C_2  and  C_3
REMARK    3  A    between atoms: C_3  and  N_4
REMARK    4  A    between atoms: N_4  and  C_20
REMARK    5  A    between atoms: C_7  and  C_8
REMARK    6  A    between atoms: C_14  and  O_15
REMARK    7  A    between atoms: O_15  and  C_16
REMARK    8  A    between atoms: N_17  and  C_18
REMARK    9  A    between atoms: C_20  and  C_21
REMARK   10  A    between atoms: C_20  and  C_23
REMARK   11  A    between atoms: C_21  and  C_22
REMARK   12  A    between atoms: C_26  and  C_27
REMARK                            x       y       z     vdW  Elec       q    Type
REMARK                         _______ _______ _______ _____ _____    ______ ____
ROOT
ATOM      1  N   UNL     1      -0.464  11.339  19.360  0.00  0.00    +0.000 N 
ATOM      2  C   UNL     1      -1.029  12.126  20.318  0.00  0.00    +0.000 A 
ATOM      3  N   UNL     1      -2.336  11.984  20.708  0.00  0.00    +0.000 NA
ATOM      4  C   UNL     1      -2.565  12.979  21.553  0.00  0.00    +0.000 A 
ATOM      5  N   UNL     1      -1.409  13.723  21.610  0.00  0.00    +0.000 N 
ATOM      6  C   UNL     1      -1.123  15.011  22.187  0.00  0.00    +0.000 C 
ATOM      7  N   UNL     1      -0.413  13.126  20.942  0.00  0.00    +0.000 NA
ENDROOT
BRANCH   4   8
ATOM      8  C   UNL     1      -3.812  13.227  22.313  0.00  0.00    +0.000 A 
ATOM      9  C   UNL     1      -3.951  12.750  23.632  0.00  0.00    +0.000 A 
ATOM     10  C   UNL     1      -5.168  12.836  24.318  0.00  0.00    +0.000 A 
ATOM     11  C   UNL     1      -6.252  13.457  23.716  0.00  0.00    +0.000 A 
ATOM     12 CL   UNL     1      -7.764  13.528  24.533  0.00  0.00    +0.000 Cl
ATOM     13  C   UNL     1      -6.123  14.018  22.450  0.00  0.00    +0.000 A 
ATOM     14  C   UNL     1      -4.907  13.922  21.748  0.00  0.00    +0.000 A 
BRANCH  14  15
ATOM     15  O   UNL     1      -4.784  14.415  20.471  0.00  0.00    +0.000 OA
ATOM     16  C   UNL     1      -5.965  14.374  19.672  0.00  0.00    +0.000 C 
ENDBRANCH  14  15
ENDBRANCH   4   8
BRANCH   1  17
ATOM     17  C   UNL     1      -1.283  10.542  18.443  0.00  0.00    +0.000 C 
BRANCH  17  19
ATOM     18  C   UNL     1      -2.538  10.381  16.270  0.00  0.00    +0.000 C 
ATOM     19  C   UNL     1      -1.972  11.329  17.320  0.00  0.00    +0.000 C 
ENDBRANCH  17  19
ENDBRANCH   1  17
BRANCH   1  20
ATOM     20  C   UNL     1       1.002  11.085  19.442  0.00  0.00    +0.000 C 
BRANCH  20  21
ATOM     21  C   UNL     1       1.355   9.581  19.626  0.00  0.00    +0.000 A 
ATOM     22  C   UNL     1       1.064   8.871  20.806  0.00  0.00    +0.000 A 
ATOM     23  C   UNL     1       1.387   7.516  20.953  0.00  0.00    +0.000 A 
ATOM     24  C   UNL     1       2.018   6.818  19.922  0.00  0.00    +0.000 A 
ATOM     25  C   UNL     1       2.307   7.506  18.735  0.00  0.00    +0.000 A 
ATOM     26  C   UNL     1       1.960   8.858  18.581  0.00  0.00    +0.000 A 
BRANCH  24  27
ATOM     27  C   UNL     1       2.378   5.363  20.090  0.00  0.00    +0.000 C 
ATOM     28  F   UNL     1       1.577   4.517  19.379  0.00  0.00    +0.000 F 
ATOM     29  F   UNL     1       3.650   5.090  19.687  0.00  0.00    +0.000 F 
ATOM     30  F   UNL     1       2.297   4.946  21.383  0.00  0.00    +0.000 F 
ENDBRANCH  24  27
ENDBRANCH  20  21
BRANCH  20  31
ATOM     31  C   UNL     1       1.756  11.702  18.235  0.00  0.00    +0.000 C 
ATOM     32  C   UNL     1       1.919  13.214  18.196  0.00  0.00    +0.000 C 
ENDBRANCH  20  31
ENDBRANCH   1  20
TORSDOF 8
ENDMDL
MODEL 8
REMARK VINA RESULT:      -6.5      5.817      9.592
REMARK  Name = 
REMARK  12 active torsions:
REMARK  status: ('A' for Active; 'I' for Inactive)
REMARK    1  A    between atoms: C_1  and  C_2
REMARK    2  A    between atoms: C_2  and  C_3
REMARK    3  A    between atoms: C_3  and  N_4
REMARK    4  A    between atoms: N_4  and  C_20
REMARK    5  A    between atoms: C_7  and  C_8
REMARK    6  A    between atoms: C_14  and  O_15
REMARK    7  A    between atoms: O_15  and  C_16
REMARK    8  A    between atoms: N_17  and  C_18
REMARK    9  A    between atoms: C_20  and  C_21
REMARK   10  A    between atoms: C_20  and  C_23
REMARK   11  A    between atoms: C_21  and  C_22
REMARK   12  A    between atoms: C_26  and  C_27
REMARK                            x       y       z     vdW  Elec       q    Type
REMARK                         _______ _______ _______ _____ _____    ______ ____
ROOT
ATOM      1  N   UNL     1      -0.303  11.229  19.357  0.00  0.00    +0.000 N 
ATOM      2  C   UNL     1      -0.841  11.990  20.350  0.00  0.00    +0.000 A 
ATOM      3  N   UNL     1      -2.161  11.900  20.710  0.00  0.00    +0.000 NA
ATOM      4  C   UNL     1      -2.351  12.857  21.608  0.00  0.00    +0.000 A 
ATOM      5  N   UNL     1      -1.157  13.530  21.726  0.00  0.00    +0.000 N 
ATOM      6  C   UNL     1      -0.812  14.765  22.381  0.00  0.00    +0.000 C 
ATOM      7  N   UNL     1      -0.183  12.917  21.040  0.00  0.00    +0.000 NA
ENDROOT
BRANCH   4   8
ATOM      8  C   UNL     1      -3.597  13.131  22.362  0.00  0.00    +0.000 A 
ATOM      9  C   UNL     1      -3.784  12.594  23.651  0.00  0.00    +0.000 A 
ATOM     10  C   UNL     1      -5.007  12.709  24.322  0.00  0.00    +0.000 A 
ATOM     11  C   UNL     1      -6.045  13.417  23.738  0.00  0.00    +0.000 A 
ATOM     12 CL   UNL     1      -7.567  13.526  24.535  0.00  0.00    +0.000 Cl
ATOM     13  C   UNL     1      -5.865  14.035  22.505  0.00  0.00    +0.000 A 
ATOM     14  C   UNL     1      -4.644  13.911  21.818  0.00  0.00    +0.000 A 
BRANCH  14  15
ATOM     15  O   UNL     1      -4.472  14.463  20.570  0.00  0.00    +0.000 OA
ATOM     16  C   UNL     1      -5.442  15.435  20.182  0.00  0.00    +0.000 C 
ENDBRANCH  14  15
ENDBRANCH   4   8
BRANCH   1  17
ATOM     17  C   UNL     1      -1.147  10.532  18.384  0.00  0.00    +0.000 C 
BRANCH  17  19
ATOM     18  C   UNL     1      -2.515  10.593  16.274  0.00  0.00    +0.000 C 
ATOM     19  C   UNL     1      -1.858  11.431  17.364  0.00  0.00    +0.000 C 
ENDBRANCH  17  19
ENDBRANCH   1  17
BRANCH   1  20
ATOM     20  C   UNL     1       1.145  10.889  19.448  0.00  0.00    +0.000 C 
BRANCH  20  21
ATOM     21  C   UNL     1       1.408   9.367  19.644  0.00  0.00    +0.000 A 
ATOM     22  C   UNL     1       2.003   8.566  18.650  0.00  0.00    +0.000 A 
ATOM     23  C   UNL     1       2.235   7.198  18.844  0.00  0.00    +0.000 A 
ATOM     24  C   UNL     1       1.877   6.578  20.042  0.00  0.00    +0.000 A 
ATOM     25  C   UNL     1       1.293   7.362  21.047  0.00  0.00    +0.000 A 
ATOM     26  C   UNL     1       1.083   8.738  20.859  0.00  0.00    +0.000 A 
BRANCH  24  27
ATOM     27  C   UNL     1       2.114   5.102  20.242  0.00  0.00    +0.000 C 
ATOM     28  F   UNL     1       2.448   4.771  21.523  0.00  0.00    +0.000 F 
ATOM     29  F   UNL     1       1.019   4.351  19.942  0.00  0.00    +0.000 F 
ATOM     30  F   UNL     1       3.122   4.621  19.463  0.00  0.00    +0.000 F 
ENDBRANCH  24  27
ENDBRANCH  20  21
BRANCH  20  31
ATOM     31  C   UNL     1       1.939  11.451  18.239  0.00  0.00    +0.000 C 
ATOM     32  C   UNL     1       2.100  12.959  18.135  0.00  0.00    +0.000 C 
ENDBRANCH  20  31
ENDBRANCH   1  20
TORSDOF 8
ENDMDL
MODEL 9
REMARK VINA RESULT:      -6.5      0.976      1.467
REMARK  Name = 
REMARK  12 active torsions:
REMARK  status: ('A' for Active; 'I' for Inactive)
REMARK    1  A    between atoms: C_1  and  C_2
REMARK    2  A    between atoms: C_2  and  C_3
REMARK    3  A    between atoms: C_3  and  N_4
REMARK    4  A    between atoms: N_4  and  C_20
REMARK    5  A    between atoms: C_7  and  C_8
REMARK    6  A    between atoms: C_14  and  O_15
REMARK    7  A    between atoms: O_15  and  C_16
REMARK    8  A    between atoms: N_17  and  C_18
REMARK    9  A    between atoms: C_20  and  C_21
REMARK   10  A    between atoms: C_20  and  C_23
REMARK   11  A    between atoms: C_21  and  C_22
REMARK   12  A    between atoms: C_26  and  C_27
REMARK                            x       y       z     vdW  Elec       q    Type
REMARK                         _______ _______ _______ _____ _____    ______ ____
ROOT
ATOM      1  N   UNL     1       1.136   9.336  19.363  0.00  0.00    +0.000 N 
ATOM      2  C   UNL     1       1.969   8.414  18.804  0.00  0.00    +0.000 A 
ATOM      3  N   UNL     1       1.938   7.088  19.154  0.00  0.00    +0.000 NA
ATOM      4  C   UNL     1       2.950   6.526  18.508  0.00  0.00    +0.000 A 
ATOM      5  N   UNL     1       3.594   7.535  17.829  0.00  0.00    +0.000 N 
ATOM      6  C   UNL     1       4.854   7.571  17.133  0.00  0.00    +0.000 C 
ATOM      7  N   UNL     1       2.914   8.687  17.910  0.00  0.00    +0.000 NA
ENDROOT
BRANCH   4   8
ATOM      8  C   UNL     1       3.303   5.088  18.494  0.00  0.00    +0.000 A 
ATOM      9  C   UNL     1       3.755   4.475  17.308  0.00  0.00    +0.000 A 
ATOM     10  C   UNL     1       3.950   3.091  17.227  0.00  0.00    +0.000 A 
ATOM     11  C   UNL     1       3.753   2.304  18.351  0.00  0.00    +0.000 A 
ATOM     12 CL   UNL     1       3.947   0.597  18.249  0.00  0.00    +0.000 Cl
ATOM     13  C   UNL     1       3.393   2.888  19.560  0.00  0.00    +0.000 A 
ATOM     14  C   UNL     1       3.181   4.276  19.646  0.00  0.00    +0.000 A 
BRANCH  14  15
ATOM     15  O   UNL     1       2.763   4.859  20.819  0.00  0.00    +0.000 OA
ATOM     16  C   UNL     1       2.101   3.995  21.741  0.00  0.00    +0.000 C 
ENDBRANCH  14  15
ENDBRANCH   4   8
BRANCH   1  17
ATOM     17  C   UNL     1       0.410   9.057  20.604  0.00  0.00    +0.000 C 
BRANCH  17  19
ATOM     18  C   UNL     1       0.201   9.454  23.079  0.00  0.00    +0.000 C 
ATOM     19  C   UNL     1       1.162   9.390  21.899  0.00  0.00    +0.000 C 
ENDBRANCH  17  19
ENDBRANCH   1  17
BRANCH   1  20
ATOM     20  C   UNL     1       0.760  10.522  18.544  0.00  0.00    +0.000 C 
BRANCH  20  21
ATOM     21  C   UNL     1      -0.778  10.727  18.429  0.00  0.00    +0.000 A 
ATOM     22  C   UNL     1      -1.466  11.729  19.140  0.00  0.00    +0.000 A 
ATOM     23  C   UNL     1      -2.851  11.901  19.022  0.00  0.00    +0.000 A 
ATOM     24  C   UNL     1      -3.603  11.073  18.187  0.00  0.00    +0.000 A 
ATOM     25  C   UNL     1      -2.935  10.076  17.464  0.00  0.00    +0.000 A 
ATOM     26  C   UNL     1      -1.542   9.921  17.565  0.00  0.00    +0.000 A 
BRANCH  24  27
ATOM     27  C   UNL     1      -5.097  11.251  18.075  0.00  0.00    +0.000 C 
ATOM     28  F   UNL     1      -5.573  12.320  18.777  0.00  0.00    +0.000 F 
ATOM     29  F   UNL     1      -5.505  11.444  16.790  0.00  0.00    +0.000 F 
ATOM     30  F   UNL     1      -5.791  10.173  18.531  0.00  0.00    +0.000 F 
ENDBRANCH  24  27
ENDBRANCH  20  21
BRANCH  20  31
ATOM     31  C   UNL     1       1.467  11.809  19.047  0.00  0.00    +0.000 C 
ATOM     32  C   UNL     1       2.312  12.590  18.052  0.00  0.00    +0.000 C 
ENDBRANCH  20  31
ENDBRANCH   1  20
TORSDOF 8
ENDMDL
