MODEL 1
REMARK VINA RESULT:      -7.1      0.000      0.000
REMARK  Name = 
REMARK  6 active torsions:
REMARK  status: ('A' for Active; 'I' for Inactive)
REMARK    1  A    between atoms: C_1  and  C_2
REMARK    2  A    between atoms: N_4  and  C_5
REMARK    3  A    between atoms: N_8  and  C_9
REMARK    4  A    between atoms: C_9  and  C_10
REMARK    5  A    between atoms: C_10  and  C_11
REMARK    6  A    between atoms: C_11  and  N_12
REMARK                            x       y       z     vdW  Elec       q    Type
REMARK                         _______ _______ _______ _____ _____    ______ ____
ROOT
ATOM      1  C   UNL     1       0.327   2.668  18.869  0.00  0.00    +0.000 C 
ATOM      2  C   UNL     1       1.753   2.960  19.145  0.00  0.00    +0.000 A 
ATOM      3  N   UNL     1       2.550   2.032  19.686  0.00  0.00    +0.000 NA
ATOM      4  N   UNL     1       3.753   2.646  19.756  0.00  0.00    +0.000 N 
ATOM      5  C   UNL     1       4.862   1.904  20.309  0.00  0.00    +0.000 C 
ATOM      6  C   UNL     1       3.760   3.933  19.288  0.00  0.00    +0.000 A 
ATOM      7  C   UNL     1       4.733   4.922  19.131  0.00  0.00    +0.000 A 
ATOM      8  N   UNL     1       6.066   4.727  19.449  0.00  0.00    +0.000 N 
ATOM      9  N   UNL     1       4.315   6.095  18.601  0.00  0.00    +0.000 NA
ATOM     10  C   UNL     1       3.018   6.238  18.262  0.00  0.00    +0.000 A 
ATOM     11  N   UNL     1       2.033   5.337  18.368  0.00  0.00    +0.000 NA
ATOM     12  C   UNL     1       2.452   4.167  18.891  0.00  0.00    +0.000 A 
ATOM     13  H   UNL     1       6.253   4.040  20.163  0.00  0.00    +0.000 HD
ENDROOT
BRANCH   8  14
ATOM     14  C   UNL     1       6.982   5.856  19.408  0.00  0.00    +0.000 C 
BRANCH  14  15
ATOM     15  C   UNL     1       7.697   5.847  18.055  0.00  0.00    +0.000 C 
BRANCH  15  16
ATOM     16  C   UNL     1       7.696   4.463  17.415  0.00  0.00    +0.000 C 
BRANCH  16  17
ATOM     17  N   UNL     1       7.079   4.462  16.098  0.00  0.00    +0.000 N 
ATOM     18  C   UNL     1       5.932   3.820  15.729  0.00  0.00    +0.000 A 
ATOM     19  C   UNL     1       5.722   4.141  14.407  0.00  0.00    +0.000 A 
ATOM     20  C   UNL     1       6.799   4.978  14.071  0.00  0.00    +0.000 A 
ATOM     21  N   UNL     1       7.627   5.182  15.100  0.00  0.00    +0.000 NA
ENDBRANCH  16  17
ENDBRANCH  15  16
ENDBRANCH  14  15
ENDBRANCH   8  14
TORSDOF 4
ENDMDL
MODEL 2
REMARK VINA RESULT:      -6.7      1.685      2.725
REMARK  Name = 
REMARK  6 active torsions:
REMARK  status: ('A' for Active; 'I' for Inactive)
REMARK    1  A    between atoms: C_1  and  C_2
REMARK    2  A    between atoms: N_4  and  C_5
REMARK    3  A    between atoms: N_8  and  C_9
REMARK    4  A    between atoms: C_9  and  C_10
REMARK    5  A    between atoms: C_10  and  C_11
REMARK    6  A    between atoms: C_11  and  N_12
REMARK                            x       y       z     vdW  Elec       q    Type
REMARK                         _______ _______ _______ _____ _____    ______ ____
ROOT
ATOM      1  C   UNL     1       1.244   2.661  21.812  0.00  0.00    +0.000 C 
ATOM      2  C   UNL     1       2.007   2.941  20.574  0.00  0.00    +0.000 A 
ATOM      3  N   UNL     1       2.441   1.942  19.797  0.00  0.00    +0.000 NA
ATOM      4  N   UNL     1       3.053   2.578  18.773  0.00  0.00    +0.000 N 
ATOM      5  C   UNL     1       3.649   1.771  17.733  0.00  0.00    +0.000 C 
ATOM      6  C   UNL     1       3.037   3.944  18.862  0.00  0.00    +0.000 A 
ATOM      7  C   UNL     1       3.494   4.992  18.062  0.00  0.00    +0.000 A 
ATOM      8  N   UNL     1       4.116   4.795  16.841  0.00  0.00    +0.000 N 
ATOM      9  N   UNL     1       3.260   6.243  18.523  0.00  0.00    +0.000 NA
ATOM     10  C   UNL     1       2.613   6.402  19.695  0.00  0.00    +0.000 A 
ATOM     11  N   UNL     1       2.134   5.453  20.509  0.00  0.00    +0.000 NA
ATOM     12  C   UNL     1       2.363   4.207  20.046  0.00  0.00    +0.000 A 
ATOM     13  H   UNL     1       4.600   3.918  16.730  0.00  0.00    +0.000 HD
ENDROOT
BRANCH   8  14
ATOM     14  C   UNL     1       4.705   5.930  16.148  0.00  0.00    +0.000 C 
BRANCH  14  15
ATOM     15  C   UNL     1       5.733   5.402  15.145  0.00  0.00    +0.000 C 
BRANCH  15  16
ATOM     16  C   UNL     1       6.956   4.810  15.837  0.00  0.00    +0.000 C 
BRANCH  16  17
ATOM     17  N   UNL     1       7.348   5.569  17.014  0.00  0.00    +0.000 N 
ATOM     18  C   UNL     1       7.526   5.088  18.279  0.00  0.00    +0.000 A 
ATOM     19  C   UNL     1       7.933   6.158  19.043  0.00  0.00    +0.000 A 
ATOM     20  C   UNL     1       7.968   7.239  18.146  0.00  0.00    +0.000 A 
ATOM     21  N   UNL     1       7.617   6.885  16.906  0.00  0.00    +0.000 NA
ENDBRANCH  16  17
ENDBRANCH  15  16
ENDBRANCH  14  15
ENDBRANCH   8  14
TORSDOF 4
ENDMDL
MODEL 3
REMARK VINA RESULT:      -6.7      1.774      3.499
REMARK  Name = 
REMARK  6 active torsions:
REMARK  status: ('A' for Active; 'I' for Inactive)
REMARK    1  A    between atoms: C_1  and  C_2
REMARK    2  A    between atoms: N_4  and  C_5
REMARK    3  A    between atoms: N_8  and  C_9
REMARK    4  A    between atoms: C_9  and  C_10
REMARK    5  A    between atoms: C_10  and  C_11
REMARK    6  A    between atoms: C_11  and  N_12
REMARK                            x       y       z     vdW  Elec       q    Type
REMARK                         _______ _______ _______ _____ _____    ______ ____
ROOT
ATOM      1  C   UNL     1       1.234   3.098  21.616  0.00  0.00    +0.000 C 
ATOM      2  C   UNL     1       1.944   3.735  20.483  0.00  0.00    +0.000 A 
ATOM      3  N   UNL     1       1.996   5.066  20.368  0.00  0.00    +0.000 NA
ATOM      4  N   UNL     1       2.736   5.262  19.254  0.00  0.00    +0.000 N 
ATOM      5  C   UNL     1       2.986   6.622  18.837  0.00  0.00    +0.000 C 
ATOM      6  C   UNL     1       3.157   4.112  18.644  0.00  0.00    +0.000 A 
ATOM      7  C   UNL     1       3.942   3.815  17.527  0.00  0.00    +0.000 A 
ATOM      8  N   UNL     1       4.539   4.788  16.744  0.00  0.00    +0.000 N 
ATOM      9  N   UNL     1       4.133   2.502  17.262  0.00  0.00    +0.000 NA
ATOM     10  C   UNL     1       3.574   1.579  18.070  0.00  0.00    +0.000 A 
ATOM     11  N   UNL     1       2.824   1.783  19.161  0.00  0.00    +0.000 NA
ATOM     12  C   UNL     1       2.639   3.092  19.427  0.00  0.00    +0.000 A 
ATOM     13  H   UNL     1       4.078   5.684  16.728  0.00  0.00    +0.000 HD
ENDROOT
BRANCH   8  14
ATOM     14  C   UNL     1       5.204   4.401  15.509  0.00  0.00    +0.000 C 
BRANCH  14  15
ATOM     15  C   UNL     1       6.704   4.656  15.671  0.00  0.00    +0.000 C 
BRANCH  15  16
ATOM     16  C   UNL     1       7.120   4.719  17.136  0.00  0.00    +0.000 C 
BRANCH  16  17
ATOM     17  N   UNL     1       7.471   6.067  17.555  0.00  0.00    +0.000 N 
ATOM     18  C   UNL     1       8.099   6.431  18.712  0.00  0.00    +0.000 A 
ATOM     19  C   UNL     1       8.254   7.797  18.651  0.00  0.00    +0.000 A 
ATOM     20  C   UNL     1       7.685   8.163  17.419  0.00  0.00    +0.000 A 
ATOM     21  N   UNL     1       7.210   7.112  16.744  0.00  0.00    +0.000 NA
ENDBRANCH  16  17
ENDBRANCH  15  16
ENDBRANCH  14  15
ENDBRANCH   8  14
TORSDOF 4
ENDMDL
MODEL 4
REMARK VINA RESULT:      -6.5      1.011      1.251
REMARK  Name = 
REMARK  6 active torsions:
REMARK  status: ('A' for Active; 'I' for Inactive)
REMARK    1  A    between atoms: C_1  and  C_2
REMARK    2  A    between atoms: N_4  and  C_5
REMARK    3  A    between atoms: N_8  and  C_9
REMARK    4  A    between atoms: C_9  and  C_10
REMARK    5  A    between atoms: C_10  and  C_11
REMARK    6  A    between atoms: C_11  and  N_12
REMARK                            x       y       z     vdW  Elec       q    Type
REMARK                         _______ _______ _______ _____ _____    ______ ____
ROOT
ATOM      1  C   UNL     1       0.353   3.289  20.151  0.00  0.00    +0.000 C 
ATOM      2  C   UNL     1       1.822   3.292  19.960  0.00  0.00    +0.000 A 
ATOM      3  N   UNL     1       2.571   2.271  20.390  0.00  0.00    +0.000 NA
ATOM      4  N   UNL     1       3.824   2.614  20.018  0.00  0.00    +0.000 N 
ATOM      5  C   UNL     1       4.900   1.707  20.341  0.00  0.00    +0.000 C 
ATOM      6  C   UNL     1       3.913   3.818  19.371  0.00  0.00    +0.000 A 
ATOM      7  C   UNL     1       4.949   4.554  18.791  0.00  0.00    +0.000 A 
ATOM      8  N   UNL     1       6.258   4.107  18.743  0.00  0.00    +0.000 N 
ATOM      9  N   UNL     1       4.601   5.733  18.226  0.00  0.00    +0.000 NA
ATOM     10  C   UNL     1       3.310   6.119  18.251  0.00  0.00    +0.000 A 
ATOM     11  N   UNL     1       2.263   5.467  18.773  0.00  0.00    +0.000 NA
ATOM     12  C   UNL     1       2.610   4.290  19.331  0.00  0.00    +0.000 A 
ATOM     13  H   UNL     1       6.532   3.468  19.473  0.00  0.00    +0.000 HD
ENDROOT
BRANCH   8  14
ATOM     14  C   UNL     1       7.300   5.003  18.267  0.00  0.00    +0.000 C 
BRANCH  14  15
ATOM     15  C   UNL     1       7.621   4.638  16.815  0.00  0.00    +0.000 C 
BRANCH  15  16
ATOM     16  C   UNL     1       6.671   5.312  15.831  0.00  0.00    +0.000 C 
BRANCH  16  17
ATOM     17  N   UNL     1       6.859   4.841  14.468  0.00  0.00    +0.000 N 
ATOM     18  C   UNL     1       6.145   3.869  13.829  0.00  0.00    +0.000 A 
ATOM     19  C   UNL     1       6.652   3.798  12.552  0.00  0.00    +0.000 A 
ATOM     20  C   UNL     1       7.670   4.765  12.521  0.00  0.00    +0.000 A 
ATOM     21  N   UNL     1       7.799   5.408  13.686  0.00  0.00    +0.000 NA
ENDBRANCH  16  17
ENDBRANCH  15  16
ENDBRANCH  14  15
ENDBRANCH   8  14
TORSDOF 4
ENDMDL
MODEL 5
REMARK VINA RESULT:      -6.5      2.116      4.133
REMARK  Name = 
REMARK  6 active torsions:
REMARK  status: ('A' for Active; 'I' for Inactive)
REMARK    1  A    between atoms: C_1  and  C_2
REMARK    2  A    between atoms: N_4  and  C_5
REMARK    3  A    between atoms: N_8  and  C_9
REMARK    4  A    between atoms: C_9  and  C_10
REMARK    5  A    between atoms: C_10  and  C_11
REMARK    6  A    between atoms: C_11  and  N_12
REMARK                            x       y       z     vdW  Elec       q    Type
REMARK                         _______ _______ _______ _____ _____    ______ ____
ROOT
ATOM      1  C   UNL     1       0.719   8.122  21.769  0.00  0.00    +0.000 C 
ATOM      2  C   UNL     1       1.453   7.646  20.574  0.00  0.00    +0.000 A 
ATOM      3  N   UNL     1       1.723   8.476  19.561  0.00  0.00    +0.000 NA
ATOM      4  N   UNL     1       2.413   7.704  18.691  0.00  0.00    +0.000 N 
ATOM      5  C   UNL     1       2.864   8.307  17.459  0.00  0.00    +0.000 C 
ATOM      6  C   UNL     1       2.593   6.410  19.101  0.00  0.00    +0.000 A 
ATOM      7  C   UNL     1       3.242   5.289  18.580  0.00  0.00    +0.000 A 
ATOM      8  N   UNL     1       3.945   5.310  17.388  0.00  0.00    +0.000 N 
ATOM      9  N   UNL     1       3.190   4.164  19.331  0.00  0.00    +0.000 NA
ATOM     10  C   UNL     1       2.534   4.189  20.508  0.00  0.00    +0.000 A 
ATOM     11  N   UNL     1       1.901   5.222  21.079  0.00  0.00    +0.000 NA
ATOM     12  C   UNL     1       1.959   6.344  20.333  0.00  0.00    +0.000 A 
ATOM     13  H   UNL     1       3.644   5.994  16.711  0.00  0.00    +0.000 HD
ENDROOT
BRANCH   8  14
ATOM     14  C   UNL     1       4.454   4.063  16.838  0.00  0.00    +0.000 C 
BRANCH  14  15
ATOM     15  C   UNL     1       5.340   4.394  15.635  0.00  0.00    +0.000 C 
BRANCH  15  16
ATOM     16  C   UNL     1       6.822   4.234  15.953  0.00  0.00    +0.000 C 
BRANCH  16  17
ATOM     17  N   UNL     1       7.252   5.099  17.041  0.00  0.00    +0.000 N 
ATOM     18  C   UNL     1       7.283   6.463  17.042  0.00  0.00    +0.000 A 
ATOM     19  C   UNL     1       7.718   6.836  18.293  0.00  0.00    +0.000 A 
ATOM     20  C   UNL     1       7.925   5.623  18.971  0.00  0.00    +0.000 A 
ATOM     21  N   UNL     1       7.638   4.559  18.214  0.00  0.00    +0.000 NA
ENDBRANCH  16  17
ENDBRANCH  15  16
ENDBRANCH  14  15
ENDBRANCH   8  14
TORSDOF 4
ENDMDL
MODEL 6
REMARK VINA RESULT:      -6.5      1.749      6.055
REMARK  Name = 
REMARK  6 active torsions:
REMARK  status: ('A' for Active; 'I' for Inactive)
REMARK    1  A    between atoms: C_1  and  C_2
REMARK    2  A    between atoms: N_4  and  C_5
REMARK    3  A    between atoms: N_8  and  C_9
REMARK    4  A    between atoms: C_9  and  C_10
REMARK    5  A    between atoms: C_10  and  C_11
REMARK    6  A    between atoms: C_11  and  N_12
REMARK                            x       y       z     vdW  Elec       q    Type
REMARK                         _______ _______ _______ _____ _____    ______ ____
ROOT
ATOM      1  C   UNL     1       8.117   7.789  17.830  0.00  0.00    +0.000 C 
ATOM      2  C   UNL     1       7.287   6.639  17.404  0.00  0.00    +0.000 A 
ATOM      3  N   UNL     1       7.181   6.312  16.112  0.00  0.00    +0.000 NA
ATOM      4  N   UNL     1       6.385   5.219  16.123  0.00  0.00    +0.000 N 
ATOM      5  C   UNL     1       6.062   4.603  14.857  0.00  0.00    +0.000 C 
ATOM      6  C   UNL     1       5.969   4.834  17.369  0.00  0.00    +0.000 A 
ATOM      7  C   UNL     1       5.191   3.789  17.872  0.00  0.00    +0.000 A 
ATOM      8  N   UNL     1       4.647   2.799  17.072  0.00  0.00    +0.000 N 
ATOM      9  N   UNL     1       5.023   3.761  19.215  0.00  0.00    +0.000 NA
ATOM     10  C   UNL     1       5.602   4.715  19.970  0.00  0.00    +0.000 A 
ATOM     11  N   UNL     1       6.369   5.736  19.566  0.00  0.00    +0.000 NA
ATOM     12  C   UNL     1       6.540   5.760  18.229  0.00  0.00    +0.000 A 
ATOM     13  H   UNL     1       4.464   3.057  16.115  0.00  0.00    +0.000 HD
ENDROOT
BRANCH   8  14
ATOM     14  C   UNL     1       3.719   1.842  17.653  0.00  0.00    +0.000 C 
BRANCH  14  15
ATOM     15  C   UNL     1       2.297   2.373  17.461  0.00  0.00    +0.000 C 
BRANCH  15  16
ATOM     16  C   UNL     1       1.415   2.102  18.676  0.00  0.00    +0.000 C 
BRANCH  16  17
ATOM     17  N   UNL     1       1.669   3.035  19.763  0.00  0.00    +0.000 N 
ATOM     18  C   UNL     1       2.070   2.727  21.031  0.00  0.00    +0.000 A 
ATOM     19  C   UNL     1       2.219   3.928  21.688  0.00  0.00    +0.000 A 
ATOM     20  C   UNL     1       1.881   4.899  20.730  0.00  0.00    +0.000 A 
ATOM     21  N   UNL     1       1.550   4.360  19.552  0.00  0.00    +0.000 NA
ENDBRANCH  16  17
ENDBRANCH  15  16
ENDBRANCH  14  15
ENDBRANCH   8  14
TORSDOF 4
ENDMDL
MODEL 7
REMARK VINA RESULT:      -6.5      1.077      2.481
REMARK  Name = 
REMARK  6 active torsions:
REMARK  status: ('A' for Active; 'I' for Inactive)
REMARK    1  A    between atoms: C_1  and  C_2
REMARK    2  A    between atoms: N_4  and  C_5
REMARK    3  A    between atoms: N_8  and  C_9
REMARK    4  A    between atoms: C_9  and  C_10
REMARK    5  A    between atoms: C_10  and  C_11
REMARK    6  A    between atoms: C_11  and  N_12
REMARK                            x       y       z     vdW  Elec       q    Type
REMARK                         _______ _______ _______ _____ _____    ______ ____
ROOT
ATOM      1  C   UNL     1       0.269   2.682  18.666  0.00  0.00    +0.000 C 
ATOM      2  C   UNL     1       1.460   3.563  18.651  0.00  0.00    +0.000 A 
ATOM      3  N   UNL     1       1.379   4.817  18.193  0.00  0.00    +0.000 NA
ATOM      4  N   UNL     1       2.630   5.301  18.364  0.00  0.00    +0.000 N 
ATOM      5  C   UNL     1       2.891   6.662  17.958  0.00  0.00    +0.000 C 
ATOM      6  C   UNL     1       3.513   4.408  18.907  0.00  0.00    +0.000 A 
ATOM      7  C   UNL     1       4.857   4.453  19.287  0.00  0.00    +0.000 A 
ATOM      8  N   UNL     1       5.633   5.594  19.184  0.00  0.00    +0.000 N 
ATOM      9  N   UNL     1       5.368   3.315  19.812  0.00  0.00    +0.000 NA
ATOM     10  C   UNL     1       4.574   2.234  19.939  0.00  0.00    +0.000 A 
ATOM     11  N   UNL     1       3.281   2.116  19.613  0.00  0.00    +0.000 NA
ATOM     12  C   UNL     1       2.771   3.252  19.095  0.00  0.00    +0.000 A 
ATOM     13  H   UNL     1       5.359   6.250  18.468  0.00  0.00    +0.000 HD
ENDROOT
BRANCH   8  14
ATOM     14  C   UNL     1       7.061   5.513  19.448  0.00  0.00    +0.000 C 
BRANCH  14  15
ATOM     15  C   UNL     1       7.792   6.367  18.410  0.00  0.00    +0.000 C 
BRANCH  15  16
ATOM     16  C   UNL     1       6.845   6.909  17.344  0.00  0.00    +0.000 C 
BRANCH  16  17
ATOM     17  N   UNL     1       6.571   5.934  16.300  0.00  0.00    +0.000 N 
ATOM     18  C   UNL     1       7.253   4.778  16.056  0.00  0.00    +0.000 A 
ATOM     19  C   UNL     1       6.609   4.167  15.004  0.00  0.00    +0.000 A 
ATOM     20  C   UNL     1       5.553   5.036  14.683  0.00  0.00    +0.000 A 
ATOM     21  N   UNL     1       5.521   6.114  15.474  0.00  0.00    +0.000 NA
ENDBRANCH  16  17
ENDBRANCH  15  16
ENDBRANCH  14  15
ENDBRANCH   8  14
TORSDOF 4
ENDMDL
MODEL 8
REMARK VINA RESULT:      -6.3      1.670      3.481
REMARK  Name = 
REMARK  6 active torsions:
REMARK  status: ('A' for Active; 'I' for Inactive)
REMARK    1  A    between atoms: C_1  and  C_2
REMARK    2  A    between atoms: N_4  and  C_5
REMARK    3  A    between atoms: N_8  and  C_9
REMARK    4  A    between atoms: C_9  and  C_10
REMARK    5  A    between atoms: C_10  and  C_11
REMARK    6  A    between atoms: C_11  and  N_12
REMARK                            x       y       z     vdW  Elec       q    Type
REMARK                         _______ _______ _______ _____ _____    ______ ____
ROOT
ATOM      1  C   UNL     1       1.312   2.670  21.974  0.00  0.00    +0.000 C 
ATOM      2  C   UNL     1       1.889   3.453  20.857  0.00  0.00    +0.000 A 
ATOM      3  N   UNL     1       1.866   4.790  20.874  0.00  0.00    +0.000 NA
ATOM      4  N   UNL     1       2.496   5.135  19.729  0.00  0.00    +0.000 N 
ATOM      5  C   UNL     1       2.642   6.541  19.433  0.00  0.00    +0.000 C 
ATOM      6  C   UNL     1       2.917   4.074  18.973  0.00  0.00    +0.000 A 
ATOM      7  C   UNL     1       3.615   3.932  17.771  0.00  0.00    +0.000 A 
ATOM      8  N   UNL     1       4.094   5.008  17.044  0.00  0.00    +0.000 N 
ATOM      9  N   UNL     1       3.846   2.664  17.360  0.00  0.00    +0.000 NA
ATOM     10  C   UNL     1       3.404   1.637  18.113  0.00  0.00    +0.000 A 
ATOM     11  N   UNL     1       2.744   1.691  19.276  0.00  0.00    +0.000 NA
ATOM     12  C   UNL     1       2.519   2.955  19.688  0.00  0.00    +0.000 A 
ATOM     13  H   UNL     1       3.591   5.875  17.157  0.00  0.00    +0.000 HD
ENDROOT
BRANCH   8  14
ATOM     14  C   UNL     1       4.667   4.781  15.727  0.00  0.00    +0.000 C 
BRANCH  14  15
ATOM     15  C   UNL     1       5.927   3.929  15.891  0.00  0.00    +0.000 C 
BRANCH  15  16
ATOM     16  C   UNL     1       7.199   4.767  15.820  0.00  0.00    +0.000 C 
BRANCH  16  17
ATOM     17  N   UNL     1       7.496   5.431  17.079  0.00  0.00    +0.000 N 
ATOM     18  C   UNL     1       7.581   6.776  17.298  0.00  0.00    +0.000 A 
ATOM     19  C   UNL     1       7.839   6.931  18.641  0.00  0.00    +0.000 A 
ATOM     20  C   UNL     1       7.893   5.620  19.144  0.00  0.00    +0.000 A 
ATOM     21  N   UNL     1       7.680   4.701  18.197  0.00  0.00    +0.000 NA
ENDBRANCH  16  17
ENDBRANCH  15  16
ENDBRANCH  14  15
ENDBRANCH   8  14
TORSDOF 4
ENDMDL
MODEL 9
REMARK VINA RESULT:      -6.3      1.538      2.818
REMARK  Name = 
REMARK  6 active torsions:
REMARK  status: ('A' for Active; 'I' for Inactive)
REMARK    1  A    between atoms: C_1  and  C_2
REMARK    2  A    between atoms: N_4  and  C_5
REMARK    3  A    between atoms: N_8  and  C_9
REMARK    4  A    between atoms: C_9  and  C_10
REMARK    5  A    between atoms: C_10  and  C_11
REMARK    6  A    between atoms: C_11  and  N_12
REMARK                            x       y       z     vdW  Elec       q    Type
REMARK                         _______ _______ _______ _____ _____    ______ ____
ROOT
ATOM      1  C   UNL     1       1.987   3.550  21.862  0.00  0.00    +0.000 C 
ATOM      2  C   UNL     1       2.605   3.380  20.527  0.00  0.00    +0.000 A 
ATOM      3  N   UNL     1       2.853   2.160  20.038  0.00  0.00    +0.000 NA
ATOM      4  N   UNL     1       3.379   2.407  18.817  0.00  0.00    +0.000 N 
ATOM      5  C   UNL     1       3.768   1.277  18.006  0.00  0.00    +0.000 C 
ATOM      6  C   UNL     1       3.485   3.735  18.504  0.00  0.00    +0.000 A 
ATOM      7  C   UNL     1       3.920   4.456  17.390  0.00  0.00    +0.000 A 
ATOM      8  N   UNL     1       4.361   3.853  16.225  0.00  0.00    +0.000 N 
ATOM      9  N   UNL     1       3.848   5.804  17.485  0.00  0.00    +0.000 NA
ATOM     10  C   UNL     1       3.373   6.360  18.617  0.00  0.00    +0.000 A 
ATOM     11  N   UNL     1       2.927   5.740  19.717  0.00  0.00    +0.000 NA
ATOM     12  C   UNL     1       2.993   4.397  19.619  0.00  0.00    +0.000 A 
ATOM     13  H   UNL     1       4.755   2.930  16.328  0.00  0.00    +0.000 HD
ENDROOT
BRANCH   8  14
ATOM     14  C   UNL     1       4.947   4.672  15.175  0.00  0.00    +0.000 C 
BRANCH  14  15
ATOM     15  C   UNL     1       6.328   4.106  14.837  0.00  0.00    +0.000 C 
BRANCH  15  16
ATOM     16  C   UNL     1       7.448   5.080  15.186  0.00  0.00    +0.000 C 
BRANCH  16  17
ATOM     17  N   UNL     1       7.456   5.433  16.597  0.00  0.00    +0.000 N 
ATOM     18  C   UNL     1       7.371   6.686  17.131  0.00  0.00    +0.000 A 
ATOM     19  C   UNL     1       7.375   6.523  18.498  0.00  0.00    +0.000 A 
ATOM     20  C   UNL     1       7.468   5.133  18.687  0.00  0.00    +0.000 A 
ATOM     21  N   UNL     1       7.512   4.463  17.531  0.00  0.00    +0.000 NA
ENDBRANCH  16  17
ENDBRANCH  15  16
ENDBRANCH  14  15
ENDBRANCH   8  14
TORSDOF 4
ENDMDL
