MODEL 1
REMARK VINA RESULT:      -7.5      0.000      0.000
REMARK  Name = 
REMARK  8 active torsions:
REMARK  status: ('A' for Active; 'I' for Inactive)
REMARK    1  A    between atoms: C_1  and  C_2
REMARK    2  A    between atoms: N_7  and  C_8
REMARK    3  A    between atoms: C_8  and  C_9
REMARK    4  A    between atoms: C_9  and  N_10
REMARK    5  A    between atoms: N_10  and  C_11
REMARK    6  A    between atoms: N_10  and  C_12
REMARK    7  A    between atoms: C_12  and  C_13
REMARK    8  A    between atoms: C_16  and  C_17
REMARK                            x       y       z     vdW  Elec       q    Type
REMARK                         _______ _______ _______ _____ _____    ______ ____
ROOT
ATOM      1  N   UNL     1       6.077   5.461  17.818  0.00  0.00    +0.000 NA
ATOM      2  C   UNL     1       6.601   5.479  19.184  0.00  0.00    +0.000 C 
ENDROOT
BRANCH   1   3
ATOM      3  C   UNL     1       4.604   5.448  17.769  0.00  0.00    +0.000 C 
BRANCH   3   4
ATOM      4  C   UNL     1       3.937   4.069  18.012  0.00  0.00    +0.000 C 
BRANCH   4  11
ATOM      5  C   UNL     1       4.745   2.124  20.120  0.00  0.00    +0.000 C 
ATOM      6  C   UNL     1       3.298   2.595  19.916  0.00  0.00    +0.000 C 
ATOM      7  C   UNL     1       2.595   2.615  21.287  0.00  0.00    +0.000 C 
ATOM      8  C   UNL     1       1.134   3.029  21.153  0.00  0.00    +0.000 C 
ATOM      9  C   UNL     1       1.036   4.373  20.445  0.00  0.00    +0.000 C 
ATOM     10  C   UNL     1       1.792   4.347  19.120  0.00  0.00    +0.000 C 
ATOM     11  N   UNL     1       3.195   3.929  19.284  0.00  0.00    +0.000 NA
ENDBRANCH   4  11
ENDBRANCH   3   4
ENDBRANCH   1   3
BRANCH   1  12
ATOM     12  C   UNL     1       6.638   4.327  17.035  0.00  0.00    +0.000 C 
BRANCH  12  13
ATOM     13  C   UNL     1       6.867   4.573  15.576  0.00  0.00    +0.000 A 
ATOM     14  N   UNL     1       7.657   5.456  15.002  0.00  0.00    +0.000 NA
ATOM     15  N   UNL     1       7.534   5.260  13.645  0.00  0.00    +0.000 NA
ATOM     16  C   UNL     1       6.673   4.275  13.475  0.00  0.00    +0.000 A 
ATOM     17  O   UNL     1       6.201   3.787  14.670  0.00  0.00    +0.000 OA
BRANCH  16  18
ATOM     18  C   UNL     1       6.286   3.777  12.093  0.00  0.00    +0.000 C 
ATOM     19  C   UNL     1       6.123   2.291  11.850  0.00  0.00    +0.000 C 
ATOM     20  C   UNL     1       4.916   3.165  11.883  0.00  0.00    +0.000 C 
ENDBRANCH  16  18
ENDBRANCH  12  13
ENDBRANCH   1  12
TORSDOF 6
ENDMDL
MODEL 2
REMARK VINA RESULT:      -7.5      1.045      1.144
REMARK  Name = 
REMARK  8 active torsions:
REMARK  status: ('A' for Active; 'I' for Inactive)
REMARK    1  A    between atoms: C_1  and  C_2
REMARK    2  A    between atoms: N_7  and  C_8
REMARK    3  A    between atoms: C_8  and  C_9
REMARK    4  A    between atoms: C_9  and  N_10
REMARK    5  A    between atoms: N_10  and  C_11
REMARK    6  A    between atoms: N_10  and  C_12
REMARK    7  A    between atoms: C_12  and  C_13
REMARK    8  A    between atoms: C_16  and  C_17
REMARK                            x       y       z     vdW  Elec       q    Type
REMARK                         _______ _______ _______ _____ _____    ______ ____
ROOT
ATOM      1  N   UNL     1       6.183   5.503  17.870  0.00  0.00    +0.000 NA
ATOM      2  C   UNL     1       7.381   5.911  18.604  0.00  0.00    +0.000 C 
ENDROOT
BRANCH   1   3
ATOM      3  C   UNL     1       5.018   5.291  18.747  0.00  0.00    +0.000 C 
BRANCH   3   4
ATOM      4  C   UNL     1       4.917   3.887  19.399  0.00  0.00    +0.000 C 
BRANCH   4  11
ATOM      5  C   UNL     1       3.549   1.717  17.882  0.00  0.00    +0.000 C 
ATOM      6  C   UNL     1       2.798   2.849  18.598  0.00  0.00    +0.000 C 
ATOM      7  C   UNL     1       1.449   2.298  19.098  0.00  0.00    +0.000 C 
ATOM      8  C   UNL     1       0.626   3.385  19.780  0.00  0.00    +0.000 C 
ATOM      9  C   UNL     1       1.431   4.020  20.905  0.00  0.00    +0.000 C 
ATOM     10  C   UNL     1       2.788   4.501  20.399  0.00  0.00    +0.000 C 
ATOM     11  N   UNL     1       3.549   3.430  19.732  0.00  0.00    +0.000 NA
ENDBRANCH   4  11
ENDBRANCH   3   4
ENDBRANCH   1   3
BRANCH   1  12
ATOM     12  C   UNL     1       6.440   4.298  17.037  0.00  0.00    +0.000 C 
BRANCH  12  13
ATOM     13  C   UNL     1       6.722   4.539  15.586  0.00  0.00    +0.000 A 
ATOM     14  N   UNL     1       7.538   5.415  15.039  0.00  0.00    +0.000 NA
ATOM     15  N   UNL     1       7.463   5.216  13.679  0.00  0.00    +0.000 NA
ATOM     16  C   UNL     1       6.602   4.237  13.480  0.00  0.00    +0.000 A 
ATOM     17  O   UNL     1       6.084   3.755  14.659  0.00  0.00    +0.000 OA
BRANCH  16  18
ATOM     18  C   UNL     1       6.261   3.737  12.086  0.00  0.00    +0.000 C 
ATOM     19  C   UNL     1       6.062   2.255  11.849  0.00  0.00    +0.000 C 
ATOM     20  C   UNL     1       4.884   3.167  11.820  0.00  0.00    +0.000 C 
ENDBRANCH  16  18
ENDBRANCH  12  13
ENDBRANCH   1  12
TORSDOF 6
ENDMDL
MODEL 3
REMARK VINA RESULT:      -7.5      1.419      2.006
REMARK  Name = 
REMARK  8 active torsions:
REMARK  status: ('A' for Active; 'I' for Inactive)
REMARK    1  A    between atoms: C_1  and  C_2
REMARK    2  A    between atoms: N_7  and  C_8
REMARK    3  A    between atoms: C_8  and  C_9
REMARK    4  A    between atoms: C_9  and  N_10
REMARK    5  A    between atoms: N_10  and  C_11
REMARK    6  A    between atoms: N_10  and  C_12
REMARK    7  A    between atoms: C_12  and  C_13
REMARK    8  A    between atoms: C_16  and  C_17
REMARK                            x       y       z     vdW  Elec       q    Type
REMARK                         _______ _______ _______ _____ _____    ______ ____
ROOT
ATOM      1  N   UNL     1       4.166   6.009  17.906  0.00  0.00    +0.000 NA
ATOM      2  C   UNL     1       3.023   6.846  18.273  0.00  0.00    +0.000 C 
ENDROOT
BRANCH   1   3
ATOM      3  C   UNL     1       4.796   5.357  19.068  0.00  0.00    +0.000 C 
BRANCH   3   4
ATOM      4  C   UNL     1       4.699   3.810  19.101  0.00  0.00    +0.000 C 
BRANCH   4  11
ATOM      5  C   UNL     1       2.847   2.403  17.238  0.00  0.00    +0.000 C 
ATOM      6  C   UNL     1       2.372   3.164  18.485  0.00  0.00    +0.000 C 
ATOM      7  C   UNL     1       1.119   2.459  19.038  0.00  0.00    +0.000 C 
ATOM      8  C   UNL     1       0.564   3.192  20.254  0.00  0.00    +0.000 C 
ATOM      9  C   UNL     1       1.647   3.338  21.313  0.00  0.00    +0.000 C 
ATOM     10  C   UNL     1       2.900   3.981  20.727  0.00  0.00    +0.000 C 
ATOM     11  N   UNL     1       3.400   3.256  19.545  0.00  0.00    +0.000 NA
ENDBRANCH   4  11
ENDBRANCH   3   4
ENDBRANCH   1   3
BRANCH   1  12
ATOM     12  C   UNL     1       5.172   6.776  17.123  0.00  0.00    +0.000 C 
BRANCH  12  13
ATOM     13  C   UNL     1       5.958   6.004  16.111  0.00  0.00    +0.000 A 
ATOM     14  N   UNL     1       7.246   6.066  15.844  0.00  0.00    +0.000 NA
ATOM     15  N   UNL     1       7.482   5.136  14.856  0.00  0.00    +0.000 NA
ATOM     16  C   UNL     1       6.324   4.569  14.578  0.00  0.00    +0.000 A 
ATOM     17  O   UNL     1       5.301   5.078  15.342  0.00  0.00    +0.000 OA
BRANCH  16  18
ATOM     18  C   UNL     1       6.195   3.481  13.524  0.00  0.00    +0.000 C 
ATOM     19  C   UNL     1       5.258   3.680  12.352  0.00  0.00    +0.000 C 
ATOM     20  C   UNL     1       6.731   3.733  12.131  0.00  0.00    +0.000 C 
ENDBRANCH  16  18
ENDBRANCH  12  13
ENDBRANCH   1  12
TORSDOF 6
ENDMDL
MODEL 4
REMARK VINA RESULT:      -7.4      1.086      1.710
REMARK  Name = 
REMARK  8 active torsions:
REMARK  status: ('A' for Active; 'I' for Inactive)
REMARK    1  A    between atoms: C_1  and  C_2
REMARK    2  A    between atoms: N_7  and  C_8
REMARK    3  A    between atoms: C_8  and  C_9
REMARK    4  A    between atoms: C_9  and  N_10
REMARK    5  A    between atoms: N_10  and  C_11
REMARK    6  A    between atoms: N_10  and  C_12
REMARK    7  A    between atoms: C_12  and  C_13
REMARK    8  A    between atoms: C_16  and  C_17
REMARK                            x       y       z     vdW  Elec       q    Type
REMARK                         _______ _______ _______ _____ _____    ______ ____
ROOT
ATOM      1  N   UNL     1       6.371   5.812  17.669  0.00  0.00    +0.000 NA
ATOM      2  C   UNL     1       7.488   5.999  18.594  0.00  0.00    +0.000 C 
ENDROOT
BRANCH   1   3
ATOM      3  C   UNL     1       5.057   5.894  18.332  0.00  0.00    +0.000 C 
BRANCH   3   4
ATOM      4  C   UNL     1       4.675   4.676  19.214  0.00  0.00    +0.000 C 
BRANCH   4  11
ATOM      5  C   UNL     1       2.138   5.359  20.621  0.00  0.00    +0.000 C 
ATOM      6  C   UNL     1       2.414   3.983  19.998  0.00  0.00    +0.000 C 
ATOM      7  C   UNL     1       1.079   3.399  19.496  0.00  0.00    +0.000 C 
ATOM      8  C   UNL     1       1.271   2.007  18.906  0.00  0.00    +0.000 C 
ATOM      9  C   UNL     1       2.321   2.048  17.806  0.00  0.00    +0.000 C 
ATOM     10  C   UNL     1       3.612   2.687  18.308  0.00  0.00    +0.000 C 
ATOM     11  N   UNL     1       3.388   4.023  18.885  0.00  0.00    +0.000 NA
ENDBRANCH   4  11
ENDBRANCH   3   4
ENDBRANCH   1   3
BRANCH   1  12
ATOM     12  C   UNL     1       6.499   4.539  16.911  0.00  0.00    +0.000 C 
BRANCH  12  13
ATOM     13  C   UNL     1       6.785   4.660  15.447  0.00  0.00    +0.000 A 
ATOM     14  N   UNL     1       7.676   5.416  14.840  0.00  0.00    +0.000 NA
ATOM     15  N   UNL     1       7.563   5.142  13.495  0.00  0.00    +0.000 NA
ATOM     16  C   UNL     1       6.608   4.242  13.364  0.00  0.00    +0.000 A 
ATOM     17  O   UNL     1       6.061   3.888  14.575  0.00  0.00    +0.000 OA
BRANCH  16  18
ATOM     18  C   UNL     1       6.202   3.693  12.007  0.00  0.00    +0.000 C 
ATOM     19  C   UNL     1       5.909   2.216  11.852  0.00  0.00    +0.000 C 
ATOM     20  C   UNL     1       4.787   3.195  11.803  0.00  0.00    +0.000 C 
ENDBRANCH  16  18
ENDBRANCH  12  13
ENDBRANCH   1  12
TORSDOF 6
ENDMDL
MODEL 5
REMARK VINA RESULT:      -7.3      1.194      2.093
REMARK  Name = 
REMARK  8 active torsions:
REMARK  status: ('A' for Active; 'I' for Inactive)
REMARK    1  A    between atoms: C_1  and  C_2
REMARK    2  A    between atoms: N_7  and  C_8
REMARK    3  A    between atoms: C_8  and  C_9
REMARK    4  A    between atoms: C_9  and  N_10
REMARK    5  A    between atoms: N_10  and  C_11
REMARK    6  A    between atoms: N_10  and  C_12
REMARK    7  A    between atoms: C_12  and  C_13
REMARK    8  A    between atoms: C_16  and  C_17
REMARK                            x       y       z     vdW  Elec       q    Type
REMARK                         _______ _______ _______ _____ _____    ______ ____
ROOT
ATOM      1  N   UNL     1       5.920   5.139  17.325  0.00  0.00    +0.000 NA
ATOM      2  C   UNL     1       5.647   6.521  16.928  0.00  0.00    +0.000 C 
ENDROOT
BRANCH   1   3
ATOM      3  C   UNL     1       6.026   4.973  18.785  0.00  0.00    +0.000 C 
BRANCH   3   4
ATOM      4  C   UNL     1       4.679   4.897  19.551  0.00  0.00    +0.000 C 
BRANCH   4  11
ATOM      5  C   UNL     1       2.323   6.213  18.287  0.00  0.00    +0.000 C 
ATOM      6  C   UNL     1       2.284   4.793  18.871  0.00  0.00    +0.000 C 
ATOM      7  C   UNL     1       1.290   3.955  18.045  0.00  0.00    +0.000 C 
ATOM      8  C   UNL     1       1.165   2.541  18.600  0.00  0.00    +0.000 C 
ATOM      9  C   UNL     1       2.537   1.886  18.672  0.00  0.00    +0.000 C 
ATOM     10  C   UNL     1       3.520   2.763  19.440  0.00  0.00    +0.000 C 
ATOM     11  N   UNL     1       3.605   4.126  18.886  0.00  0.00    +0.000 NA
ENDBRANCH   4  11
ENDBRANCH   3   4
ENDBRANCH   1   3
BRANCH   1  12
ATOM     12  C   UNL     1       7.131   4.608  16.645  0.00  0.00    +0.000 C 
BRANCH  12  13
ATOM     13  C   UNL     1       7.166   4.730  15.153  0.00  0.00    +0.000 A 
ATOM     14  N   UNL     1       7.900   5.528  14.408  0.00  0.00    +0.000 NA
ATOM     15  N   UNL     1       7.585   5.234  13.100  0.00  0.00    +0.000 NA
ATOM     16  C   UNL     1       6.675   4.280  13.129  0.00  0.00    +0.000 A 
ATOM     17  O   UNL     1       6.355   3.908  14.413  0.00  0.00    +0.000 OA
BRANCH  16  18
ATOM     18  C   UNL     1       6.084   3.695  11.857  0.00  0.00    +0.000 C 
ATOM     19  C   UNL     1       5.774   2.214  11.786  0.00  0.00    +0.000 C 
ATOM     20  C   UNL     1       4.655   3.195  11.866  0.00  0.00    +0.000 C 
ENDBRANCH  16  18
ENDBRANCH  12  13
ENDBRANCH   1  12
TORSDOF 6
ENDMDL
MODEL 6
REMARK VINA RESULT:      -7.2      1.361      2.046
REMARK  Name = 
REMARK  8 active torsions:
REMARK  status: ('A' for Active; 'I' for Inactive)
REMARK    1  A    between atoms: C_1  and  C_2
REMARK    2  A    between atoms: N_7  and  C_8
REMARK    3  A    between atoms: C_8  and  C_9
REMARK    4  A    between atoms: C_9  and  N_10
REMARK    5  A    between atoms: N_10  and  C_11
REMARK    6  A    between atoms: N_10  and  C_12
REMARK    7  A    between atoms: C_12  and  C_13
REMARK    8  A    between atoms: C_16  and  C_17
REMARK                            x       y       z     vdW  Elec       q    Type
REMARK                         _______ _______ _______ _____ _____    ______ ____
ROOT
ATOM      1  N   UNL     1       6.623   5.723  18.652  0.00  0.00    +0.000 NA
ATOM      2  C   UNL     1       7.744   4.817  18.398  0.00  0.00    +0.000 C 
ENDROOT
BRANCH   1   3
ATOM      3  C   UNL     1       5.470   5.048  19.274  0.00  0.00    +0.000 C 
BRANCH   3   4
ATOM      4  C   UNL     1       4.076   5.607  18.884  0.00  0.00    +0.000 C 
BRANCH   4  11
ATOM      5  C   UNL     1       1.722   5.494  20.709  0.00  0.00    +0.000 C 
ATOM      6  C   UNL     1       2.282   4.266  19.976  0.00  0.00    +0.000 C 
ATOM      7  C   UNL     1       1.112   3.314  19.659  0.00  0.00    +0.000 C 
ATOM      8  C   UNL     1       1.604   2.046  18.971  0.00  0.00    +0.000 C 
ATOM      9  C   UNL     1       2.397   2.404  17.723  0.00  0.00    +0.000 C 
ATOM     10  C   UNL     1       3.509   3.396  18.050  0.00  0.00    +0.000 C 
ATOM     11  N   UNL     1       3.001   4.602  18.727  0.00  0.00    +0.000 NA
ENDBRANCH   4  11
ENDBRANCH   3   4
ENDBRANCH   1   3
BRANCH   1  12
ATOM     12  C   UNL     1       6.210   6.436  17.413  0.00  0.00    +0.000 C 
BRANCH  12  13
ATOM     13  C   UNL     1       6.562   5.776  16.116  0.00  0.00    +0.000 A 
ATOM     14  N   UNL     1       7.615   5.971  15.350  0.00  0.00    +0.000 NA
ATOM     15  N   UNL     1       7.489   5.101  14.291  0.00  0.00    +0.000 NA
ATOM     16  C   UNL     1       6.365   4.434  14.472  0.00  0.00    +0.000 A 
ATOM     17  O   UNL     1       5.715   4.817  15.622  0.00  0.00    +0.000 OA
BRANCH  16  18
ATOM     18  C   UNL     1       5.893   3.374  13.491  0.00  0.00    +0.000 C 
ATOM     19  C   UNL     1       5.083   3.782  12.278  0.00  0.00    +0.000 C 
ATOM     20  C   UNL     1       6.492   3.331  12.101  0.00  0.00    +0.000 C 
ENDBRANCH  16  18
ENDBRANCH  12  13
ENDBRANCH   1  12
TORSDOF 6
ENDMDL
MODEL 7
REMARK VINA RESULT:      -7.1      0.966      1.931
REMARK  Name = 
REMARK  8 active torsions:
REMARK  status: ('A' for Active; 'I' for Inactive)
REMARK    1  A    between atoms: C_1  and  C_2
REMARK    2  A    between atoms: N_7  and  C_8
REMARK    3  A    between atoms: C_8  and  C_9
REMARK    4  A    between atoms: C_9  and  N_10
REMARK    5  A    between atoms: N_10  and  C_11
REMARK    6  A    between atoms: N_10  and  C_12
REMARK    7  A    between atoms: C_12  and  C_13
REMARK    8  A    between atoms: C_16  and  C_17
REMARK                            x       y       z     vdW  Elec       q    Type
REMARK                         _______ _______ _______ _____ _____    ______ ____
ROOT
ATOM      1  N   UNL     1       5.185   5.133  18.489  0.00  0.00    +0.000 NA
ATOM      2  C   UNL     1       6.316   5.632  19.271  0.00  0.00    +0.000 C 
ENDROOT
BRANCH   1   3
ATOM      3  C   UNL     1       5.265   3.685  18.225  0.00  0.00    +0.000 C 
BRANCH   3   4
ATOM      4  C   UNL     1       3.921   2.990  17.885  0.00  0.00    +0.000 C 
BRANCH   4  11
ATOM      5  C   UNL     1       1.288   4.377  17.718  0.00  0.00    +0.000 C 
ATOM      6  C   UNL     1       2.013   4.099  19.043  0.00  0.00    +0.000 C 
ATOM      7  C   UNL     1       0.954   3.866  20.137  0.00  0.00    +0.000 C 
ATOM      8  C   UNL     1       1.605   3.630  21.495  0.00  0.00    +0.000 C 
ATOM      9  C   UNL     1       2.592   2.475  21.406  0.00  0.00    +0.000 C 
ATOM     10  C   UNL     1       3.591   2.698  20.275  0.00  0.00    +0.000 C 
ATOM     11  N   UNL     1       2.928   2.938  18.981  0.00  0.00    +0.000 NA
ENDBRANCH   4  11
ENDBRANCH   3   4
ENDBRANCH   1   3
BRANCH   1  12
ATOM     12  C   UNL     1       5.025   5.891  17.220  0.00  0.00    +0.000 C 
BRANCH  12  13
ATOM     13  C   UNL     1       5.878   5.454  16.070  0.00  0.00    +0.000 A 
ATOM     14  N   UNL     1       7.094   5.845  15.749  0.00  0.00    +0.000 NA
ATOM     15  N   UNL     1       7.449   5.125  14.631  0.00  0.00    +0.000 NA
ATOM     16  C   UNL     1       6.428   4.345  14.335  0.00  0.00    +0.000 A 
ATOM     17  O   UNL     1       5.382   4.504  15.214  0.00  0.00    +0.000 OA
BRANCH  16  18
ATOM     18  C   UNL     1       6.458   3.397  13.148  0.00  0.00    +0.000 C 
ATOM     19  C   UNL     1       5.425   3.537  12.049  0.00  0.00    +0.000 C 
ATOM     20  C   UNL     1       6.837   3.932  11.782  0.00  0.00    +0.000 C 
ENDBRANCH  16  18
ENDBRANCH  12  13
ENDBRANCH   1  12
TORSDOF 6
ENDMDL
MODEL 8
REMARK VINA RESULT:      -7.1      1.382      1.807
REMARK  Name = 
REMARK  8 active torsions:
REMARK  status: ('A' for Active; 'I' for Inactive)
REMARK    1  A    between atoms: C_1  and  C_2
REMARK    2  A    between atoms: N_7  and  C_8
REMARK    3  A    between atoms: C_8  and  C_9
REMARK    4  A    between atoms: C_9  and  N_10
REMARK    5  A    between atoms: N_10  and  C_11
REMARK    6  A    between atoms: N_10  and  C_12
REMARK    7  A    between atoms: C_12  and  C_13
REMARK    8  A    between atoms: C_16  and  C_17
REMARK                            x       y       z     vdW  Elec       q    Type
REMARK                         _______ _______ _______ _____ _____    ______ ____
ROOT
ATOM      1  N   UNL     1       6.300   6.022  18.753  0.00  0.00    +0.000 NA
ATOM      2  C   UNL     1       7.700   5.604  18.672  0.00  0.00    +0.000 C 
ENDROOT
BRANCH   1   3
ATOM      3  C   UNL     1       5.414   4.962  19.264  0.00  0.00    +0.000 C 
BRANCH   3   4
ATOM      4  C   UNL     1       3.911   5.335  19.362  0.00  0.00    +0.000 C 
BRANCH   4  11
ATOM      5  C   UNL     1       2.946   3.546  17.181  0.00  0.00    +0.000 C 
ATOM      6  C   UNL     1       2.142   3.830  18.458  0.00  0.00    +0.000 C 
ATOM      7  C   UNL     1       1.321   2.573  18.805  0.00  0.00    +0.000 C 
ATOM      8  C   UNL     1       0.458   2.801  20.041  0.00  0.00    +0.000 C 
ATOM      9  C   UNL     1       1.326   3.251  21.207  0.00  0.00    +0.000 C 
ATOM     10  C   UNL     1       2.176   4.457  20.820  0.00  0.00    +0.000 C 
ATOM     11  N   UNL     1       2.985   4.208  19.614  0.00  0.00    +0.000 NA
ENDBRANCH   4  11
ENDBRANCH   3   4
ENDBRANCH   1   3
BRANCH   1  12
ATOM     12  C   UNL     1       5.810   6.533  17.444  0.00  0.00    +0.000 C 
BRANCH  12  13
ATOM     13  C   UNL     1       6.332   5.843  16.222  0.00  0.00    +0.000 A 
ATOM     14  N   UNL     1       7.494   5.997  15.622  0.00  0.00    +0.000 NA
ATOM     15  N   UNL     1       7.502   5.114  14.565  0.00  0.00    +0.000 NA
ATOM     16  C   UNL     1       6.345   4.483  14.582  0.00  0.00    +0.000 A 
ATOM     17  O   UNL     1       5.541   4.901  15.616  0.00  0.00    +0.000 OA
BRANCH  16  18
ATOM     18  C   UNL     1       5.993   3.423  13.552  0.00  0.00    +0.000 C 
ATOM     19  C   UNL     1       5.179   3.802  12.332  0.00  0.00    +0.000 C 
ATOM     20  C   UNL     1       6.627   3.485  12.178  0.00  0.00    +0.000 C 
ENDBRANCH  16  18
ENDBRANCH  12  13
ENDBRANCH   1  12
TORSDOF 6
ENDMDL
MODEL 9
REMARK VINA RESULT:      -7.0      1.107      1.908
REMARK  Name = 
REMARK  8 active torsions:
REMARK  status: ('A' for Active; 'I' for Inactive)
REMARK    1  A    between atoms: C_1  and  C_2
REMARK    2  A    between atoms: N_7  and  C_8
REMARK    3  A    between atoms: C_8  and  C_9
REMARK    4  A    between atoms: C_9  and  N_10
REMARK    5  A    between atoms: N_10  and  C_11
REMARK    6  A    between atoms: N_10  and  C_12
REMARK    7  A    between atoms: C_12  and  C_13
REMARK    8  A    between atoms: C_16  and  C_17
REMARK                            x       y       z     vdW  Elec       q    Type
REMARK                         _______ _______ _______ _____ _____    ______ ____
ROOT
ATOM      1  N   UNL     1       6.744   5.695  17.624  0.00  0.00    +0.000 NA
ATOM      2  C   UNL     1       7.609   5.500  18.788  0.00  0.00    +0.000 C 
ENDROOT
BRANCH   1   3
ATOM      3  C   UNL     1       5.405   6.195  17.983  0.00  0.00    +0.000 C 
BRANCH   3   4
ATOM      4  C   UNL     1       4.215   5.321  17.508  0.00  0.00    +0.000 C 
BRANCH   4  11
ATOM      5  C   UNL     1       2.376   7.247  18.846  0.00  0.00    +0.000 C 
ATOM      6  C   UNL     1       2.896   5.970  19.521  0.00  0.00    +0.000 C 
ATOM      7  C   UNL     1       1.810   5.451  20.482  0.00  0.00    +0.000 C 
ATOM      8  C   UNL     1       2.280   4.205  21.226  0.00  0.00    +0.000 C 
ATOM      9  C   UNL     1       2.715   3.138  20.232  0.00  0.00    +0.000 C 
ATOM     10  C   UNL     1       3.743   3.693  19.251  0.00  0.00    +0.000 C 
ATOM     11  N   UNL     1       3.263   4.904  18.562  0.00  0.00    +0.000 NA
ENDBRANCH   4  11
ENDBRANCH   3   4
ENDBRANCH   1   3
BRANCH   1  12
ATOM     12  C   UNL     1       6.642   4.455  16.809  0.00  0.00    +0.000 C 
BRANCH  12  13
ATOM     13  C   UNL     1       6.854   4.607  15.335  0.00  0.00    +0.000 A 
ATOM     14  N   UNL     1       7.654   5.435  14.698  0.00  0.00    +0.000 NA
ATOM     15  N   UNL     1       7.506   5.161  13.356  0.00  0.00    +0.000 NA
ATOM     16  C   UNL     1       6.622   4.188  13.259  0.00  0.00    +0.000 A 
ATOM     17  O   UNL     1       6.157   3.784  14.488  0.00  0.00    +0.000 OA
BRANCH  16  18
ATOM     18  C   UNL     1       6.202   3.615  11.915  0.00  0.00    +0.000 C 
ATOM     19  C   UNL     1       5.882   2.140  11.795  0.00  0.00    +0.000 C 
ATOM     20  C   UNL     1       4.777   3.139  11.725  0.00  0.00    +0.000 C 
ENDBRANCH  16  18
ENDBRANCH  12  13
ENDBRANCH   1  12
TORSDOF 6
ENDMDL
